MODEL 1
REMARK VINA RESULT:      -8.7      0.000      0.000
REMARK  12 active torsions:
REMARK  status: ('A' for Active; 'I' for Inactive)
REMARK    1  A    between atoms: C_2  and  N_3 
REMARK    2  A    between atoms: N_3  and  C_5 
REMARK    3  A    between atoms: N_3  and  C_37 
REMARK    4  A    between atoms: C_5  and  C_6 
REMARK    5  A    between atoms: C_6  and  N_7 
REMARK    6  A    between atoms: N_7  and  C_8 
REMARK    7  A    between atoms: N_7  and  C_21 
REMARK    8  A    between atoms: C_8  and  N_9 
REMARK    9  A    between atoms: N_9  and  C_10 
REMARK   10  A    between atoms: C_11  and  C_12 
REMARK   11  A    between atoms: C_12  and  O_13 
REMARK   12  A    between atoms: C_21  and  C_22 
ROOT
HETATM    1  N   UNL     1      25.933  45.923  50.390  1.00  0.00    -0.352 N 
ENDROOT
BRANCH   1   2
HETATM    2  C   UNL     1      26.510  44.857  49.550  1.00  0.00     0.153 C 
BRANCH   2   3
HETATM    3  C   UNL     1      25.854  43.476  49.765  1.00  0.00     0.254 C 
BRANCH   3   4
HETATM    4  N   UNL     1      26.882  42.337  49.731  1.00  0.00    -0.070 N 
HETATM    5  H   UNL     1      27.810  42.757  49.587  1.00  0.00     0.279 HD
BRANCH   4   6
HETATM    6  C   UNL     1      26.623  41.385  48.573  1.00  0.00     0.230 C 
HETATM    7  C   UNL     1      27.919  40.998  47.881  1.00  0.00     0.034 C 
ENDBRANCH   4   6
BRANCH   4   8
HETATM    8  C   UNL     1      26.920  41.593  51.064  1.00  0.00     0.230 C 
HETATM    9  C   UNL     1      28.337  41.531  51.610  1.00  0.00     0.034 C 
ENDBRANCH   4   8
ENDBRANCH   3   4
ENDBRANCH   2   3
ENDBRANCH   1   2
BRANCH   1  10
HETATM   10  C   UNL     1      25.709  47.234  49.885  1.00  0.00     0.174 C 
HETATM   11  S   UNL     1      26.941  48.294  49.440  1.00  0.00    -0.041 SA
BRANCH  10  12
HETATM   12  N   UNL     1      24.375  47.591  49.918  1.00  0.00    -0.332 N 
HETATM   13  H   UNL     1      24.120  48.214  50.687  1.00  0.00     0.168 HD
BRANCH  12  14
HETATM   14  C   UNL     1      23.293  47.274  49.056  1.00  0.00     0.050 A 
HETATM   15  C   UNL     1      22.740  48.287  48.232  1.00  0.00     0.066 A 
HETATM   16  C   UNL     1      21.638  47.992  47.407  1.00  0.00     0.020 A 
HETATM   17  C   UNL     1      21.073  46.718  47.409  1.00  0.00     0.001 A 
HETATM   18  C   UNL     1      21.591  45.735  48.243  1.00  0.00     0.002 A 
HETATM   19  C   UNL     1      22.684  46.014  49.067  1.00  0.00     0.030 A 
BRANCH  15  20
HETATM   20  C   UNL     1      23.285  49.681  48.278  1.00  0.00     0.295 C 
HETATM   21  O   UNL     1      23.771  50.246  47.306  1.00  0.00    -0.259 OA
BRANCH  20  22
HETATM   22  O   UNL     1      23.193  50.206  49.525  1.00  0.00    -0.322 OA
HETATM   23  C   UNL     1      21.889  50.672  49.879  1.00  0.00     0.213 C 
ENDBRANCH  20  22
ENDBRANCH  15  20
ENDBRANCH  12  14
ENDBRANCH  10  12
ENDBRANCH   1  10
BRANCH   1  24
HETATM   24  C   UNL     1      25.311  45.499  51.667  1.00  0.00     0.169 C 
BRANCH  24  25
HETATM   25  C   UNL     1      26.211  45.641  52.864  1.00  0.00     0.029 A 
HETATM   26  C   UNL     1      26.179  46.920  53.642  1.00  0.00     0.253 A 
HETATM   27  O   UNL     1      25.413  47.836  53.366  1.00  0.00    -0.268 OA
HETATM   28  N   UNL     1      27.029  47.021  54.710  1.00  0.00    -0.322 N 
HETATM   29  C   UNL     1      27.962  46.041  55.063  1.00  0.00     0.048 A 
HETATM   30  H   UNL     1      26.996  47.897  55.218  1.00  0.00     0.169 HD
HETATM   31  C   UNL     1      28.021  44.860  54.313  1.00  0.00    -0.006 A 
HETATM   32  C   UNL     1      28.827  46.254  56.134  1.00  0.00     0.070 A 
HETATM   33  C   UNL     1      28.981  43.895  54.622  1.00  0.00     0.053 A 
HETATM   34  C   UNL     1      27.092  44.681  53.200  1.00  0.00     0.028 A 
HETATM   35  C   UNL     1      29.871  44.118  55.673  1.00  0.00     0.103 A 
HETATM   36  C   UNL     1      29.775  45.281  56.445  1.00  0.00     0.104 A 
HETATM   37  O   UNL     1      30.816  43.149  55.891  1.00  0.00    -0.346 OA
HETATM   38  O   UNL     1      30.596  45.543  57.512  1.00  0.00    -0.346 OA
HETATM   39  C   UNL     1      31.328  44.379  57.917  1.00  0.00     0.202 C 
HETATM   40  C   UNL     1      31.885  43.645  56.708  1.00  0.00     0.202 C 
ENDBRANCH  24  25
ENDBRANCH   1  24
TORSDOF 12
ENDMDL
MODEL 2
REMARK VINA RESULT:      -8.7      1.573      2.515
REMARK  12 active torsions:
REMARK  status: ('A' for Active; 'I' for Inactive)
REMARK    1  A    between atoms: C_2  and  N_3 
REMARK    2  A    between atoms: N_3  and  C_5 
REMARK    3  A    between atoms: N_3  and  C_37 
REMARK    4  A    between atoms: C_5  and  C_6 
REMARK    5  A    between atoms: C_6  and  N_7 
REMARK    6  A    between atoms: N_7  and  C_8 
REMARK    7  A    between atoms: N_7  and  C_21 
REMARK    8  A    between atoms: C_8  and  N_9 
REMARK    9  A    between atoms: N_9  and  C_10 
REMARK   10  A    between atoms: C_11  and  C_12 
REMARK   11  A    between atoms: C_12  and  O_13 
REMARK   12  A    between atoms: C_21  and  C_22 
ROOT
HETATM    1  N   UNL     1      25.282  45.009  50.378  1.00  0.00    -0.352 N 
ENDROOT
BRANCH   1   2
HETATM    2  C   UNL     1      26.466  44.438  49.709  1.00  0.00     0.153 C 
BRANCH   2   3
HETATM    3  C   UNL     1      26.516  42.896  49.752  1.00  0.00     0.254 C 
BRANCH   3   4
HETATM    4  N   UNL     1      25.833  42.262  48.532  1.00  0.00    -0.070 N 
HETATM    5  H   UNL     1      25.630  43.015  47.861  1.00  0.00     0.279 HD
BRANCH   4   6
HETATM    6  C   UNL     1      24.510  41.612  48.909  1.00  0.00     0.230 C 
HETATM    7  C   UNL     1      23.683  41.297  47.674  1.00  0.00     0.034 C 
ENDBRANCH   4   6
BRANCH   4   8
HETATM    8  C   UNL     1      26.762  41.268  47.838  1.00  0.00     0.230 C 
HETATM    9  C   UNL     1      27.908  40.868  48.752  1.00  0.00     0.034 C 
ENDBRANCH   4   8
ENDBRANCH   3   4
ENDBRANCH   2   3
ENDBRANCH   1   2
BRANCH   1  10
HETATM   10  C   UNL     1      24.330  45.795  49.671  1.00  0.00     0.174 C 
HETATM   11  S   UNL     1      23.299  45.183  48.487  1.00  0.00    -0.041 SA
BRANCH  10  12
HETATM   12  N   UNL     1      24.429  47.139  49.971  1.00  0.00    -0.332 N 
HETATM   13  H   UNL     1      23.781  47.464  50.689  1.00  0.00     0.168 HD
BRANCH  12  14
HETATM   14  C   UNL     1      25.295  48.152  49.482  1.00  0.00     0.050 A 
HETATM   15  C   UNL     1      24.755  49.225  48.726  1.00  0.00     0.066 A 
HETATM   16  C   UNL     1      25.612  50.209  48.200  1.00  0.00     0.020 A 
HETATM   17  C   UNL     1      26.989  50.129  48.398  1.00  0.00     0.001 A 
HETATM   18  C   UNL     1      27.523  49.060  49.107  1.00  0.00     0.002 A 
HETATM   19  C   UNL     1      26.684  48.075  49.635  1.00  0.00     0.030 A 
BRANCH  15  20
HETATM   20  C   UNL     1      23.287  49.281  48.436  1.00  0.00     0.295 C 
HETATM   21  O   UNL     1      22.741  48.580  47.592  1.00  0.00    -0.259 OA
BRANCH  20  22
HETATM   22  O   UNL     1      22.669  50.216  49.198  1.00  0.00    -0.322 OA
HETATM   23  C   UNL     1      21.628  50.933  48.530  1.00  0.00     0.213 C 
ENDBRANCH  20  22
ENDBRANCH  15  20
ENDBRANCH  12  14
ENDBRANCH  10  12
ENDBRANCH   1  10
BRANCH   1  24
HETATM   24  C   UNL     1      24.959  44.479  51.725  1.00  0.00     0.169 C 
BRANCH  24  25
HETATM   25  C   UNL     1      25.950  44.864  52.789  1.00  0.00     0.029 A 
HETATM   26  C   UNL     1      26.020  46.293  53.226  1.00  0.00     0.253 A 
HETATM   27  O   UNL     1      25.267  47.152  52.780  1.00  0.00    -0.268 OA
HETATM   28  N   UNL     1      26.950  46.610  54.178  1.00  0.00    -0.322 N 
HETATM   29  C   UNL     1      27.873  45.700  54.704  1.00  0.00     0.048 A 
HETATM   30  H   UNL     1      26.985  47.584  54.454  1.00  0.00     0.169 HD
HETATM   31  C   UNL     1      27.836  44.369  54.268  1.00  0.00    -0.006 A 
HETATM   32  C   UNL     1      28.822  46.124  55.631  1.00  0.00     0.070 A 
HETATM   33  C   UNL     1      28.782  43.461  54.745  1.00  0.00     0.053 A 
HETATM   34  C   UNL     1      26.820  43.971  53.296  1.00  0.00     0.028 A 
HETATM   35  C   UNL     1      29.755  43.888  55.649  1.00  0.00     0.103 A 
HETATM   36  C   UNL     1      29.757  45.209  56.112  1.00  0.00     0.104 A 
HETATM   37  O   UNL     1      30.680  42.955  56.039  1.00  0.00    -0.346 OA
HETATM   38  O   UNL     1      30.663  45.682  57.027  1.00  0.00    -0.346 OA
HETATM   39  C   UNL     1      31.384  44.616  57.660  1.00  0.00     0.202 C 
HETATM   40  C   UNL     1      31.823  43.581  56.638  1.00  0.00     0.202 C 
ENDBRANCH  24  25
ENDBRANCH   1  24
TORSDOF 12
ENDMDL
MODEL 3
REMARK VINA RESULT:      -8.7      1.612      2.284
REMARK  12 active torsions:
REMARK  status: ('A' for Active; 'I' for Inactive)
REMARK    1  A    between atoms: C_2  and  N_3 
REMARK    2  A    between atoms: N_3  and  C_5 
REMARK    3  A    between atoms: N_3  and  C_37 
REMARK    4  A    between atoms: C_5  and  C_6 
REMARK    5  A    between atoms: C_6  and  N_7 
REMARK    6  A    between atoms: N_7  and  C_8 
REMARK    7  A    between atoms: N_7  and  C_21 
REMARK    8  A    between atoms: C_8  and  N_9 
REMARK    9  A    between atoms: N_9  and  C_10 
REMARK   10  A    between atoms: C_11  and  C_12 
REMARK   11  A    between atoms: C_12  and  O_13 
REMARK   12  A    between atoms: C_21  and  C_22 
ROOT
HETATM    1  N   UNL     1      24.928  45.529  50.130  1.00  0.00    -0.352 N 
ENDROOT
BRANCH   1   2
HETATM    2  C   UNL     1      26.159  45.047  49.477  1.00  0.00     0.153 C 
BRANCH   2   3
HETATM    3  C   UNL     1      26.434  43.545  49.707  1.00  0.00     0.254 C 
BRANCH   3   4
HETATM    4  N   UNL     1      25.810  42.670  48.612  1.00  0.00    -0.070 N 
HETATM    5  H   UNL     1      25.617  43.273  47.801  1.00  0.00     0.279 HD
BRANCH   4   6
HETATM    6  C   UNL     1      24.487  42.069  49.064  1.00  0.00     0.230 C 
HETATM    7  C   UNL     1      23.936  41.111  48.021  1.00  0.00     0.034 C 
ENDBRANCH   4   6
BRANCH   4   8
HETATM    8  C   UNL     1      26.784  41.587  48.153  1.00  0.00     0.230 C 
HETATM    9  C   UNL     1      27.538  41.001  49.336  1.00  0.00     0.034 C 
ENDBRANCH   4   8
ENDBRANCH   3   4
ENDBRANCH   2   3
ENDBRANCH   1   2
BRANCH   1  10
HETATM   10  C   UNL     1      23.934  46.251  49.412  1.00  0.00     0.174 C 
HETATM   11  S   UNL     1      22.896  45.554  48.283  1.00  0.00    -0.041 SA
BRANCH  10  12
HETATM   12  N   UNL     1      23.996  47.610  49.649  1.00  0.00    -0.332 N 
HETATM   13  H   UNL     1      24.723  47.895  50.307  1.00  0.00     0.168 HD
BRANCH  12  14
HETATM   14  C   UNL     1      23.251  48.694  49.116  1.00  0.00     0.050 A 
HETATM   15  C   UNL     1      23.931  49.749  48.454  1.00  0.00     0.066 A 
HETATM   16  C   UNL     1      23.204  50.848  47.962  1.00  0.00     0.020 A 
HETATM   17  C   UNL     1      21.824  50.921  48.138  1.00  0.00     0.001 A 
HETATM   18  C   UNL     1      21.161  49.908  48.819  1.00  0.00     0.002 A 
HETATM   19  C   UNL     1      21.870  48.809  49.313  1.00  0.00     0.030 A 
BRANCH  15  20
HETATM   20  C   UNL     1      25.424  49.723  48.327  1.00  0.00     0.295 C 
HETATM   21  O   UNL     1      26.020  50.097  47.325  1.00  0.00    -0.259 OA
BRANCH  20  22
HETATM   22  O   UNL     1      26.005  49.213  49.441  1.00  0.00    -0.322 OA
HETATM   23  C   UNL     1      27.349  48.763  49.255  1.00  0.00     0.213 C 
ENDBRANCH  20  22
ENDBRANCH  15  20
ENDBRANCH  12  14
ENDBRANCH  10  12
ENDBRANCH   1  10
BRANCH   1  24
HETATM   24  C   UNL     1      24.621  44.967  51.468  1.00  0.00     0.169 C 
BRANCH  24  25
HETATM   25  C   UNL     1      25.646  45.294  52.519  1.00  0.00     0.029 A 
HETATM   26  C   UNL     1      25.816  46.720  52.942  1.00  0.00     0.253 A 
HETATM   27  O   UNL     1      25.118  47.624  52.495  1.00  0.00    -0.268 OA
HETATM   28  N   UNL     1      26.775  46.982  53.882  1.00  0.00    -0.322 N 
HETATM   29  C   UNL     1      27.640  46.016  54.408  1.00  0.00     0.048 A 
HETATM   30  H   UNL     1      26.878  47.954  54.149  1.00  0.00     0.169 HD
HETATM   31  C   UNL     1      27.509  44.687  53.985  1.00  0.00    -0.006 A 
HETATM   32  C   UNL     1      28.625  46.383  55.322  1.00  0.00     0.070 A 
HETATM   33  C   UNL     1      28.397  43.721  54.462  1.00  0.00     0.053 A 
HETATM   34  C   UNL     1      26.459  44.349  53.026  1.00  0.00     0.028 A 
HETATM   35  C   UNL     1      29.405  44.090  55.352  1.00  0.00     0.103 A 
HETATM   36  C   UNL     1      29.501  45.412  55.803  1.00  0.00     0.104 A 
HETATM   37  O   UNL     1      30.270  43.101  55.743  1.00  0.00    -0.346 OA
HETATM   38  O   UNL     1      30.446  45.831  56.705  1.00  0.00    -0.346 OA
HETATM   39  C   UNL     1      31.099  44.725  57.342  1.00  0.00     0.202 C 
HETATM   40  C   UNL     1      31.458  43.653  56.325  1.00  0.00     0.202 C 
ENDBRANCH  24  25
ENDBRANCH   1  24
TORSDOF 12
ENDMDL
MODEL 4
REMARK VINA RESULT:      -8.4      2.419      8.329
REMARK  12 active torsions:
REMARK  status: ('A' for Active; 'I' for Inactive)
REMARK    1  A    between atoms: C_2  and  N_3 
REMARK    2  A    between atoms: N_3  and  C_5 
REMARK    3  A    between atoms: N_3  and  C_37 
REMARK    4  A    between atoms: C_5  and  C_6 
REMARK    5  A    between atoms: C_6  and  N_7 
REMARK    6  A    between atoms: N_7  and  C_8 
REMARK    7  A    between atoms: N_7  and  C_21 
REMARK    8  A    between atoms: C_8  and  N_9 
REMARK    9  A    between atoms: N_9  and  C_10 
REMARK   10  A    between atoms: C_11  and  C_12 
REMARK   11  A    between atoms: C_12  and  O_13 
REMARK   12  A    between atoms: C_21  and  C_22 
ROOT
HETATM    1  N   UNL     1      27.325  42.834  52.392  1.00  0.00    -0.352 N 
ENDROOT
BRANCH   1   2
HETATM    2  C   UNL     1      27.566  41.395  52.603  1.00  0.00     0.153 C 
BRANCH   2   3
HETATM    3  C   UNL     1      28.792  40.854  51.837  1.00  0.00     0.254 C 
BRANCH   3   4
HETATM    4  N   UNL     1      28.469  39.567  51.066  1.00  0.00    -0.070 N 
HETATM    5  H   UNL     1      27.661  39.123  51.522  1.00  0.00     0.279 HD
BRANCH   4   6
HETATM    6  C   UNL     1      29.627  38.580  51.118  1.00  0.00     0.230 C 
HETATM    7  C   UNL     1      29.947  38.038  49.735  1.00  0.00     0.034 C 
ENDBRANCH   4   6
BRANCH   4   8
HETATM    8  C   UNL     1      28.068  39.877  49.625  1.00  0.00     0.230 C 
HETATM    9  C   UNL     1      26.600  39.560  49.392  1.00  0.00     0.034 C 
ENDBRANCH   4   8
ENDBRANCH   3   4
ENDBRANCH   2   3
ENDBRANCH   1   2
BRANCH   1  10
HETATM   10  C   UNL     1      27.264  43.749  53.479  1.00  0.00     0.174 C 
HETATM   11  S   UNL     1      25.843  44.158  54.288  1.00  0.00    -0.041 SA
BRANCH  10  12
HETATM   12  N   UNL     1      28.478  44.363  53.720  1.00  0.00    -0.332 N 
HETATM   13  H   UNL     1      28.816  44.953  52.957  1.00  0.00     0.168 HD
BRANCH  12  14
HETATM   14  C   UNL     1      29.332  44.350  54.853  1.00  0.00     0.050 A 
HETATM   15  C   UNL     1      29.408  45.499  55.682  1.00  0.00     0.066 A 
HETATM   16  C   UNL     1      30.286  45.510  56.782  1.00  0.00     0.020 A 
HETATM   17  C   UNL     1      31.097  44.410  57.052  1.00  0.00     0.001 A 
HETATM   18  C   UNL     1      31.051  43.298  56.219  1.00  0.00     0.002 A 
HETATM   19  C   UNL     1      30.184  43.273  55.124  1.00  0.00     0.030 A 
BRANCH  15  20
HETATM   20  C   UNL     1      28.602  46.719  55.358  1.00  0.00     0.295 C 
HETATM   21  O   UNL     1      28.836  47.444  54.399  1.00  0.00    -0.259 OA
BRANCH  20  22
HETATM   22  O   UNL     1      27.620  46.919  56.272  1.00  0.00    -0.322 OA
HETATM   23  C   UNL     1      26.686  47.943  55.924  1.00  0.00     0.213 C 
ENDBRANCH  20  22
ENDBRANCH  15  20
ENDBRANCH  12  14
ENDBRANCH  10  12
ENDBRANCH   1  10
BRANCH   1  24
HETATM   24  C   UNL     1      27.461  43.335  51.003  1.00  0.00     0.169 C 
BRANCH  24  25
HETATM   25  C   UNL     1      26.338  44.233  50.562  1.00  0.00     0.029 A 
HETATM   26  C   UNL     1      25.025  43.618  50.193  1.00  0.00     0.253 A 
HETATM   27  O   UNL     1      24.818  42.412  50.281  1.00  0.00    -0.268 OA
HETATM   28  N   UNL     1      24.034  44.464  49.774  1.00  0.00    -0.322 N 
HETATM   29  C   UNL     1      24.203  45.842  49.606  1.00  0.00     0.048 A 
HETATM   30  H   UNL     1      23.156  44.026  49.523  1.00  0.00     0.169 HD
HETATM   31  C   UNL     1      25.443  46.416  49.913  1.00  0.00    -0.006 A 
HETATM   32  C   UNL     1      23.154  46.620  49.121  1.00  0.00     0.070 A 
HETATM   33  C   UNL     1      25.642  47.782  49.702  1.00  0.00     0.053 A 
HETATM   34  C   UNL     1      26.513  45.560  50.421  1.00  0.00     0.028 A 
HETATM   35  C   UNL     1      24.605  48.559  49.186  1.00  0.00     0.103 A 
HETATM   36  C   UNL     1      23.356  47.985  48.923  1.00  0.00     0.104 A 
HETATM   37  O   UNL     1      24.885  49.882  48.960  1.00  0.00    -0.346 OA
HETATM   38  O   UNL     1      22.286  48.701  48.450  1.00  0.00    -0.346 OA
HETATM   39  C   UNL     1      22.506  50.114  48.551  1.00  0.00     0.202 C 
HETATM   40  C   UNL     1      23.910  50.475  48.093  1.00  0.00     0.202 C 
ENDBRANCH  24  25
ENDBRANCH   1  24
TORSDOF 12
ENDMDL
MODEL 5
REMARK VINA RESULT:      -8.2      1.377      2.189
REMARK  12 active torsions:
REMARK  status: ('A' for Active; 'I' for Inactive)
REMARK    1  A    between atoms: C_2  and  N_3 
REMARK    2  A    between atoms: N_3  and  C_5 
REMARK    3  A    between atoms: N_3  and  C_37 
REMARK    4  A    between atoms: C_5  and  C_6 
REMARK    5  A    between atoms: C_6  and  N_7 
REMARK    6  A    between atoms: N_7  and  C_8 
REMARK    7  A    between atoms: N_7  and  C_21 
REMARK    8  A    between atoms: C_8  and  N_9 
REMARK    9  A    between atoms: N_9  and  C_10 
REMARK   10  A    between atoms: C_11  and  C_12 
REMARK   11  A    between atoms: C_12  and  O_13 
REMARK   12  A    between atoms: C_21  and  C_22 
ROOT
HETATM    1  N   UNL     1      25.783  46.003  50.338  1.00  0.00    -0.352 N 
ENDROOT
BRANCH   1   2
HETATM    2  C   UNL     1      26.313  44.977  49.422  1.00  0.00     0.153 C 
BRANCH   2   3
HETATM    3  C   UNL     1      25.866  43.542  49.775  1.00  0.00     0.254 C 
BRANCH   3   4
HETATM    4  N   UNL     1      25.953  42.597  48.569  1.00  0.00    -0.070 N 
HETATM    5  H   UNL     1      26.138  43.170  47.735  1.00  0.00     0.279 HD
BRANCH   4   6
HETATM    6  C   UNL     1      24.640  41.862  48.340  1.00  0.00     0.230 C 
HETATM    7  C   UNL     1      24.518  41.394  46.900  1.00  0.00     0.034 C 
ENDBRANCH   4   6
BRANCH   4   8
HETATM    8  C   UNL     1      27.117  41.620  48.720  1.00  0.00     0.230 C 
HETATM    9  C   UNL     1      27.301  41.218  50.174  1.00  0.00     0.034 C 
ENDBRANCH   4   8
ENDBRANCH   3   4
ENDBRANCH   2   3
ENDBRANCH   1   2
BRANCH   1  10
HETATM   10  C   UNL     1      25.565  47.344  49.913  1.00  0.00     0.174 C 
HETATM   11  S   UNL     1      26.793  48.383  49.411  1.00  0.00    -0.041 SA
BRANCH  10  12
HETATM   12  N   UNL     1      24.253  47.742  50.076  1.00  0.00    -0.332 N 
HETATM   13  H   UNL     1      23.804  47.392  50.924  1.00  0.00     0.168 HD
BRANCH  12  14
HETATM   14  C   UNL     1      23.418  48.580  49.292  1.00  0.00     0.050 A 
HETATM   15  C   UNL     1      22.377  48.002  48.521  1.00  0.00     0.066 A 
HETATM   16  C   UNL     1      21.573  48.821  47.707  1.00  0.00     0.020 A 
HETATM   17  C   UNL     1      21.803  50.193  47.635  1.00  0.00     0.001 A 
HETATM   18  C   UNL     1      22.846  50.756  48.362  1.00  0.00     0.002 A 
HETATM   19  C   UNL     1      23.652  49.955  49.175  1.00  0.00     0.030 A 
BRANCH  15  20
HETATM   20  C   UNL     1      22.169  46.518  48.524  1.00  0.00     0.295 C 
HETATM   21  O   UNL     1      23.045  45.716  48.226  1.00  0.00    -0.259 OA
BRANCH  20  22
HETATM   22  O   UNL     1      20.896  46.199  48.866  1.00  0.00    -0.322 OA
HETATM   23  C   UNL     1      20.236  45.327  47.947  1.00  0.00     0.213 C 
ENDBRANCH  20  22
ENDBRANCH  15  20
ENDBRANCH  12  14
ENDBRANCH  10  12
ENDBRANCH   1  10
BRANCH   1  24
HETATM   24  C   UNL     1      25.195  45.520  51.611  1.00  0.00     0.169 C 
BRANCH  24  25
HETATM   25  C   UNL     1      26.102  45.672  52.801  1.00  0.00     0.029 A 
HETATM   26  C   UNL     1      26.089  46.963  53.557  1.00  0.00     0.253 A 
HETATM   27  O   UNL     1      25.332  47.884  53.269  1.00  0.00    -0.268 OA
HETATM   28  N   UNL     1      26.945  47.073  54.619  1.00  0.00    -0.322 N 
HETATM   29  C   UNL     1      27.867  46.088  54.985  1.00  0.00     0.048 A 
HETATM   30  H   UNL     1      26.924  47.958  55.113  1.00  0.00     0.169 HD
HETATM   31  C   UNL     1      27.909  44.894  54.256  1.00  0.00    -0.006 A 
HETATM   32  C   UNL     1      28.740  46.308  56.049  1.00  0.00     0.070 A 
HETATM   33  C   UNL     1      28.859  43.922  54.577  1.00  0.00     0.053 A 
HETATM   34  C   UNL     1      26.973  44.707  53.149  1.00  0.00     0.028 A 
HETATM   35  C   UNL     1      29.756  44.152  55.619  1.00  0.00     0.103 A 
HETATM   36  C   UNL     1      29.678  45.329  56.372  1.00  0.00     0.104 A 
HETATM   37  O   UNL     1      30.691  43.176  55.850  1.00  0.00    -0.346 OA
HETATM   38  O   UNL     1      30.506  45.599  57.431  1.00  0.00    -0.346 OA
HETATM   39  C   UNL     1      31.227  44.434  57.853  1.00  0.00     0.202 C 
HETATM   40  C   UNL     1      31.769  43.673  56.654  1.00  0.00     0.202 C 
ENDBRANCH  24  25
ENDBRANCH   1  24
TORSDOF 12
ENDMDL
MODEL 6
REMARK VINA RESULT:      -8.1      2.540      6.035
REMARK  12 active torsions:
REMARK  status: ('A' for Active; 'I' for Inactive)
REMARK    1  A    between atoms: C_2  and  N_3 
REMARK    2  A    between atoms: N_3  and  C_5 
REMARK    3  A    between atoms: N_3  and  C_37 
REMARK    4  A    between atoms: C_5  and  C_6 
REMARK    5  A    between atoms: C_6  and  N_7 
REMARK    6  A    between atoms: N_7  and  C_8 
REMARK    7  A    between atoms: N_7  and  C_21 
REMARK    8  A    between atoms: C_8  and  N_9 
REMARK    9  A    between atoms: N_9  and  C_10 
REMARK   10  A    between atoms: C_11  and  C_12 
REMARK   11  A    between atoms: C_12  and  O_13 
REMARK   12  A    between atoms: C_21  and  C_22 
ROOT
HETATM    1  N   UNL     1      25.618  45.232  50.716  1.00  0.00    -0.352 N 
ENDROOT
BRANCH   1   2
HETATM    2  C   UNL     1      26.583  46.156  50.092  1.00  0.00     0.153 C 
BRANCH   2   3
HETATM    3  C   UNL     1      26.208  47.644  50.255  1.00  0.00     0.254 C 
BRANCH   3   4
HETATM    4  N   UNL     1      25.355  48.156  49.087  1.00  0.00    -0.070 N 
HETATM    5  H   UNL     1      25.430  47.474  48.321  1.00  0.00     0.279 HD
BRANCH   4   6
HETATM    6  C   UNL     1      25.866  49.491  48.565  1.00  0.00     0.230 C 
HETATM    7  C   UNL     1      27.361  49.634  48.797  1.00  0.00     0.034 C 
ENDBRANCH   4   6
BRANCH   4   8
HETATM    8  C   UNL     1      23.881  48.241  49.480  1.00  0.00     0.230 C 
HETATM    9  C   UNL     1      23.268  49.546  49.001  1.00  0.00     0.034 C 
ENDBRANCH   4   8
ENDBRANCH   3   4
ENDBRANCH   2   3
ENDBRANCH   1   2
BRANCH   1  10
HETATM   10  C   UNL     1      25.487  43.882  50.283  1.00  0.00     0.174 C 
HETATM   11  S   UNL     1      24.053  43.001  50.367  1.00  0.00    -0.041 SA
BRANCH  10  12
HETATM   12  N   UNL     1      26.696  43.332  49.903  1.00  0.00    -0.332 N 
HETATM   13  H   UNL     1      27.188  43.848  49.172  1.00  0.00     0.168 HD
BRANCH  12  14
HETATM   14  C   UNL     1      27.398  42.189  50.367  1.00  0.00     0.050 A 
HETATM   15  C   UNL     1      27.364  40.993  49.605  1.00  0.00     0.066 A 
HETATM   16  C   UNL     1      28.021  39.843  50.080  1.00  0.00     0.020 A 
HETATM   17  C   UNL     1      28.688  39.863  51.303  1.00  0.00     0.001 A 
HETATM   18  C   UNL     1      28.693  41.023  52.068  1.00  0.00     0.002 A 
HETATM   19  C   UNL     1      28.044  42.172  51.609  1.00  0.00     0.030 A 
BRANCH  15  20
HETATM   20  C   UNL     1      26.583  40.932  48.329  1.00  0.00     0.295 C 
HETATM   21  O   UNL     1      25.538  40.304  48.209  1.00  0.00    -0.259 OA
BRANCH  20  22
HETATM   22  O   UNL     1      27.197  41.628  47.340  1.00  0.00    -0.322 OA
HETATM   23  C   UNL     1      28.232  40.911  46.664  1.00  0.00     0.213 C 
ENDBRANCH  20  22
ENDBRANCH  15  20
ENDBRANCH  12  14
ENDBRANCH  10  12
ENDBRANCH   1  10
BRANCH   1  24
HETATM   24  C   UNL     1      25.020  45.663  52.002  1.00  0.00     0.169 C 
BRANCH  24  25
HETATM   25  C   UNL     1      26.008  45.773  53.131  1.00  0.00     0.029 A 
HETATM   26  C   UNL     1      26.094  47.059  53.891  1.00  0.00     0.253 A 
HETATM   27  O   UNL     1      25.356  48.010  53.656  1.00  0.00    -0.268 OA
HETATM   28  N   UNL     1      27.021  47.129  54.895  1.00  0.00    -0.322 N 
HETATM   29  C   UNL     1      27.927  46.108  55.196  1.00  0.00     0.048 A 
HETATM   30  H   UNL     1      27.067  48.011  55.392  1.00  0.00     0.169 HD
HETATM   31  C   UNL     1      27.875  44.917  54.461  1.00  0.00    -0.006 A 
HETATM   32  C   UNL     1      28.875  46.288  56.201  1.00  0.00     0.070 A 
HETATM   33  C   UNL     1      28.805  43.907  54.716  1.00  0.00     0.053 A 
HETATM   34  C   UNL     1      26.861  44.773  53.418  1.00  0.00     0.028 A 
HETATM   35  C   UNL     1      29.776  44.097  55.698  1.00  0.00     0.103 A 
HETATM   36  C   UNL     1      29.793  45.271  56.458  1.00  0.00     0.104 A 
HETATM   37  O   UNL     1      30.686  43.084  55.863  1.00  0.00    -0.346 OA
HETATM   38  O   UNL     1      30.698  45.503  57.462  1.00  0.00    -0.346 OA
HETATM   39  C   UNL     1      31.399  44.308  57.832  1.00  0.00     0.202 C 
HETATM   40  C   UNL     1      31.832  43.534  56.597  1.00  0.00     0.202 C 
ENDBRANCH  24  25
ENDBRANCH   1  24
TORSDOF 12
ENDMDL
MODEL 7
REMARK VINA RESULT:      -7.9     11.651     13.499
REMARK  12 active torsions:
REMARK  status: ('A' for Active; 'I' for Inactive)
REMARK    1  A    between atoms: C_2  and  N_3 
REMARK    2  A    between atoms: N_3  and  C_5 
REMARK    3  A    between atoms: N_3  and  C_37 
REMARK    4  A    between atoms: C_5  and  C_6 
REMARK    5  A    between atoms: C_6  and  N_7 
REMARK    6  A    between atoms: N_7  and  C_8 
REMARK    7  A    between atoms: N_7  and  C_21 
REMARK    8  A    between atoms: C_8  and  N_9 
REMARK    9  A    between atoms: N_9  and  C_10 
REMARK   10  A    between atoms: C_11  and  C_12 
REMARK   11  A    between atoms: C_12  and  O_13 
REMARK   12  A    between atoms: C_21  and  C_22 
ROOT
HETATM    1  N   UNL     1      28.994  48.705  40.790  1.00  0.00    -0.352 N 
ENDROOT
BRANCH   1   2
HETATM    2  C   UNL     1      27.823  49.481  41.240  1.00  0.00     0.153 C 
BRANCH   2   3
HETATM    3  C   UNL     1      26.587  49.318  40.329  1.00  0.00     0.254 C 
BRANCH   3   4
HETATM    4  N   UNL     1      25.634  48.227  40.839  1.00  0.00    -0.070 N 
HETATM    5  H   UNL     1      25.344  48.485  41.791  1.00  0.00     0.279 HD
BRANCH   4   6
HETATM    6  C   UNL     1      26.327  46.875  40.919  1.00  0.00     0.230 C 
HETATM    7  C   UNL     1      26.134  46.083  39.637  1.00  0.00     0.034 C 
ENDBRANCH   4   6
BRANCH   4   8
HETATM    8  C   UNL     1      24.374  48.155  39.980  1.00  0.00     0.230 C 
HETATM    9  C   UNL     1      24.324  49.309  38.992  1.00  0.00     0.034 C 
ENDBRANCH   4   8
ENDBRANCH   3   4
ENDBRANCH   2   3
ENDBRANCH   1   2
BRANCH   1  10
HETATM   10  C   UNL     1      29.430  48.726  39.436  1.00  0.00     0.174 C 
HETATM   11  S   UNL     1      29.720  47.343  38.518  1.00  0.00    -0.041 SA
BRANCH  10  12
HETATM   12  N   UNL     1      29.712  50.004  38.994  1.00  0.00    -0.332 N 
HETATM   13  H   UNL     1      28.976  50.431  38.428  1.00  0.00     0.168 HD
BRANCH  12  14
HETATM   14  C   UNL     1      30.831  50.850  39.208  1.00  0.00     0.050 A 
HETATM   15  C   UNL     1      30.656  52.073  39.906  1.00  0.00     0.066 A 
HETATM   16  C   UNL     1      31.752  52.938  40.084  1.00  0.00     0.020 A 
HETATM   17  C   UNL     1      33.003  52.614  39.563  1.00  0.00     0.001 A 
HETATM   18  C   UNL     1      33.168  51.434  38.848  1.00  0.00     0.002 A 
HETATM   19  C   UNL     1      32.089  50.565  38.664  1.00  0.00     0.030 A 
BRANCH  15  20
HETATM   20  C   UNL     1      29.301  52.474  40.401  1.00  0.00     0.295 C 
HETATM   21  O   UNL     1      29.071  52.769  41.568  1.00  0.00    -0.259 OA
BRANCH  20  22
HETATM   22  O   UNL     1      28.380  52.436  39.406  1.00  0.00    -0.322 OA
HETATM   23  C   UNL     1      28.659  53.304  38.306  1.00  0.00     0.213 C 
ENDBRANCH  20  22
ENDBRANCH  15  20
ENDBRANCH  12  14
ENDBRANCH  10  12
ENDBRANCH   1  10
BRANCH   1  24
HETATM   24  C   UNL     1      29.876  48.158  41.849  1.00  0.00     0.169 C 
BRANCH  24  25
HETATM   25  C   UNL     1      31.279  48.699  41.817  1.00  0.00     0.029 A 
HETATM   26  C   UNL     1      32.334  47.922  41.095  1.00  0.00     0.253 A 
HETATM   27  O   UNL     1      32.086  46.884  40.490  1.00  0.00    -0.268 OA
HETATM   28  N   UNL     1      33.604  48.433  41.107  1.00  0.00    -0.322 N 
HETATM   29  C   UNL     1      33.977  49.584  41.808  1.00  0.00     0.048 A 
HETATM   30  H   UNL     1      34.304  47.887  40.618  1.00  0.00     0.169 HD
HETATM   31  C   UNL     1      32.999  50.292  42.517  1.00  0.00    -0.006 A 
HETATM   32  C   UNL     1      35.306  50.001  41.811  1.00  0.00     0.070 A 
HETATM   33  C   UNL     1      33.365  51.415  43.263  1.00  0.00     0.053 A 
HETATM   34  C   UNL     1      31.617  49.818  42.484  1.00  0.00     0.028 A 
HETATM   35  C   UNL     1      34.700  51.816  43.295  1.00  0.00     0.103 A 
HETATM   36  C   UNL     1      35.663  51.129  42.547  1.00  0.00     0.104 A 
HETATM   37  O   UNL     1      34.996  52.898  44.084  1.00  0.00    -0.346 OA
HETATM   38  O   UNL     1      36.984  51.494  42.507  1.00  0.00    -0.346 OA
HETATM   39  C   UNL     1      37.190  52.804  43.055  1.00  0.00     0.202 C 
HETATM   40  C   UNL     1      36.404  52.978  44.344  1.00  0.00     0.202 C 
ENDBRANCH  24  25
ENDBRANCH   1  24
TORSDOF 12
ENDMDL
MODEL 8
REMARK VINA RESULT:      -7.8     11.716     13.448
REMARK  12 active torsions:
REMARK  status: ('A' for Active; 'I' for Inactive)
REMARK    1  A    between atoms: C_2  and  N_3 
REMARK    2  A    between atoms: N_3  and  C_5 
REMARK    3  A    between atoms: N_3  and  C_37 
REMARK    4  A    between atoms: C_5  and  C_6 
REMARK    5  A    between atoms: C_6  and  N_7 
REMARK    6  A    between atoms: N_7  and  C_8 
REMARK    7  A    between atoms: N_7  and  C_21 
REMARK    8  A    between atoms: C_8  and  N_9 
REMARK    9  A    between atoms: N_9  and  C_10 
REMARK   10  A    between atoms: C_11  and  C_12 
REMARK   11  A    between atoms: C_12  and  O_13 
REMARK   12  A    between atoms: C_21  and  C_22 
ROOT
HETATM    1  N   UNL     1      29.538  47.855  39.224  1.00  0.00    -0.352 N 
ENDROOT
BRANCH   1   2
HETATM    2  C   UNL     1      29.734  46.869  38.146  1.00  0.00     0.153 C 
BRANCH   2   3
HETATM    3  C   UNL     1      28.415  46.298  37.582  1.00  0.00     0.254 C 
BRANCH   3   4
HETATM    4  N   UNL     1      28.031  44.969  38.247  1.00  0.00    -0.070 N 
HETATM    5  H   UNL     1      27.515  44.410  37.554  1.00  0.00     0.279 HD
BRANCH   4   6
HETATM    6  C   UNL     1      27.112  45.187  39.440  1.00  0.00     0.230 C 
HETATM    7  C   UNL     1      27.109  43.975  40.357  1.00  0.00     0.034 C 
ENDBRANCH   4   6
BRANCH   4   8
HETATM    8  C   UNL     1      29.274  44.174  38.641  1.00  0.00     0.230 C 
HETATM    9  C   UNL     1      29.533  43.048  37.654  1.00  0.00     0.034 C 
ENDBRANCH   4   8
ENDBRANCH   3   4
ENDBRANCH   2   3
ENDBRANCH   1   2
BRANCH   1  10
HETATM   10  C   UNL     1      28.742  49.020  39.036  1.00  0.00     0.174 C 
HETATM   11  S   UNL     1      27.105  49.114  39.425  1.00  0.00    -0.041 SA
BRANCH  10  12
HETATM   12  N   UNL     1      29.426  50.026  38.383  1.00  0.00    -0.332 N 
HETATM   13  H   UNL     1      29.040  50.282  37.473  1.00  0.00     0.168 HD
BRANCH  12  14
HETATM   14  C   UNL     1      30.557  50.797  38.761  1.00  0.00     0.050 A 
HETATM   15  C   UNL     1      30.376  51.951  39.566  1.00  0.00     0.066 A 
HETATM   16  C   UNL     1      31.486  52.745  39.909  1.00  0.00     0.020 A 
HETATM   17  C   UNL     1      32.759  52.418  39.447  1.00  0.00     0.001 A 
HETATM   18  C   UNL     1      32.933  51.309  38.628  1.00  0.00     0.002 A 
HETATM   19  C   UNL     1      31.840  50.512  38.280  1.00  0.00     0.030 A 
BRANCH  15  20
HETATM   20  C   UNL     1      29.003  52.360  40.003  1.00  0.00     0.295 C 
HETATM   21  O   UNL     1      28.687  52.506  41.178  1.00  0.00    -0.259 OA
BRANCH  20  22
HETATM   22  O   UNL     1      28.171  52.511  38.943  1.00  0.00    -0.322 OA
HETATM   23  C   UNL     1      28.613  53.464  37.974  1.00  0.00     0.213 C 
ENDBRANCH  20  22
ENDBRANCH  15  20
ENDBRANCH  12  14
ENDBRANCH  10  12
ENDBRANCH   1  10
BRANCH   1  24
HETATM   24  C   UNL     1      29.936  47.436  40.590  1.00  0.00     0.169 C 
BRANCH  24  25
HETATM   25  C   UNL     1      30.837  48.415  41.293  1.00  0.00     0.029 A 
HETATM   26  C   UNL     1      30.222  49.447  42.185  1.00  0.00     0.253 A 
HETATM   27  O   UNL     1      29.016  49.495  42.399  1.00  0.00    -0.268 OA
HETATM   28  N   UNL     1      31.071  50.335  42.788  1.00  0.00    -0.322 N 
HETATM   29  C   UNL     1      32.451  50.375  42.563  1.00  0.00     0.048 A 
HETATM   30  H   UNL     1      30.634  51.029  43.383  1.00  0.00     0.169 HD
HETATM   31  C   UNL     1      33.024  49.434  41.698  1.00  0.00    -0.006 A 
HETATM   32  C   UNL     1      33.232  51.350  43.178  1.00  0.00     0.070 A 
HETATM   33  C   UNL     1      34.391  49.493  41.423  1.00  0.00     0.053 A 
HETATM   34  C   UNL     1      32.164  48.428  41.076  1.00  0.00     0.028 A 
HETATM   35  C   UNL     1      35.171  50.488  42.011  1.00  0.00     0.103 A 
HETATM   36  C   UNL     1      34.599  51.396  42.909  1.00  0.00     0.104 A 
HETATM   37  O   UNL     1      36.496  50.515  41.661  1.00  0.00    -0.346 OA
HETATM   38  O   UNL     1      35.317  52.374  43.548  1.00  0.00    -0.346 OA
HETATM   39  C   UNL     1      36.730  52.160  43.428  1.00  0.00     0.202 C 
HETATM   40  C   UNL     1      37.096  51.771  42.004  1.00  0.00     0.202 C 
ENDBRANCH  24  25
ENDBRANCH   1  24
TORSDOF 12
ENDMDL
MODEL 9
REMARK VINA RESULT:      -7.8      2.657      5.701
REMARK  12 active torsions:
REMARK  status: ('A' for Active; 'I' for Inactive)
REMARK    1  A    between atoms: C_2  and  N_3 
REMARK    2  A    between atoms: N_3  and  C_5 
REMARK    3  A    between atoms: N_3  and  C_37 
REMARK    4  A    between atoms: C_5  and  C_6 
REMARK    5  A    between atoms: C_6  and  N_7 
REMARK    6  A    between atoms: N_7  and  C_8 
REMARK    7  A    between atoms: N_7  and  C_21 
REMARK    8  A    between atoms: C_8  and  N_9 
REMARK    9  A    between atoms: N_9  and  C_10 
REMARK   10  A    between atoms: C_11  and  C_12 
REMARK   11  A    between atoms: C_12  and  O_13 
REMARK   12  A    between atoms: C_21  and  C_22 
ROOT
HETATM    1  N   UNL     1      25.159  46.681  51.231  1.00  0.00    -0.352 N 
ENDROOT
BRANCH   1   2
HETATM    2  C   UNL     1      26.088  47.039  52.319  1.00  0.00     0.153 C 
BRANCH   2   3
HETATM    3  C   UNL     1      25.834  46.263  53.629  1.00  0.00     0.254 C 
BRANCH   3   4
HETATM    4  N   UNL     1      27.121  45.648  54.194  1.00  0.00    -0.070 N 
HETATM    5  H   UNL     1      27.795  45.569  53.422  1.00  0.00     0.279 HD
BRANCH   4   6
HETATM    6  C   UNL     1      26.878  44.248  54.739  1.00  0.00     0.230 C 
HETATM    7  C   UNL     1      25.392  43.937  54.808  1.00  0.00     0.034 C 
ENDBRANCH   4   6
BRANCH   4   8
HETATM    8  C   UNL     1      27.744  46.555  55.254  1.00  0.00     0.230 C 
HETATM    9  C   UNL     1      29.056  45.978  55.757  1.00  0.00     0.034 C 
ENDBRANCH   4   8
ENDBRANCH   3   4
ENDBRANCH   2   3
ENDBRANCH   1   2
BRANCH   1  10
HETATM   10  C   UNL     1      25.098  47.431  50.023  1.00  0.00     0.174 C 
HETATM   11  S   UNL     1      26.400  48.286  49.379  1.00  0.00    -0.041 SA
BRANCH  10  12
HETATM   12  N   UNL     1      23.821  47.486  49.500  1.00  0.00    -0.332 N 
HETATM   13  H   UNL     1      23.351  46.581  49.428  1.00  0.00     0.168 HD
BRANCH  12  14
HETATM   14  C   UNL     1      23.024  48.579  49.072  1.00  0.00     0.050 A 
HETATM   15  C   UNL     1      21.963  48.352  48.158  1.00  0.00     0.066 A 
HETATM   16  C   UNL     1      21.196  49.438  47.694  1.00  0.00     0.020 A 
HETATM   17  C   UNL     1      21.483  50.736  48.109  1.00  0.00     0.001 A 
HETATM   18  C   UNL     1      22.545  50.965  48.976  1.00  0.00     0.002 A 
HETATM   19  C   UNL     1      23.315  49.897  49.444  1.00  0.00     0.030 A 
BRANCH  15  20
HETATM   20  C   UNL     1      21.694  46.973  47.640  1.00  0.00     0.295 C 
HETATM   21  O   UNL     1      21.882  46.644  46.475  1.00  0.00    -0.259 OA
BRANCH  20  22
HETATM   22  O   UNL     1      21.195  46.169  48.611  1.00  0.00    -0.322 OA
HETATM   23  C   UNL     1      19.968  45.521  48.274  1.00  0.00     0.213 C 
ENDBRANCH  20  22
ENDBRANCH  15  20
ENDBRANCH  12  14
ENDBRANCH  10  12
ENDBRANCH   1  10
BRANCH   1  24
HETATM   24  C   UNL     1      24.523  45.344  51.311  1.00  0.00     0.169 C 
BRANCH  24  25
HETATM   25  C   UNL     1      25.271  44.266  50.575  1.00  0.00     0.029 A 
HETATM   26  C   UNL     1      24.958  44.030  49.131  1.00  0.00     0.253 A 
HETATM   27  O   UNL     1      24.149  44.714  48.515  1.00  0.00    -0.268 OA
HETATM   28  N   UNL     1      25.641  43.024  48.501  1.00  0.00    -0.322 N 
HETATM   29  C   UNL     1      26.545  42.172  49.142  1.00  0.00     0.048 A 
HETATM   30  H   UNL     1      25.409  42.877  47.526  1.00  0.00     0.169 HD
HETATM   31  C   UNL     1      26.811  42.365  50.503  1.00  0.00    -0.006 A 
HETATM   32  C   UNL     1      27.153  41.138  48.434  1.00  0.00     0.070 A 
HETATM   33  C   UNL     1      27.672  41.491  51.169  1.00  0.00     0.053 A 
HETATM   34  C   UNL     1      26.150  43.465  51.204  1.00  0.00     0.028 A 
HETATM   35  C   UNL     1      28.258  40.436  50.472  1.00  0.00     0.103 A 
HETATM   36  C   UNL     1      28.022  40.277  49.102  1.00  0.00     0.104 A 
HETATM   37  O   UNL     1      29.056  39.590  51.198  1.00  0.00    -0.346 OA
HETATM   38  O   UNL     1      28.595  39.281  48.351  1.00  0.00    -0.346 OA
HETATM   39  C   UNL     1      29.669  38.640  49.052  1.00  0.00     0.202 C 
HETATM   40  C   UNL     1      29.280  38.360  50.495  1.00  0.00     0.202 C 
ENDBRANCH  24  25
ENDBRANCH   1  24
TORSDOF 12
ENDMDL
MODEL 10
REMARK VINA RESULT:      -7.7      3.212      6.125
REMARK  12 active torsions:
REMARK  status: ('A' for Active; 'I' for Inactive)
REMARK    1  A    between atoms: C_2  and  N_3 
REMARK    2  A    between atoms: N_3  and  C_5 
REMARK    3  A    between atoms: N_3  and  C_37 
REMARK    4  A    between atoms: C_5  and  C_6 
REMARK    5  A    between atoms: C_6  and  N_7 
REMARK    6  A    between atoms: N_7  and  C_8 
REMARK    7  A    between atoms: N_7  and  C_21 
REMARK    8  A    between atoms: C_8  and  N_9 
REMARK    9  A    between atoms: N_9  and  C_10 
REMARK   10  A    between atoms: C_11  and  C_12 
REMARK   11  A    between atoms: C_12  and  O_13 
REMARK   12  A    between atoms: C_21  and  C_22 
ROOT
HETATM    1  N   UNL     1      23.850  45.245  50.059  1.00  0.00    -0.352 N 
ENDROOT
BRANCH   1   2
HETATM    2  C   UNL     1      25.153  45.553  50.678  1.00  0.00     0.153 C 
BRANCH   2   3
HETATM    3  C   UNL     1      25.124  45.534  52.221  1.00  0.00     0.254 C 
BRANCH   3   4
HETATM    4  N   UNL     1      26.510  45.264  52.821  1.00  0.00    -0.070 N 
HETATM    5  H   UNL     1      27.199  45.335  52.061  1.00  0.00     0.279 HD
BRANCH   4   6
HETATM    6  C   UNL     1      26.604  43.859  53.398  1.00  0.00     0.230 C 
HETATM    7  C   UNL     1      26.023  43.803  54.801  1.00  0.00     0.034 C 
ENDBRANCH   4   6
BRANCH   4   8
HETATM    8  C   UNL     1      26.871  46.318  53.866  1.00  0.00     0.230 C 
HETATM    9  C   UNL     1      25.846  47.440  53.879  1.00  0.00     0.034 C 
ENDBRANCH   4   8
ENDBRANCH   3   4
ENDBRANCH   2   3
ENDBRANCH   1   2
BRANCH   1  10
HETATM   10  C   UNL     1      23.318  46.038  49.004  1.00  0.00     0.174 C 
HETATM   11  S   UNL     1      22.397  45.421  47.735  1.00  0.00    -0.041 SA
BRANCH  10  12
HETATM   12  N   UNL     1      23.743  47.351  49.066  1.00  0.00    -0.332 N 
HETATM   13  H   UNL     1      24.741  47.467  49.251  1.00  0.00     0.168 HD
BRANCH  12  14
HETATM   14  C   UNL     1      23.049  48.576  48.886  1.00  0.00     0.050 A 
HETATM   15  C   UNL     1      23.775  49.743  48.534  1.00  0.00     0.066 A 
HETATM   16  C   UNL     1      23.100  50.970  48.396  1.00  0.00     0.020 A 
HETATM   17  C   UNL     1      21.728  51.054  48.624  1.00  0.00     0.001 A 
HETATM   18  C   UNL     1      21.022  49.919  49.005  1.00  0.00     0.002 A 
HETATM   19  C   UNL     1      21.678  48.694  49.145  1.00  0.00     0.030 A 
BRANCH  15  20
HETATM   20  C   UNL     1      25.262  49.686  48.365  1.00  0.00     0.295 C 
HETATM   21  O   UNL     1      25.840  50.077  47.358  1.00  0.00    -0.259 OA
BRANCH  20  22
HETATM   22  O   UNL     1      25.860  49.125  49.444  1.00  0.00    -0.322 OA
HETATM   23  C   UNL     1      27.220  48.739  49.235  1.00  0.00     0.213 C 
ENDBRANCH  20  22
ENDBRANCH  15  20
ENDBRANCH  12  14
ENDBRANCH  10  12
ENDBRANCH   1  10
BRANCH   1  24
HETATM   24  C   UNL     1      23.271  43.913  50.356  1.00  0.00     0.169 C 
BRANCH  24  25
HETATM   25  C   UNL     1      24.105  42.760  49.868  1.00  0.00     0.029 A 
HETATM   26  C   UNL     1      23.542  41.860  48.813  1.00  0.00     0.253 A 
HETATM   27  O   UNL     1      22.446  42.056  48.300  1.00  0.00    -0.268 OA
HETATM   28  N   UNL     1      24.320  40.807  48.412  1.00  0.00    -0.322 N 
HETATM   29  C   UNL     1      25.559  40.490  48.977  1.00  0.00     0.048 A 
HETATM   30  H   UNL     1      23.917  40.207  47.702  1.00  0.00     0.169 HD
HETATM   31  C   UNL     1      26.071  41.308  49.992  1.00  0.00    -0.006 A 
HETATM   32  C   UNL     1      26.257  39.365  48.544  1.00  0.00     0.070 A 
HETATM   33  C   UNL     1      27.282  40.976  50.601  1.00  0.00     0.053 A 
HETATM   34  C   UNL     1      25.303  42.479  50.412  1.00  0.00     0.028 A 
HETATM   35  C   UNL     1      27.969  39.833  50.193  1.00  0.00     0.103 A 
HETATM   36  C   UNL     1      27.473  39.046  49.148  1.00  0.00     0.104 A 
HETATM   37  O   UNL     1      29.128  39.542  50.865  1.00  0.00    -0.346 OA
HETATM   38  O   UNL     1      28.117  37.931  48.676  1.00  0.00    -0.346 OA
HETATM   39  C   UNL     1      29.466  37.854  49.157  1.00  0.00     0.202 C 
HETATM   40  C   UNL     1      29.529  38.184  50.639  1.00  0.00     0.202 C 
ENDBRANCH  24  25
ENDBRANCH   1  24
TORSDOF 12
ENDMDL
