MODEL 1
REMARK VINA RESULT:      -8.1      0.000      0.000
REMARK  6 active torsions:
REMARK  status: ('A' for Active; 'I' for Inactive)
REMARK    1  A    between atoms: C_2  and  O_3 
REMARK    2  A    between atoms: O_3  and  C_4 
REMARK    3  A    between atoms: C_11  and  C_12 
REMARK    4  A    between atoms: C_12  and  N_13 
REMARK    5  A    between atoms: N_13  and  C_14 
REMARK    6  A    between atoms: C_17  and  O_18 
ROOT
HETATM    1  C   UNL     1      23.460  48.385  48.437  1.00  0.00     0.069 A 
HETATM    2  C   UNL     1      24.374  48.313  49.491  1.00  0.00     0.050 A 
HETATM    3  C   UNL     1      24.490  47.135  50.238  1.00  0.00    -0.006 A 
HETATM    4  C   UNL     1      23.690  46.031  49.924  1.00  0.00     0.045 A 
HETATM    5  N   UNL     1      23.817  44.857  50.675  1.00  0.00    -0.322 N 
HETATM    6  C   UNL     1      24.696  44.712  51.717  1.00  0.00     0.253 A 
HETATM    7  O   UNL     1      24.779  43.654  52.334  1.00  0.00    -0.268 OA
HETATM    8  C   UNL     1      25.542  45.891  52.063  1.00  0.00     0.024 A 
HETATM    9  C   UNL     1      25.428  47.030  51.355  1.00  0.00     0.027 A 
HETATM   10  C   UNL     1      22.777  46.093  48.875  1.00  0.00     0.033 A 
HETATM   11  C   UNL     1      22.666  47.274  48.137  1.00  0.00     0.039 A 
HETATM   12  H   UNL     1      23.254  44.047  50.455  1.00  0.00     0.169 HD
ENDROOT
BRANCH   8  13
HETATM   13  C   UNL     1      26.457  45.750  53.242  1.00  0.00     0.136 C 
BRANCH  13  14
HETATM   14  N   UNL     1      27.391  44.660  52.977  1.00  0.00    -0.289 NA
HETATM   15  H   UNL     1      26.884  43.782  52.857  1.00  0.00     0.128 HD
BRANCH  14  16
HETATM   16  C   UNL     1      28.488  44.475  53.830  1.00  0.00     0.008 A 
HETATM   17  C   UNL     1      28.675  45.379  54.884  1.00  0.00     0.026 A 
HETATM   18  C   UNL     1      29.700  45.204  55.820  1.00  0.00     0.038 A 
HETATM   19  C   UNL     1      30.544  44.098  55.749  1.00  0.00     0.068 A 
HETATM   20  C   UNL     1      30.348  43.168  54.733  1.00  0.00     0.038 A 
HETATM   21  C   UNL     1      29.321  43.352  53.793  1.00  0.00     0.026 A 
BRANCH  19  22
HETATM   22  O   UNL     1      31.499  44.037  56.726  1.00  0.00    -0.356 OA
HETATM   23  C   UNL     1      31.148  44.565  57.998  1.00  0.00     0.210 C 
ENDBRANCH  19  22
ENDBRANCH  14  16
ENDBRANCH  13  14
ENDBRANCH   8  13
BRANCH   1  24
HETATM   24  O   UNL     1      23.245  49.472  47.633  1.00  0.00    -0.351 OA
BRANCH  24  25
HETATM   25  C   UNL     1      23.225  50.753  48.260  1.00  0.00     0.171 C 
HETATM   26  C   UNL     1      21.781  51.101  48.573  1.00  0.00     0.034 C 
ENDBRANCH  24  25
ENDBRANCH   1  24
TORSDOF 6
ENDMDL
MODEL 2
REMARK VINA RESULT:      -8.0      2.188      8.377
REMARK  6 active torsions:
REMARK  status: ('A' for Active; 'I' for Inactive)
REMARK    1  A    between atoms: C_2  and  O_3 
REMARK    2  A    between atoms: O_3  and  C_4 
REMARK    3  A    between atoms: C_11  and  C_12 
REMARK    4  A    between atoms: C_12  and  N_13 
REMARK    5  A    between atoms: N_13  and  C_14 
REMARK    6  A    between atoms: C_17  and  O_18 
ROOT
HETATM    1  C   UNL     1      29.203  44.701  55.285  1.00  0.00     0.069 A 
HETATM    2  C   UNL     1      28.118  44.646  54.407  1.00  0.00     0.050 A 
HETATM    3  C   UNL     1      28.117  43.726  53.351  1.00  0.00    -0.006 A 
HETATM    4  C   UNL     1      29.204  42.862  53.182  1.00  0.00     0.045 A 
HETATM    5  N   UNL     1      29.192  41.945  52.125  1.00  0.00    -0.322 N 
HETATM    6  C   UNL     1      28.159  41.829  51.231  1.00  0.00     0.253 A 
HETATM    7  O   UNL     1      28.191  40.996  50.330  1.00  0.00    -0.268 OA
HETATM    8  C   UNL     1      27.003  42.756  51.402  1.00  0.00     0.024 A 
HETATM    9  C   UNL     1      27.003  43.650  52.408  1.00  0.00     0.027 A 
HETATM   10  C   UNL     1      30.290  42.910  54.052  1.00  0.00     0.033 A 
HETATM   11  C   UNL     1      30.283  43.833  55.100  1.00  0.00     0.039 A 
HETATM   12  H   UNL     1      29.964  41.307  51.994  1.00  0.00     0.169 HD
ENDROOT
BRANCH   8  13
HETATM   13  C   UNL     1      25.905  42.670  50.384  1.00  0.00     0.136 C 
BRANCH  13  14
HETATM   14  N   UNL     1      26.211  43.590  49.292  1.00  0.00    -0.289 NA
HETATM   15  H   UNL     1      27.205  43.546  49.062  1.00  0.00     0.128 HD
BRANCH  14  16
HETATM   16  C   UNL     1      25.792  44.924  49.382  1.00  0.00     0.008 A 
HETATM   17  C   UNL     1      24.419  45.197  49.339  1.00  0.00     0.026 A 
HETATM   18  C   UNL     1      23.929  46.497  49.506  1.00  0.00     0.038 A 
HETATM   19  C   UNL     1      24.799  47.556  49.759  1.00  0.00     0.068 A 
HETATM   20  C   UNL     1      26.164  47.297  49.845  1.00  0.00     0.038 A 
HETATM   21  C   UNL     1      26.649  45.991  49.672  1.00  0.00     0.026 A 
BRANCH  19  22
HETATM   22  O   UNL     1      24.197  48.774  49.912  1.00  0.00    -0.356 OA
HETATM   23  C   UNL     1      23.716  49.402  48.731  1.00  0.00     0.210 C 
ENDBRANCH  19  22
ENDBRANCH  14  16
ENDBRANCH  13  14
ENDBRANCH   8  13
BRANCH   1  24
HETATM   24  O   UNL     1      29.331  45.551  56.350  1.00  0.00    -0.351 OA
BRANCH  24  25
HETATM   25  C   UNL     1      30.566  45.521  57.064  1.00  0.00     0.171 C 
HETATM   26  C   UNL     1      30.252  45.526  58.548  1.00  0.00     0.034 C 
ENDBRANCH  24  25
ENDBRANCH   1  24
TORSDOF 6
ENDMDL
MODEL 3
REMARK VINA RESULT:      -7.8      2.305      3.618
REMARK  6 active torsions:
REMARK  status: ('A' for Active; 'I' for Inactive)
REMARK    1  A    between atoms: C_2  and  O_3 
REMARK    2  A    between atoms: O_3  and  C_4 
REMARK    3  A    between atoms: C_11  and  C_12 
REMARK    4  A    between atoms: C_12  and  N_13 
REMARK    5  A    between atoms: N_13  and  C_14 
REMARK    6  A    between atoms: C_17  and  O_18 
ROOT
HETATM    1  C   UNL     1      21.568  49.810  48.513  1.00  0.00     0.069 A 
HETATM    2  C   UNL     1      22.176  48.757  49.202  1.00  0.00     0.050 A 
HETATM    3  C   UNL     1      23.571  48.654  49.234  1.00  0.00    -0.006 A 
HETATM    4  C   UNL     1      24.354  49.610  48.578  1.00  0.00     0.045 A 
HETATM    5  N   UNL     1      25.748  49.499  48.620  1.00  0.00    -0.322 N 
HETATM    6  C   UNL     1      26.412  48.499  49.281  1.00  0.00     0.253 A 
HETATM    7  O   UNL     1      27.639  48.456  49.301  1.00  0.00    -0.268 OA
HETATM    8  C   UNL     1      25.581  47.472  49.973  1.00  0.00     0.024 A 
HETATM    9  C   UNL     1      24.238  47.559  49.937  1.00  0.00     0.027 A 
HETATM   10  C   UNL     1      23.758  50.662  47.890  1.00  0.00     0.033 A 
HETATM   11  C   UNL     1      22.364  50.755  47.859  1.00  0.00     0.039 A 
HETATM   12  H   UNL     1      26.329  50.186  48.159  1.00  0.00     0.169 HD
ENDROOT
BRANCH   8  13
HETATM   13  C   UNL     1      26.309  46.344  50.642  1.00  0.00     0.136 C 
BRANCH  13  14
HETATM   14  N   UNL     1      25.633  46.038  51.899  1.00  0.00    -0.289 NA
HETATM   15  H   UNL     1      24.742  46.533  51.952  1.00  0.00     0.128 HD
BRANCH  14  16
HETATM   16  C   UNL     1      26.336  46.173  53.105  1.00  0.00     0.008 A 
HETATM   17  C   UNL     1      27.174  45.126  53.511  1.00  0.00     0.026 A 
HETATM   18  C   UNL     1      27.965  45.232  54.660  1.00  0.00     0.038 A 
HETATM   19  C   UNL     1      27.968  46.402  55.415  1.00  0.00     0.068 A 
HETATM   20  C   UNL     1      27.171  47.467  55.004  1.00  0.00     0.038 A 
HETATM   21  C   UNL     1      26.376  47.354  53.853  1.00  0.00     0.026 A 
BRANCH  19  22
HETATM   22  O   UNL     1      28.789  46.383  56.508  1.00  0.00    -0.356 OA
HETATM   23  C   UNL     1      30.045  45.735  56.353  1.00  0.00     0.210 C 
ENDBRANCH  19  22
ENDBRANCH  14  16
ENDBRANCH  13  14
ENDBRANCH   8  13
BRANCH   1  24
HETATM   24  O   UNL     1      20.221  50.025  48.401  1.00  0.00    -0.351 OA
BRANCH  24  25
HETATM   25  C   UNL     1      19.611  50.869  49.375  1.00  0.00     0.171 C 
HETATM   26  C   UNL     1      19.236  52.174  48.697  1.00  0.00     0.034 C 
ENDBRANCH  24  25
ENDBRANCH   1  24
TORSDOF 6
ENDMDL
MODEL 4
REMARK VINA RESULT:      -7.7      1.529      1.992
REMARK  6 active torsions:
REMARK  status: ('A' for Active; 'I' for Inactive)
REMARK    1  A    between atoms: C_2  and  O_3 
REMARK    2  A    between atoms: O_3  and  C_4 
REMARK    3  A    between atoms: C_11  and  C_12 
REMARK    4  A    between atoms: C_12  and  N_13 
REMARK    5  A    between atoms: N_13  and  C_14 
REMARK    6  A    between atoms: C_17  and  O_18 
ROOT
HETATM    1  C   UNL     1      24.459  47.875  49.683  1.00  0.00     0.069 A 
HETATM    2  C   UNL     1      25.560  47.266  50.290  1.00  0.00     0.050 A 
HETATM    3  C   UNL     1      25.618  45.871  50.396  1.00  0.00    -0.006 A 
HETATM    4  C   UNL     1      24.573  45.091  49.889  1.00  0.00     0.045 A 
HETATM    5  N   UNL     1      24.644  43.698  49.998  1.00  0.00    -0.322 N 
HETATM    6  C   UNL     1      25.695  43.032  50.573  1.00  0.00     0.253 A 
HETATM    7  O   UNL     1      25.715  41.806  50.629  1.00  0.00    -0.268 OA
HETATM    8  C   UNL     1      26.806  43.861  51.125  1.00  0.00     0.024 A 
HETATM    9  C   UNL     1      26.750  45.203  51.036  1.00  0.00     0.027 A 
HETATM   10  C   UNL     1      23.473  45.689  49.282  1.00  0.00     0.033 A 
HETATM   11  C   UNL     1      23.421  47.082  49.184  1.00  0.00     0.039 A 
HETATM   12  H   UNL     1      23.902  43.119  49.628  1.00  0.00     0.169 HD
ENDROOT
BRANCH   8  13
HETATM   13  C   UNL     1      27.923  43.133  51.811  1.00  0.00     0.136 C 
BRANCH  13  14
HETATM   14  N   UNL     1      27.560  42.939  53.211  1.00  0.00    -0.289 NA
HETATM   15  H   UNL     1      26.548  43.016  53.328  1.00  0.00     0.128 HD
BRANCH  14  16
HETATM   16  C   UNL     1      28.220  43.683  54.200  1.00  0.00     0.008 A 
HETATM   17  C   UNL     1      29.515  43.299  54.570  1.00  0.00     0.026 A 
HETATM   18  C   UNL     1      30.261  44.047  55.489  1.00  0.00     0.038 A 
HETATM   19  C   UNL     1      29.744  45.220  56.035  1.00  0.00     0.068 A 
HETATM   20  C   UNL     1      28.474  45.637  55.648  1.00  0.00     0.038 A 
HETATM   21  C   UNL     1      27.729  44.881  54.729  1.00  0.00     0.026 A 
BRANCH  19  22
HETATM   22  O   UNL     1      30.572  45.862  56.912  1.00  0.00    -0.356 OA
HETATM   23  C   UNL     1      30.543  45.417  58.262  1.00  0.00     0.210 C 
ENDBRANCH  19  22
ENDBRANCH  14  16
ENDBRANCH  13  14
ENDBRANCH   8  13
BRANCH   1  24
HETATM   24  O   UNL     1      24.276  49.221  49.518  1.00  0.00    -0.351 OA
BRANCH  24  25
HETATM   25  C   UNL     1      24.481  49.753  48.210  1.00  0.00     0.171 C 
HETATM   26  C   UNL     1      23.241  50.536  47.821  1.00  0.00     0.034 C 
ENDBRANCH  24  25
ENDBRANCH   1  24
TORSDOF 6
ENDMDL
MODEL 5
REMARK VINA RESULT:      -7.6      2.096      9.296
REMARK  6 active torsions:
REMARK  status: ('A' for Active; 'I' for Inactive)
REMARK    1  A    between atoms: C_2  and  O_3 
REMARK    2  A    between atoms: O_3  and  C_4 
REMARK    3  A    between atoms: C_11  and  C_12 
REMARK    4  A    between atoms: C_12  and  N_13 
REMARK    5  A    between atoms: N_13  and  C_14 
REMARK    6  A    between atoms: C_17  and  O_18 
ROOT
HETATM    1  C   UNL     1      27.447  46.262  54.783  1.00  0.00     0.069 A 
HETATM    2  C   UNL     1      26.879  46.989  53.733  1.00  0.00     0.050 A 
HETATM    3  C   UNL     1      26.056  46.347  52.801  1.00  0.00    -0.006 A 
HETATM    4  C   UNL     1      25.802  44.977  52.925  1.00  0.00     0.045 A 
HETATM    5  N   UNL     1      24.975  44.346  51.989  1.00  0.00    -0.322 N 
HETATM    6  C   UNL     1      24.379  44.997  50.941  1.00  0.00     0.253 A 
HETATM    7  O   UNL     1      23.648  44.399  50.156  1.00  0.00    -0.268 OA
HETATM    8  C   UNL     1      24.656  46.455  50.798  1.00  0.00     0.024 A 
HETATM    9  C   UNL     1      25.456  47.076  51.685  1.00  0.00     0.027 A 
HETATM   10  C   UNL     1      26.363  44.244  53.967  1.00  0.00     0.033 A 
HETATM   11  C   UNL     1      27.186  44.893  54.891  1.00  0.00     0.039 A 
HETATM   12  H   UNL     1      24.773  43.359  52.070  1.00  0.00     0.169 HD
ENDROOT
BRANCH   8  13
HETATM   13  C   UNL     1      24.054  47.151  49.614  1.00  0.00     0.136 C 
BRANCH  13  14
HETATM   14  N   UNL     1      23.771  48.534  49.983  1.00  0.00    -0.289 NA
HETATM   15  H   UNL     1      23.794  48.641  50.998  1.00  0.00     0.128 HD
BRANCH  14  16
HETATM   16  C   UNL     1      22.637  49.167  49.454  1.00  0.00     0.008 A 
HETATM   17  C   UNL     1      22.699  50.542  49.195  1.00  0.00     0.026 A 
HETATM   18  C   UNL     1      21.633  51.218  48.592  1.00  0.00     0.038 A 
HETATM   19  C   UNL     1      20.489  50.529  48.196  1.00  0.00     0.068 A 
HETATM   20  C   UNL     1      20.426  49.155  48.409  1.00  0.00     0.038 A 
HETATM   21  C   UNL     1      21.497  48.483  49.020  1.00  0.00     0.026 A 
BRANCH  19  22
HETATM   22  O   UNL     1      19.524  51.300  47.611  1.00  0.00    -0.356 OA
HETATM   23  C   UNL     1      18.989  52.359  48.394  1.00  0.00     0.210 C 
ENDBRANCH  19  22
ENDBRANCH  14  16
ENDBRANCH  13  14
ENDBRANCH   8  13
BRANCH   1  24
HETATM   24  O   UNL     1      28.268  46.764  55.755  1.00  0.00    -0.351 OA
BRANCH  24  25
HETATM   25  C   UNL     1      29.280  45.897  56.266  1.00  0.00     0.171 C 
HETATM   26  C   UNL     1      29.318  46.057  57.775  1.00  0.00     0.034 C 
ENDBRANCH  24  25
ENDBRANCH   1  24
TORSDOF 6
ENDMDL
MODEL 6
REMARK VINA RESULT:      -7.5      3.646      7.896
REMARK  6 active torsions:
REMARK  status: ('A' for Active; 'I' for Inactive)
REMARK    1  A    between atoms: C_2  and  O_3 
REMARK    2  A    between atoms: O_3  and  C_4 
REMARK    3  A    between atoms: C_11  and  C_12 
REMARK    4  A    between atoms: C_12  and  N_13 
REMARK    5  A    between atoms: N_13  and  C_14 
REMARK    6  A    between atoms: C_17  and  O_18 
ROOT
HETATM    1  C   UNL     1      29.160  45.303  55.526  1.00  0.00     0.069 A 
HETATM    2  C   UNL     1      28.694  44.440  54.531  1.00  0.00     0.050 A 
HETATM    3  C   UNL     1      27.644  44.837  53.694  1.00  0.00    -0.006 A 
HETATM    4  C   UNL     1      27.066  46.101  53.856  1.00  0.00     0.045 A 
HETATM    5  N   UNL     1      26.019  46.489  53.013  1.00  0.00    -0.322 N 
HETATM    6  C   UNL     1      25.517  45.699  52.012  1.00  0.00     0.253 A 
HETATM    7  O   UNL     1      24.607  46.093  51.288  1.00  0.00    -0.268 OA
HETATM    8  C   UNL     1      26.123  44.346  51.843  1.00  0.00     0.024 A 
HETATM    9  C   UNL     1      27.125  43.954  52.651  1.00  0.00     0.027 A 
HETATM   10  C   UNL     1      27.524  46.968  54.845  1.00  0.00     0.033 A 
HETATM   11  C   UNL     1      28.570  46.562  55.677  1.00  0.00     0.039 A 
HETATM   12  H   UNL     1      25.597  47.402  53.109  1.00  0.00     0.169 HD
ENDROOT
BRANCH   8  13
HETATM   13  C   UNL     1      25.528  43.460  50.789  1.00  0.00     0.136 C 
BRANCH  13  14
HETATM   14  N   UNL     1      25.588  42.079  51.257  1.00  0.00    -0.289 NA
HETATM   15  H   UNL     1      25.856  42.051  52.242  1.00  0.00     0.128 HD
BRANCH  14  16
HETATM   16  C   UNL     1      26.327  41.139  50.526  1.00  0.00     0.008 A 
HETATM   17  C   UNL     1      27.577  40.743  51.019  1.00  0.00     0.026 A 
HETATM   18  C   UNL     1      28.329  39.749  50.383  1.00  0.00     0.038 A 
HETATM   19  C   UNL     1      27.833  39.096  49.256  1.00  0.00     0.068 A 
HETATM   20  C   UNL     1      26.576  39.449  48.776  1.00  0.00     0.038 A 
HETATM   21  C   UNL     1      25.828  40.450  49.415  1.00  0.00     0.026 A 
BRANCH  19  22
HETATM   22  O   UNL     1      28.659  38.140  48.733  1.00  0.00    -0.356 OA
HETATM   23  C   UNL     1      30.017  38.168  49.152  1.00  0.00     0.210 C 
ENDBRANCH  19  22
ENDBRANCH  14  16
ENDBRANCH  13  14
ENDBRANCH   8  13
BRANCH   1  24
HETATM   24  O   UNL     1      30.172  45.039  56.408  1.00  0.00    -0.351 OA
BRANCH  24  25
HETATM   25  C   UNL     1      31.118  44.039  56.036  1.00  0.00     0.171 C 
HETATM   26  C   UNL     1      31.699  43.445  57.306  1.00  0.00     0.034 C 
ENDBRANCH  24  25
ENDBRANCH   1  24
TORSDOF 6
ENDMDL
MODEL 7
REMARK VINA RESULT:      -7.4      4.204      7.027
REMARK  6 active torsions:
REMARK  status: ('A' for Active; 'I' for Inactive)
REMARK    1  A    between atoms: C_2  and  O_3 
REMARK    2  A    between atoms: O_3  and  C_4 
REMARK    3  A    between atoms: C_11  and  C_12 
REMARK    4  A    between atoms: C_12  and  N_13 
REMARK    5  A    between atoms: N_13  and  C_14 
REMARK    6  A    between atoms: C_17  and  O_18 
ROOT
HETATM    1  C   UNL     1      28.262  38.951  49.645  1.00  0.00     0.069 A 
HETATM    2  C   UNL     1      28.317  39.941  50.629  1.00  0.00     0.050 A 
HETATM    3  C   UNL     1      27.270  40.861  50.756  1.00  0.00    -0.006 A 
HETATM    4  C   UNL     1      26.168  40.784  49.897  1.00  0.00     0.045 A 
HETATM    5  N   UNL     1      25.126  41.707  50.035  1.00  0.00    -0.322 N 
HETATM    6  C   UNL     1      25.109  42.699  50.981  1.00  0.00     0.253 A 
HETATM    7  O   UNL     1      24.161  43.474  51.071  1.00  0.00    -0.268 OA
HETATM    8  C   UNL     1      26.286  42.791  51.892  1.00  0.00     0.024 A 
HETATM    9  C   UNL     1      27.301  41.916  51.768  1.00  0.00     0.027 A 
HETATM   10  C   UNL     1      26.105  39.801  48.914  1.00  0.00     0.033 A 
HETATM   11  C   UNL     1      27.155  38.889  48.792  1.00  0.00     0.039 A 
HETATM   12  H   UNL     1      24.318  41.660  49.429  1.00  0.00     0.169 HD
ENDROOT
BRANCH   8  13
HETATM   13  C   UNL     1      26.293  43.916  52.884  1.00  0.00     0.136 C 
BRANCH  13  14
HETATM   14  N   UNL     1      27.594  44.576  52.827  1.00  0.00    -0.289 NA
HETATM   15  H   UNL     1      28.128  44.235  52.027  1.00  0.00     0.128 HD
BRANCH  14  16
HETATM   16  C   UNL     1      28.401  44.601  53.974  1.00  0.00     0.008 A 
HETATM   17  C   UNL     1      29.381  43.611  54.122  1.00  0.00     0.026 A 
HETATM   18  C   UNL     1      30.273  43.627  55.200  1.00  0.00     0.038 A 
HETATM   19  C   UNL     1      30.234  44.655  56.139  1.00  0.00     0.068 A 
HETATM   20  C   UNL     1      29.292  45.668  55.985  1.00  0.00     0.038 A 
HETATM   21  C   UNL     1      28.396  45.645  54.905  1.00  0.00     0.026 A 
BRANCH  19  22
HETATM   22  O   UNL     1      31.162  44.560  57.138  1.00  0.00    -0.356 OA
HETATM   23  C   UNL     1      31.937  43.369  57.181  1.00  0.00     0.210 C 
ENDBRANCH  19  22
ENDBRANCH  14  16
ENDBRANCH  13  14
ENDBRANCH   8  13
BRANCH   1  24
HETATM   24  O   UNL     1      29.214  37.996  49.412  1.00  0.00    -0.351 OA
BRANCH  24  25
HETATM   25  C   UNL     1      30.218  37.818  50.410  1.00  0.00     0.171 C 
HETATM   26  C   UNL     1      29.808  36.649  51.286  1.00  0.00     0.034 C 
ENDBRANCH  24  25
ENDBRANCH   1  24
TORSDOF 6
ENDMDL
MODEL 8
REMARK VINA RESULT:      -7.3      4.077      7.961
REMARK  6 active torsions:
REMARK  status: ('A' for Active; 'I' for Inactive)
REMARK    1  A    between atoms: C_2  and  O_3 
REMARK    2  A    between atoms: O_3  and  C_4 
REMARK    3  A    between atoms: C_11  and  C_12 
REMARK    4  A    between atoms: C_12  and  N_13 
REMARK    5  A    between atoms: N_13  and  C_14 
REMARK    6  A    between atoms: C_17  and  O_18 
ROOT
HETATM    1  C   UNL     1      29.364  43.742  54.216  1.00  0.00     0.069 A 
HETATM    2  C   UNL     1      29.080  43.486  52.872  1.00  0.00     0.050 A 
HETATM    3  C   UNL     1      27.757  43.524  52.417  1.00  0.00    -0.006 A 
HETATM    4  C   UNL     1      26.722  43.822  53.310  1.00  0.00     0.045 A 
HETATM    5  N   UNL     1      25.404  43.860  52.843  1.00  0.00    -0.322 N 
HETATM    6  C   UNL     1      25.052  43.627  51.539  1.00  0.00     0.253 A 
HETATM    7  O   UNL     1      23.880  43.689  51.177  1.00  0.00    -0.268 OA
HETATM    8  C   UNL     1      26.151  43.298  50.585  1.00  0.00     0.024 A 
HETATM    9  C   UNL     1      27.424  43.249  51.020  1.00  0.00     0.027 A 
HETATM   10  C   UNL     1      26.996  44.079  54.650  1.00  0.00     0.033 A 
HETATM   11  C   UNL     1      28.319  44.035  55.097  1.00  0.00     0.039 A 
HETATM   12  H   UNL     1      24.645  44.083  53.473  1.00  0.00     0.169 HD
ENDROOT
BRANCH   8  13
HETATM   13  C   UNL     1      25.756  42.981  49.174  1.00  0.00     0.136 C 
BRANCH  13  14
HETATM   14  N   UNL     1      26.890  42.352  48.505  1.00  0.00    -0.289 NA
HETATM   15  H   UNL     1      26.815  42.471  47.494  1.00  0.00     0.128 HD
BRANCH  14  16
HETATM   16  C   UNL     1      27.217  41.024  48.814  1.00  0.00     0.008 A 
HETATM   17  C   UNL     1      28.564  40.639  48.765  1.00  0.00     0.026 A 
HETATM   18  C   UNL     1      28.967  39.353  49.141  1.00  0.00     0.038 A 
HETATM   19  C   UNL     1      28.039  38.428  49.613  1.00  0.00     0.068 A 
HETATM   20  C   UNL     1      26.703  38.806  49.706  1.00  0.00     0.038 A 
HETATM   21  C   UNL     1      26.303  40.096  49.323  1.00  0.00     0.026 A 
BRANCH  19  22
HETATM   22  O   UNL     1      28.560  37.211  49.956  1.00  0.00    -0.356 OA
HETATM   23  C   UNL     1      29.666  37.217  50.848  1.00  0.00     0.210 C 
ENDBRANCH  19  22
ENDBRANCH  14  16
ENDBRANCH  13  14
ENDBRANCH   8  13
BRANCH   1  24
HETATM   24  O   UNL     1      30.606  43.734  54.789  1.00  0.00    -0.351 OA
BRANCH  24  25
HETATM   25  C   UNL     1      30.719  44.261  56.110  1.00  0.00     0.171 C 
HETATM   26  C   UNL     1      31.689  43.388  56.884  1.00  0.00     0.034 C 
ENDBRANCH  24  25
ENDBRANCH   1  24
TORSDOF 6
ENDMDL
MODEL 9
REMARK VINA RESULT:      -7.2      5.360      9.315
REMARK  6 active torsions:
REMARK  status: ('A' for Active; 'I' for Inactive)
REMARK    1  A    between atoms: C_2  and  O_3 
REMARK    2  A    between atoms: O_3  and  C_4 
REMARK    3  A    between atoms: C_11  and  C_12 
REMARK    4  A    between atoms: C_12  and  N_13 
REMARK    5  A    between atoms: N_13  and  C_14 
REMARK    6  A    between atoms: C_17  and  O_18 
ROOT
HETATM    1  C   UNL     1      29.704  44.433  55.248  1.00  0.00     0.069 A 
HETATM    2  C   UNL     1      29.996  43.344  54.423  1.00  0.00     0.050 A 
HETATM    3  C   UNL     1      29.026  42.854  53.541  1.00  0.00    -0.006 A 
HETATM    4  C   UNL     1      27.766  43.459  53.488  1.00  0.00     0.045 A 
HETATM    5  N   UNL     1      26.804  42.962  52.600  1.00  0.00    -0.322 N 
HETATM    6  C   UNL     1      27.023  41.904  51.756  1.00  0.00     0.253 A 
HETATM    7  O   UNL     1      26.150  41.517  50.984  1.00  0.00    -0.268 OA
HETATM    8  C   UNL     1      28.362  41.249  51.818  1.00  0.00     0.024 A 
HETATM    9  C   UNL     1      29.295  41.709  52.672  1.00  0.00     0.027 A 
HETATM   10  C   UNL     1      27.466  44.544  54.306  1.00  0.00     0.033 A 
HETATM   11  C   UNL     1      28.439  45.025  55.185  1.00  0.00     0.039 A 
HETATM   12  H   UNL     1      25.892  43.393  52.541  1.00  0.00     0.169 HD
ENDROOT
BRANCH   8  13
HETATM   13  C   UNL     1      28.576  40.052  50.940  1.00  0.00     0.136 C 
BRANCH  13  14
HETATM   14  N   UNL     1      28.868  40.517  49.587  1.00  0.00    -0.289 NA
HETATM   15  H   UNL     1      28.450  41.435  49.431  1.00  0.00     0.128 HD
BRANCH  14  16
HETATM   16  C   UNL     1      28.603  39.672  48.501  1.00  0.00     0.008 A 
HETATM   17  C   UNL     1      28.100  40.238  47.322  1.00  0.00     0.026 A 
HETATM   18  C   UNL     1      27.892  39.465  46.175  1.00  0.00     0.038 A 
HETATM   19  C   UNL     1      28.217  38.110  46.163  1.00  0.00     0.068 A 
HETATM   20  C   UNL     1      28.756  37.540  47.312  1.00  0.00     0.038 A 
HETATM   21  C   UNL     1      28.957  38.320  48.462  1.00  0.00     0.026 A 
BRANCH  19  22
HETATM   22  O   UNL     1      27.975  37.469  44.980  1.00  0.00    -0.356 OA
HETATM   23  C   UNL     1      27.791  38.289  43.833  1.00  0.00     0.210 C 
ENDBRANCH  19  22
ENDBRANCH  14  16
ENDBRANCH  13  14
ENDBRANCH   8  13
BRANCH   1  24
HETATM   24  O   UNL     1      30.556  45.006  56.153  1.00  0.00    -0.351 OA
BRANCH  24  25
HETATM   25  C   UNL     1      29.978  45.840  57.156  1.00  0.00     0.171 C 
HETATM   26  C   UNL     1      30.458  45.348  58.509  1.00  0.00     0.034 C 
ENDBRANCH  24  25
ENDBRANCH   1  24
TORSDOF 6
ENDMDL
MODEL 10
REMARK VINA RESULT:      -7.2      3.137      8.756
REMARK  6 active torsions:
REMARK  status: ('A' for Active; 'I' for Inactive)
REMARK    1  A    between atoms: C_2  and  O_3 
REMARK    2  A    between atoms: O_3  and  C_4 
REMARK    3  A    between atoms: C_11  and  C_12 
REMARK    4  A    between atoms: C_12  and  N_13 
REMARK    5  A    between atoms: N_13  and  C_14 
REMARK    6  A    between atoms: C_17  and  O_18 
ROOT
HETATM    1  C   UNL     1      29.492  44.320  55.152  1.00  0.00     0.069 A 
HETATM    2  C   UNL     1      28.550  43.938  54.194  1.00  0.00     0.050 A 
HETATM    3  C   UNL     1      27.620  44.869  53.716  1.00  0.00    -0.006 A 
HETATM    4  C   UNL     1      27.640  46.182  54.199  1.00  0.00     0.045 A 
HETATM    5  N   UNL     1      26.707  47.105  53.711  1.00  0.00    -0.322 N 
HETATM    6  C   UNL     1      25.761  46.803  52.767  1.00  0.00     0.253 A 
HETATM    7  O   UNL     1      24.975  47.655  52.361  1.00  0.00    -0.268 OA
HETATM    8  C   UNL     1      25.729  45.401  52.258  1.00  0.00     0.024 A 
HETATM    9  C   UNL     1      26.614  44.499  52.722  1.00  0.00     0.027 A 
HETATM   10  C   UNL     1      28.575  46.572  55.153  1.00  0.00     0.033 A 
HETATM   11  C   UNL     1      29.497  45.636  55.627  1.00  0.00     0.039 A 
HETATM   12  H   UNL     1      26.714  48.060  54.042  1.00  0.00     0.169 HD
ENDROOT
BRANCH   8  13
HETATM   13  C   UNL     1      24.652  45.059  51.273  1.00  0.00     0.136 C 
BRANCH  13  14
HETATM   14  N   UNL     1      24.169  43.712  51.564  1.00  0.00    -0.289 NA
HETATM   15  H   UNL     1      24.626  43.346  52.400  1.00  0.00     0.128 HD
BRANCH  14  16
HETATM   16  C   UNL     1      24.173  42.748  50.546  1.00  0.00     0.008 A 
HETATM   17  C   UNL     1      23.089  42.709  49.660  1.00  0.00     0.026 A 
HETATM   18  C   UNL     1      23.069  41.826  48.574  1.00  0.00     0.038 A 
HETATM   19  C   UNL     1      24.151  40.985  48.322  1.00  0.00     0.068 A 
HETATM   20  C   UNL     1      25.253  41.040  49.170  1.00  0.00     0.038 A 
HETATM   21  C   UNL     1      25.265  41.923  50.261  1.00  0.00     0.026 A 
BRANCH  19  22
HETATM   22  O   UNL     1      24.013  40.179  47.228  1.00  0.00    -0.356 OA
HETATM   23  C   UNL     1      22.715  40.096  46.653  1.00  0.00     0.210 C 
ENDBRANCH  19  22
ENDBRANCH  14  16
ENDBRANCH  13  14
ENDBRANCH   8  13
BRANCH   1  24
HETATM   24  O   UNL     1      30.450  43.513  55.703  1.00  0.00    -0.351 OA
BRANCH  24  25
HETATM   25  C   UNL     1      31.292  44.087  56.701  1.00  0.00     0.171 C 
HETATM   26  C   UNL     1      32.093  42.968  57.341  1.00  0.00     0.034 C 
ENDBRANCH  24  25
ENDBRANCH   1  24
TORSDOF 6
ENDMDL
