MODEL 1
REMARK VINA RESULT:      -8.5      0.000      0.000
REMARK  9 active torsions:
REMARK  status: ('A' for Active; 'I' for Inactive)
REMARK    1  A    between atoms: C_2  and  N_3 
REMARK    2  A    between atoms: C_4  and  S_5 
REMARK    3  A    between atoms: S_5  and  C_6 
REMARK    4  A    between atoms: C_6  and  C_7 
REMARK       I    between atoms: C_7  and  N_8 
REMARK    5  A    between atoms: N_8  and  C_9 
REMARK    6  A    between atoms: C_9  and  C_10 
REMARK    7  A    between atoms: C_10  and  O_11 
REMARK    8  A    between atoms: O_11  and  C_12 
REMARK    9  A    between atoms: C_21  and  C_22 
ROOT
HETATM    1  S   UNL     1      24.572  44.025  51.194  1.00  0.00    -0.081 SA
ENDROOT
BRANCH   1   2
HETATM    2  C   UNL     1      25.457  44.127  52.677  1.00  0.00     0.192 A 
HETATM    3  N   UNL     1      26.822  44.066  52.774  1.00  0.00    -0.308 N 
HETATM    4  C   UNL     1      27.105  44.210  54.119  1.00  0.00     0.165 A 
HETATM    5  N   UNL     1      25.963  44.345  54.771  1.00  0.00    -0.128 NA
HETATM    6  N   UNL     1      24.932  44.284  53.868  1.00  0.00    -0.122 NA
BRANCH   3   7
HETATM    7  C   UNL     1      27.778  43.968  51.690  1.00  0.00     0.128 C 
HETATM    8  C   UNL     1      28.046  42.535  51.259  1.00  0.00     0.027 C 
ENDBRANCH   3   7
BRANCH   4   9
HETATM    9  C   UNL     1      28.437  44.258  54.726  1.00  0.00     0.018 A 
HETATM   10  C   UNL     1      28.926  45.437  55.331  1.00  0.00    -0.048 A 
HETATM   11  C   UNL     1      28.094  46.689  55.416  1.00  0.00     0.049 C 
HETATM   12  C   UNL     1      30.209  45.433  55.907  1.00  0.00     0.007 A 
HETATM   13  C   UNL     1      31.000  44.284  55.883  1.00  0.00     0.001 A 
HETATM   14  C   UNL     1      30.513  43.119  55.299  1.00  0.00     0.001 A 
HETATM   15  C   UNL     1      29.238  43.104  54.732  1.00  0.00     0.016 A 
ENDBRANCH   4   9
ENDBRANCH   1   2
BRANCH   1  16
HETATM   16  C   UNL     1      24.736  45.739  50.610  1.00  0.00     0.185 C 
BRANCH  16  17
HETATM   17  C   UNL     1      23.818  45.959  49.418  1.00  0.00     0.227 C 
HETATM   18  N   UNL     1      23.108  47.142  49.445  1.00  0.00    -0.358 N 
HETATM   19  H   UNL     1      23.236  47.786  50.215  1.00  0.00     0.162 HD
HETATM   20  O   UNL     1      23.725  45.148  48.500  1.00  0.00    -0.273 OA
BRANCH  18  21
HETATM   21  C   UNL     1      22.242  47.542  48.349  1.00  0.00     0.149 C 
BRANCH  21  22
HETATM   22  C   UNL     1      22.169  49.058  48.148  1.00  0.00     0.195 C 
BRANCH  22  23
HETATM   23  O   UNL     1      21.760  49.639  49.389  1.00  0.00    -0.350 OA
BRANCH  23  24
HETATM   24  C   UNL     1      20.612  50.379  49.398  1.00  0.00     0.068 A 
HETATM   25  C   UNL     1      19.493  50.157  50.202  1.00  0.00     0.037 A 
HETATM   26  C   UNL     1      18.386  51.010  50.115  1.00  0.00     0.003 A 
HETATM   27  C   UNL     1      18.392  52.083  49.223  1.00  0.00     0.000 A 
HETATM   28  C   UNL     1      19.505  52.307  48.417  1.00  0.00     0.003 A 
HETATM   29  C   UNL     1      20.608  51.458  48.507  1.00  0.00     0.037 A 
ENDBRANCH  23  24
ENDBRANCH  22  23
ENDBRANCH  21  22
ENDBRANCH  18  21
ENDBRANCH  16  17
ENDBRANCH   1  16
TORSDOF 9
ENDMDL
MODEL 2
REMARK VINA RESULT:      -8.5      0.908      1.621
REMARK  9 active torsions:
REMARK  status: ('A' for Active; 'I' for Inactive)
REMARK    1  A    between atoms: C_2  and  N_3 
REMARK    2  A    between atoms: C_4  and  S_5 
REMARK    3  A    between atoms: S_5  and  C_6 
REMARK    4  A    between atoms: C_6  and  C_7 
REMARK       I    between atoms: C_7  and  N_8 
REMARK    5  A    between atoms: N_8  and  C_9 
REMARK    6  A    between atoms: C_9  and  C_10 
REMARK    7  A    between atoms: C_10  and  O_11 
REMARK    8  A    between atoms: O_11  and  C_12 
REMARK    9  A    between atoms: C_21  and  C_22 
ROOT
HETATM    1  S   UNL     1      24.329  44.773  50.970  1.00  0.00    -0.081 SA
ENDROOT
BRANCH   1   2
HETATM    2  C   UNL     1      25.207  44.488  52.432  1.00  0.00     0.192 A 
HETATM    3  N   UNL     1      26.570  44.374  52.512  1.00  0.00    -0.308 N 
HETATM    4  C   UNL     1      26.848  44.178  53.852  1.00  0.00     0.165 A 
HETATM    5  N   UNL     1      25.706  44.177  54.516  1.00  0.00    -0.128 NA
HETATM    6  N   UNL     1      24.679  44.362  53.626  1.00  0.00    -0.122 NA
BRANCH   3   7
HETATM    7  C   UNL     1      27.530  44.521  51.436  1.00  0.00     0.128 C 
HETATM    8  C   UNL     1      27.503  43.364  50.450  1.00  0.00     0.027 C 
ENDBRANCH   3   7
BRANCH   4   9
HETATM    9  C   UNL     1      28.178  44.046  54.452  1.00  0.00     0.018 A 
HETATM   10  C   UNL     1      28.905  42.839  54.365  1.00  0.00    -0.048 A 
HETATM   11  C   UNL     1      28.370  41.642  53.624  1.00  0.00     0.049 C 
HETATM   12  C   UNL     1      30.181  42.761  54.950  1.00  0.00     0.007 A 
HETATM   13  C   UNL     1      30.730  43.856  55.617  1.00  0.00     0.001 A 
HETATM   14  C   UNL     1      30.019  45.050  55.691  1.00  0.00     0.001 A 
HETATM   15  C   UNL     1      28.756  45.146  55.106  1.00  0.00     0.016 A 
ENDBRANCH   4   9
ENDBRANCH   1   2
BRANCH   1  16
HETATM   16  C   UNL     1      24.831  46.486  50.628  1.00  0.00     0.185 C 
BRANCH  16  17
HETATM   17  C   UNL     1      23.849  47.117  49.654  1.00  0.00     0.227 C 
HETATM   18  N   UNL     1      24.029  48.470  49.446  1.00  0.00    -0.358 N 
HETATM   19  H   UNL     1      24.782  48.954  49.919  1.00  0.00     0.162 HD
HETATM   20  O   UNL     1      22.969  46.470  49.092  1.00  0.00    -0.273 OA
BRANCH  18  21
HETATM   21  C   UNL     1      23.225  49.213  48.491  1.00  0.00     0.149 C 
BRANCH  21  22
HETATM   22  C   UNL     1      22.405  50.340  49.127  1.00  0.00     0.195 C 
BRANCH  22  23
HETATM   23  O   UNL     1      21.143  49.790  49.514  1.00  0.00    -0.350 OA
BRANCH  23  24
HETATM   24  C   UNL     1      20.041  50.591  49.415  1.00  0.00     0.068 A 
HETATM   25  C   UNL     1      18.840  50.432  50.108  1.00  0.00     0.037 A 
HETATM   26  C   UNL     1      17.795  51.344  49.917  1.00  0.00     0.003 A 
HETATM   27  C   UNL     1      17.944  52.412  49.033  1.00  0.00     0.000 A 
HETATM   28  C   UNL     1      19.140  52.573  48.338  1.00  0.00     0.003 A 
HETATM   29  C   UNL     1      20.181  51.667  48.531  1.00  0.00     0.037 A 
ENDBRANCH  23  24
ENDBRANCH  22  23
ENDBRANCH  21  22
ENDBRANCH  18  21
ENDBRANCH  16  17
ENDBRANCH   1  16
TORSDOF 9
ENDMDL
MODEL 3
REMARK VINA RESULT:      -8.5      2.079     10.948
REMARK  9 active torsions:
REMARK  status: ('A' for Active; 'I' for Inactive)
REMARK    1  A    between atoms: C_2  and  N_3 
REMARK    2  A    between atoms: C_4  and  S_5 
REMARK    3  A    between atoms: S_5  and  C_6 
REMARK    4  A    between atoms: C_6  and  C_7 
REMARK       I    between atoms: C_7  and  N_8 
REMARK    5  A    between atoms: N_8  and  C_9 
REMARK    6  A    between atoms: C_9  and  C_10 
REMARK    7  A    between atoms: C_10  and  O_11 
REMARK    8  A    between atoms: O_11  and  C_12 
REMARK    9  A    between atoms: C_21  and  C_22 
ROOT
HETATM    1  S   UNL     1      23.439  46.986  48.902  1.00  0.00    -0.081 SA
ENDROOT
BRANCH   1   2
HETATM    2  C   UNL     1      22.681  48.507  49.226  1.00  0.00     0.192 A 
HETATM    3  N   UNL     1      21.393  48.822  48.882  1.00  0.00    -0.308 N 
HETATM    4  C   UNL     1      21.190  50.109  49.344  1.00  0.00     0.165 A 
HETATM    5  N   UNL     1      22.304  50.521  49.926  1.00  0.00    -0.128 NA
HETATM    6  N   UNL     1      23.238  49.520  49.843  1.00  0.00    -0.122 NA
BRANCH   3   7
HETATM    7  C   UNL     1      20.413  47.961  48.250  1.00  0.00     0.128 C 
HETATM    8  C   UNL     1      19.883  48.521  46.940  1.00  0.00     0.027 C 
ENDBRANCH   3   7
BRANCH   4   9
HETATM    9  C   UNL     1      19.946  50.877  49.258  1.00  0.00     0.018 A 
HETATM   10  C   UNL     1      18.820  50.542  50.041  1.00  0.00    -0.048 A 
HETATM   11  C   UNL     1      18.850  49.404  51.026  1.00  0.00     0.049 C 
HETATM   12  C   UNL     1      17.650  51.313  49.928  1.00  0.00     0.007 A 
HETATM   13  C   UNL     1      17.590  52.397  49.053  1.00  0.00     0.001 A 
HETATM   14  C   UNL     1      18.703  52.737  48.292  1.00  0.00     0.001 A 
HETATM   15  C   UNL     1      19.875  51.987  48.399  1.00  0.00     0.016 A 
ENDBRANCH   4   9
ENDBRANCH   1   2
BRANCH   1  16
HETATM   16  C   UNL     1      24.855  47.091  50.038  1.00  0.00     0.185 C 
BRANCH  16  17
HETATM   17  C   UNL     1      24.905  45.842  50.903  1.00  0.00     0.227 C 
HETATM   18  N   UNL     1      25.376  46.044  52.184  1.00  0.00    -0.358 N 
HETATM   19  H   UNL     1      25.642  46.975  52.480  1.00  0.00     0.162 HD
HETATM   20  O   UNL     1      24.545  44.741  50.493  1.00  0.00    -0.273 OA
BRANCH  18  21
HETATM   21  C   UNL     1      25.420  44.972  53.164  1.00  0.00     0.149 C 
BRANCH  21  22
HETATM   22  C   UNL     1      26.818  44.375  53.357  1.00  0.00     0.195 C 
BRANCH  22  23
HETATM   23  O   UNL     1      27.536  45.238  54.242  1.00  0.00    -0.350 OA
BRANCH  23  24
HETATM   24  C   UNL     1      28.685  44.759  54.805  1.00  0.00     0.068 A 
HETATM   25  C   UNL     1      29.256  43.506  54.576  1.00  0.00     0.037 A 
HETATM   26  C   UNL     1      30.452  43.154  55.214  1.00  0.00     0.003 A 
HETATM   27  C   UNL     1      31.077  44.048  56.083  1.00  0.00     0.000 A 
HETATM   28  C   UNL     1      30.510  45.298  56.316  1.00  0.00     0.003 A 
HETATM   29  C   UNL     1      29.321  45.649  55.677  1.00  0.00     0.037 A 
ENDBRANCH  23  24
ENDBRANCH  22  23
ENDBRANCH  21  22
ENDBRANCH  18  21
ENDBRANCH  16  17
ENDBRANCH   1  16
TORSDOF 9
ENDMDL
MODEL 4
REMARK VINA RESULT:      -8.4      1.910      2.212
REMARK  9 active torsions:
REMARK  status: ('A' for Active; 'I' for Inactive)
REMARK    1  A    between atoms: C_2  and  N_3 
REMARK    2  A    between atoms: C_4  and  S_5 
REMARK    3  A    between atoms: S_5  and  C_6 
REMARK    4  A    between atoms: C_6  and  C_7 
REMARK       I    between atoms: C_7  and  N_8 
REMARK    5  A    between atoms: N_8  and  C_9 
REMARK    6  A    between atoms: C_9  and  C_10 
REMARK    7  A    between atoms: C_10  and  O_11 
REMARK    8  A    between atoms: O_11  and  C_12 
REMARK    9  A    between atoms: C_21  and  C_22 
ROOT
HETATM    1  S   UNL     1      25.329  45.622  52.844  1.00  0.00    -0.081 SA
ENDROOT
BRANCH   1   2
HETATM    2  C   UNL     1      26.725  45.934  53.818  1.00  0.00     0.192 A 
HETATM    3  N   UNL     1      27.428  44.975  54.498  1.00  0.00    -0.308 N 
HETATM    4  C   UNL     1      28.467  45.646  55.117  1.00  0.00     0.165 A 
HETATM    5  N   UNL     1      28.370  46.929  54.813  1.00  0.00    -0.128 NA
HETATM    6  N   UNL     1      27.275  47.108  54.007  1.00  0.00    -0.122 NA
BRANCH   3   7
HETATM    7  C   UNL     1      27.195  43.545  54.497  1.00  0.00     0.128 C 
HETATM    8  C   UNL     1      27.786  42.845  53.284  1.00  0.00     0.027 C 
ENDBRANCH   3   7
BRANCH   4   9
HETATM    9  C   UNL     1      29.527  45.046  55.929  1.00  0.00     0.018 A 
HETATM   10  C   UNL     1      29.701  45.397  57.285  1.00  0.00    -0.048 A 
HETATM   11  C   UNL     1      28.788  46.377  57.974  1.00  0.00     0.049 C 
HETATM   12  C   UNL     1      30.729  44.789  58.027  1.00  0.00     0.007 A 
HETATM   13  C   UNL     1      31.576  43.850  57.439  1.00  0.00     0.001 A 
HETATM   14  C   UNL     1      31.396  43.493  56.106  1.00  0.00     0.001 A 
HETATM   15  C   UNL     1      30.374  44.081  55.359  1.00  0.00     0.016 A 
ENDBRANCH   4   9
ENDBRANCH   1   2
BRANCH   1  16
HETATM   16  C   UNL     1      26.087  45.641  51.191  1.00  0.00     0.185 C 
BRANCH  16  17
HETATM   17  C   UNL     1      25.915  47.018  50.571  1.00  0.00     0.227 C 
HETATM   18  N   UNL     1      24.725  47.204  49.897  1.00  0.00    -0.358 N 
HETATM   19  H   UNL     1      24.046  46.454  49.861  1.00  0.00     0.162 HD
HETATM   20  O   UNL     1      26.768  47.897  50.670  1.00  0.00    -0.273 OA
BRANCH  18  21
HETATM   21  C   UNL     1      24.369  48.484  49.308  1.00  0.00     0.149 C 
BRANCH  21  22
HETATM   22  C   UNL     1      22.858  48.702  49.183  1.00  0.00     0.195 C 
BRANCH  22  23
HETATM   23  O   UNL     1      22.552  49.959  49.790  1.00  0.00    -0.350 OA
BRANCH  23  24
HETATM   24  C   UNL     1      21.364  50.551  49.465  1.00  0.00     0.068 A 
HETATM   25  C   UNL     1      20.441  51.094  50.360  1.00  0.00     0.037 A 
HETATM   26  C   UNL     1      19.266  51.686  49.882  1.00  0.00     0.003 A 
HETATM   27  C   UNL     1      19.007  51.733  48.512  1.00  0.00     0.000 A 
HETATM   28  C   UNL     1      19.924  51.190  47.616  1.00  0.00     0.003 A 
HETATM   29  C   UNL     1      21.096  50.604  48.093  1.00  0.00     0.037 A 
ENDBRANCH  23  24
ENDBRANCH  22  23
ENDBRANCH  21  22
ENDBRANCH  18  21
ENDBRANCH  16  17
ENDBRANCH   1  16
TORSDOF 9
ENDMDL
MODEL 5
REMARK VINA RESULT:      -8.2      2.429      9.996
REMARK  9 active torsions:
REMARK  status: ('A' for Active; 'I' for Inactive)
REMARK    1  A    between atoms: C_2  and  N_3 
REMARK    2  A    between atoms: C_4  and  S_5 
REMARK    3  A    between atoms: S_5  and  C_6 
REMARK    4  A    between atoms: C_6  and  C_7 
REMARK       I    between atoms: C_7  and  N_8 
REMARK    5  A    between atoms: N_8  and  C_9 
REMARK    6  A    between atoms: C_9  and  C_10 
REMARK    7  A    between atoms: C_10  and  O_11 
REMARK    8  A    between atoms: O_11  and  C_12 
REMARK    9  A    between atoms: C_21  and  C_22 
ROOT
HETATM    1  S   UNL     1      24.554  44.147  49.301  1.00  0.00    -0.081 SA
ENDROOT
BRANCH   1   2
HETATM    2  C   UNL     1      24.289  45.829  49.604  1.00  0.00     0.192 A 
HETATM    3  N   UNL     1      23.400  46.613  48.917  1.00  0.00    -0.308 N 
HETATM    4  C   UNL     1      23.489  47.867  49.492  1.00  0.00     0.165 A 
HETATM    5  N   UNL     1      24.387  47.815  50.461  1.00  0.00    -0.128 NA
HETATM    6  N   UNL     1      24.892  46.542  50.524  1.00  0.00    -0.122 NA
BRANCH   3   7
HETATM    7  C   UNL     1      22.486  46.198  47.872  1.00  0.00     0.128 C 
HETATM    8  C   UNL     1      21.187  45.618  48.410  1.00  0.00     0.027 C 
ENDBRANCH   3   7
BRANCH   4   9
HETATM    9  C   UNL     1      22.697  49.045  49.132  1.00  0.00     0.018 A 
HETATM   10  C   UNL     1      23.262  50.116  48.407  1.00  0.00    -0.048 A 
HETATM   11  C   UNL     1      24.692  50.089  47.937  1.00  0.00     0.049 C 
HETATM   12  C   UNL     1      22.460  51.224  48.079  1.00  0.00     0.007 A 
HETATM   13  C   UNL     1      21.121  51.275  48.465  1.00  0.00     0.001 A 
HETATM   14  C   UNL     1      20.560  50.214  49.167  1.00  0.00     0.001 A 
HETATM   15  C   UNL     1      21.340  49.104  49.492  1.00  0.00     0.016 A 
ENDBRANCH   4   9
ENDBRANCH   1   2
BRANCH   1  16
HETATM   16  C   UNL     1      24.948  43.581  50.983  1.00  0.00     0.185 C 
BRANCH  16  17
HETATM   17  C   UNL     1      26.254  42.803  50.964  1.00  0.00     0.227 C 
HETATM   18  N   UNL     1      26.655  42.316  52.192  1.00  0.00    -0.358 N 
HETATM   19  H   UNL     1      26.081  42.481  53.009  1.00  0.00     0.162 HD
HETATM   20  O   UNL     1      26.895  42.616  49.933  1.00  0.00    -0.273 OA
BRANCH  18  21
HETATM   21  C   UNL     1      27.841  41.489  52.339  1.00  0.00     0.149 C 
BRANCH  21  22
HETATM   22  C   UNL     1      29.119  42.291  52.601  1.00  0.00     0.195 C 
BRANCH  22  23
HETATM   23  O   UNL     1      29.427  42.169  53.992  1.00  0.00    -0.350 OA
BRANCH  23  24
HETATM   24  C   UNL     1      29.614  43.318  54.707  1.00  0.00     0.068 A 
HETATM   25  C   UNL     1      28.828  44.469  54.638  1.00  0.00     0.037 A 
HETATM   26  C   UNL     1      29.130  45.573  55.445  1.00  0.00     0.003 A 
HETATM   27  C   UNL     1      30.218  45.532  56.317  1.00  0.00     0.000 A 
HETATM   28  C   UNL     1      31.006  44.387  56.387  1.00  0.00     0.003 A 
HETATM   29  C   UNL     1      30.702  43.287  55.585  1.00  0.00     0.037 A 
ENDBRANCH  23  24
ENDBRANCH  22  23
ENDBRANCH  21  22
ENDBRANCH  18  21
ENDBRANCH  16  17
ENDBRANCH   1  16
TORSDOF 9
ENDMDL
MODEL 6
REMARK VINA RESULT:      -8.2      1.659      2.853
REMARK  9 active torsions:
REMARK  status: ('A' for Active; 'I' for Inactive)
REMARK    1  A    between atoms: C_2  and  N_3 
REMARK    2  A    between atoms: C_4  and  S_5 
REMARK    3  A    between atoms: S_5  and  C_6 
REMARK    4  A    between atoms: C_6  and  C_7 
REMARK       I    between atoms: C_7  and  N_8 
REMARK    5  A    between atoms: N_8  and  C_9 
REMARK    6  A    between atoms: C_9  and  C_10 
REMARK    7  A    between atoms: C_10  and  O_11 
REMARK    8  A    between atoms: O_11  and  C_12 
REMARK    9  A    between atoms: C_21  and  C_22 
ROOT
HETATM    1  S   UNL     1      24.095  44.630  49.002  1.00  0.00    -0.081 SA
ENDROOT
BRANCH   1   2
HETATM    2  C   UNL     1      24.560  44.694  50.667  1.00  0.00     0.192 A 
HETATM    3  N   UNL     1      25.623  45.410  51.150  1.00  0.00    -0.308 N 
HETATM    4  C   UNL     1      25.619  45.204  52.517  1.00  0.00     0.165 A 
HETATM    5  N   UNL     1      24.606  44.408  52.813  1.00  0.00    -0.128 NA
HETATM    6  N   UNL     1      23.950  44.083  51.653  1.00  0.00    -0.122 NA
BRANCH   3   7
HETATM    7  C   UNL     1      26.513  46.278  50.405  1.00  0.00     0.128 C 
HETATM    8  C   UNL     1      25.991  47.701  50.279  1.00  0.00     0.027 C 
ENDBRANCH   3   7
BRANCH   4   9
HETATM    9  C   UNL     1      26.539  45.799  53.488  1.00  0.00     0.018 A 
HETATM   10  C   UNL     1      27.679  45.101  53.943  1.00  0.00    -0.048 A 
HETATM   11  C   UNL     1      28.025  43.729  53.429  1.00  0.00     0.049 C 
HETATM   12  C   UNL     1      28.538  45.716  54.871  1.00  0.00     0.007 A 
HETATM   13  C   UNL     1      28.274  47.000  55.347  1.00  0.00     0.001 A 
HETATM   14  C   UNL     1      27.159  47.694  54.889  1.00  0.00     0.001 A 
HETATM   15  C   UNL     1      26.302  47.101  53.961  1.00  0.00     0.016 A 
ENDBRANCH   4   9
ENDBRANCH   1   2
BRANCH   1  16
HETATM   16  C   UNL     1      22.305  44.370  49.184  1.00  0.00     0.185 C 
BRANCH  16  17
HETATM   17  C   UNL     1      21.555  45.481  48.466  1.00  0.00     0.227 C 
HETATM   18  N   UNL     1      22.124  46.733  48.584  1.00  0.00    -0.358 N 
HETATM   19  H   UNL     1      22.982  46.847  49.109  1.00  0.00     0.162 HD
HETATM   20  O   UNL     1      20.528  45.275  47.823  1.00  0.00    -0.273 OA
BRANCH  18  21
HETATM   21  C   UNL     1      21.577  47.892  47.900  1.00  0.00     0.149 C 
BRANCH  21  22
HETATM   22  C   UNL     1      22.147  49.223  48.398  1.00  0.00     0.195 C 
BRANCH  22  23
HETATM   23  O   UNL     1      21.394  49.611  49.550  1.00  0.00    -0.350 OA
BRANCH  23  24
HETATM   24  C   UNL     1      20.376  50.505  49.374  1.00  0.00     0.068 A 
HETATM   25  C   UNL     1      20.377  51.596  48.503  1.00  0.00     0.037 A 
HETATM   26  C   UNL     1      19.250  52.424  48.416  1.00  0.00     0.003 A 
HETATM   27  C   UNL     1      18.125  52.168  49.199  1.00  0.00     0.000 A 
HETATM   28  C   UNL     1      18.122  51.082  50.071  1.00  0.00     0.003 A 
HETATM   29  C   UNL     1      19.242  50.257  50.155  1.00  0.00     0.037 A 
ENDBRANCH  23  24
ENDBRANCH  22  23
ENDBRANCH  21  22
ENDBRANCH  18  21
ENDBRANCH  16  17
ENDBRANCH   1  16
TORSDOF 9
ENDMDL
MODEL 7
REMARK VINA RESULT:      -8.1      3.319      4.148
REMARK  9 active torsions:
REMARK  status: ('A' for Active; 'I' for Inactive)
REMARK    1  A    between atoms: C_2  and  N_3 
REMARK    2  A    between atoms: C_4  and  S_5 
REMARK    3  A    between atoms: S_5  and  C_6 
REMARK    4  A    between atoms: C_6  and  C_7 
REMARK       I    between atoms: C_7  and  N_8 
REMARK    5  A    between atoms: N_8  and  C_9 
REMARK    6  A    between atoms: C_9  and  C_10 
REMARK    7  A    between atoms: C_10  and  O_11 
REMARK    8  A    between atoms: O_11  and  C_12 
REMARK    9  A    between atoms: C_21  and  C_22 
ROOT
HETATM    1  S   UNL     1      25.241  42.361  48.528  1.00  0.00    -0.081 SA
ENDROOT
BRANCH   1   2
HETATM    2  C   UNL     1      26.301  43.232  49.581  1.00  0.00     0.192 A 
HETATM    3  N   UNL     1      26.805  42.743  50.757  1.00  0.00    -0.308 N 
HETATM    4  C   UNL     1      27.615  43.744  51.259  1.00  0.00     0.165 A 
HETATM    5  N   UNL     1      27.582  44.764  50.419  1.00  0.00    -0.128 NA
HETATM    6  N   UNL     1      26.753  44.445  49.374  1.00  0.00    -0.122 NA
BRANCH   3   7
HETATM    7  C   UNL     1      26.610  41.420  51.316  1.00  0.00     0.128 C 
HETATM    8  C   UNL     1      27.584  40.390  50.766  1.00  0.00     0.027 C 
ENDBRANCH   3   7
BRANCH   4   9
HETATM    9  C   UNL     1      28.417  43.681  52.482  1.00  0.00     0.018 A 
HETATM   10  C   UNL     1      27.994  44.314  53.671  1.00  0.00    -0.048 A 
HETATM   11  C   UNL     1      26.685  45.054  53.753  1.00  0.00     0.049 C 
HETATM   12  C   UNL     1      28.794  44.220  54.824  1.00  0.00     0.007 A 
HETATM   13  C   UNL     1      29.997  43.515  54.802  1.00  0.00     0.001 A 
HETATM   14  C   UNL     1      30.408  42.879  53.635  1.00  0.00     0.001 A 
HETATM   15  C   UNL     1      29.620  42.955  52.486  1.00  0.00     0.016 A 
ENDBRANCH   4   9
ENDBRANCH   1   2
BRANCH   1  16
HETATM   16  C   UNL     1      23.772  42.237  49.592  1.00  0.00     0.185 C 
BRANCH  16  17
HETATM   17  C   UNL     1      23.275  43.632  49.935  1.00  0.00     0.227 C 
HETATM   18  N   UNL     1      22.744  44.335  48.873  1.00  0.00    -0.358 N 
HETATM   19  H   UNL     1      22.699  43.904  47.958  1.00  0.00     0.162 HD
HETATM   20  O   UNL     1      23.335  44.091  51.073  1.00  0.00    -0.273 OA
BRANCH  18  21
HETATM   21  C   UNL     1      22.158  45.653  49.042  1.00  0.00     0.149 C 
BRANCH  21  22
HETATM   22  C   UNL     1      23.046  46.789  48.526  1.00  0.00     0.195 C 
BRANCH  22  23
HETATM   23  O   UNL     1      23.897  47.194  49.601  1.00  0.00    -0.350 OA
BRANCH  23  24
HETATM   24  C   UNL     1      24.927  48.044  49.313  1.00  0.00     0.068 A 
HETATM   25  C   UNL     1      26.239  47.938  49.776  1.00  0.00     0.037 A 
HETATM   26  C   UNL     1      27.200  48.879  49.385  1.00  0.00     0.003 A 
HETATM   27  C   UNL     1      26.852  49.929  48.536  1.00  0.00     0.000 A 
HETATM   28  C   UNL     1      25.543  50.041  48.073  1.00  0.00     0.003 A 
HETATM   29  C   UNL     1      24.589  49.101  48.461  1.00  0.00     0.037 A 
ENDBRANCH  23  24
ENDBRANCH  22  23
ENDBRANCH  21  22
ENDBRANCH  18  21
ENDBRANCH  16  17
ENDBRANCH   1  16
TORSDOF 9
ENDMDL
MODEL 8
REMARK VINA RESULT:      -8.1      2.145     10.998
REMARK  9 active torsions:
REMARK  status: ('A' for Active; 'I' for Inactive)
REMARK    1  A    between atoms: C_2  and  N_3 
REMARK    2  A    between atoms: C_4  and  S_5 
REMARK    3  A    between atoms: S_5  and  C_6 
REMARK    4  A    between atoms: C_6  and  C_7 
REMARK       I    between atoms: C_7  and  N_8 
REMARK    5  A    between atoms: N_8  and  C_9 
REMARK    6  A    between atoms: C_9  and  C_10 
REMARK    7  A    between atoms: C_10  and  O_11 
REMARK    8  A    between atoms: O_11  and  C_12 
REMARK    9  A    between atoms: C_21  and  C_22 
ROOT
HETATM    1  S   UNL     1      24.281  47.812  49.541  1.00  0.00    -0.081 SA
ENDROOT
BRANCH   1   2
HETATM    2  C   UNL     1      22.620  48.020  49.107  1.00  0.00     0.192 A 
HETATM    3  N   UNL     1      21.927  49.196  49.223  1.00  0.00    -0.308 N 
HETATM    4  C   UNL     1      20.657  48.928  48.747  1.00  0.00     0.165 A 
HETATM    5  N   UNL     1      20.614  47.660  48.375  1.00  0.00    -0.128 NA
HETATM    6  N   UNL     1      21.840  47.092  48.608  1.00  0.00    -0.122 NA
BRANCH   3   7
HETATM    7  C   UNL     1      22.438  50.479  49.663  1.00  0.00     0.128 C 
HETATM    8  C   UNL     1      23.079  51.282  48.542  1.00  0.00     0.027 C 
ENDBRANCH   3   7
BRANCH   4   9
HETATM    9  C   UNL     1      19.556  49.885  48.623  1.00  0.00     0.018 A 
HETATM   10  C   UNL     1      18.617  50.063  49.662  1.00  0.00    -0.048 A 
HETATM   11  C   UNL     1      18.719  49.307  50.960  1.00  0.00     0.049 C 
HETATM   12  C   UNL     1      17.581  51.000  49.501  1.00  0.00     0.007 A 
HETATM   13  C   UNL     1      17.469  51.747  48.328  1.00  0.00     0.001 A 
HETATM   14  C   UNL     1      18.402  51.582  47.309  1.00  0.00     0.001 A 
HETATM   15  C   UNL     1      19.442  50.664  47.459  1.00  0.00     0.016 A 
ENDBRANCH   4   9
ENDBRANCH   1   2
BRANCH   1  16
HETATM   16  C   UNL     1      24.388  45.997  49.517  1.00  0.00     0.185 C 
BRANCH  16  17
HETATM   17  C   UNL     1      25.781  45.566  49.946  1.00  0.00     0.227 C 
HETATM   18  N   UNL     1      25.826  44.834  51.116  1.00  0.00    -0.358 N 
HETATM   19  H   UNL     1      24.967  44.616  51.604  1.00  0.00     0.162 HD
HETATM   20  O   UNL     1      26.787  45.841  49.296  1.00  0.00    -0.273 OA
BRANCH  18  21
HETATM   21  C   UNL     1      27.068  44.282  51.628  1.00  0.00     0.149 C 
BRANCH  21  22
HETATM   22  C   UNL     1      27.099  44.154  53.154  1.00  0.00     0.195 C 
BRANCH  22  23
HETATM   23  O   UNL     1      28.203  43.313  53.495  1.00  0.00    -0.350 OA
BRANCH  23  24
HETATM   24  C   UNL     1      29.059  43.747  54.467  1.00  0.00     0.068 A 
HETATM   25  C   UNL     1      30.204  43.087  54.914  1.00  0.00     0.037 A 
HETATM   26  C   UNL     1      31.000  43.661  55.913  1.00  0.00     0.003 A 
HETATM   27  C   UNL     1      30.651  44.891  56.472  1.00  0.00     0.000 A 
HETATM   28  C   UNL     1      29.508  45.552  56.031  1.00  0.00     0.003 A 
HETATM   29  C   UNL     1      28.718  44.981  55.033  1.00  0.00     0.037 A 
ENDBRANCH  23  24
ENDBRANCH  22  23
ENDBRANCH  21  22
ENDBRANCH  18  21
ENDBRANCH  16  17
ENDBRANCH   1  16
TORSDOF 9
ENDMDL
MODEL 9
REMARK VINA RESULT:      -8.1      2.685      4.166
REMARK  9 active torsions:
REMARK  status: ('A' for Active; 'I' for Inactive)
REMARK    1  A    between atoms: C_2  and  N_3 
REMARK    2  A    between atoms: C_4  and  S_5 
REMARK    3  A    between atoms: S_5  and  C_6 
REMARK    4  A    between atoms: C_6  and  C_7 
REMARK       I    between atoms: C_7  and  N_8 
REMARK    5  A    between atoms: N_8  and  C_9 
REMARK    6  A    between atoms: C_9  and  C_10 
REMARK    7  A    between atoms: C_10  and  O_11 
REMARK    8  A    between atoms: O_11  and  C_12 
REMARK    9  A    between atoms: C_21  and  C_22 
ROOT
HETATM    1  S   UNL     1      24.745  43.424  49.219  1.00  0.00    -0.081 SA
ENDROOT
BRANCH   1   2
HETATM    2  C   UNL     1      24.914  44.045  50.825  1.00  0.00     0.192 A 
HETATM    3  N   UNL     1      26.093  44.477  51.372  1.00  0.00    -0.308 N 
HETATM    4  C   UNL     1      25.774  44.908  52.646  1.00  0.00     0.165 A 
HETATM    5  N   UNL     1      24.477  44.734  52.830  1.00  0.00    -0.128 NA
HETATM    6  N   UNL     1      23.942  44.185  51.693  1.00  0.00    -0.122 NA
BRANCH   3   7
HETATM    7  C   UNL     1      27.387  44.557  50.725  1.00  0.00     0.128 C 
HETATM    8  C   UNL     1      28.359  43.489  51.201  1.00  0.00     0.027 C 
ENDBRANCH   3   7
BRANCH   4   9
HETATM    9  C   UNL     1      26.695  45.505  53.616  1.00  0.00     0.018 A 
HETATM   10  C   UNL     1      27.428  44.706  54.521  1.00  0.00    -0.048 A 
HETATM   11  C   UNL     1      27.328  43.204  54.512  1.00  0.00     0.049 C 
HETATM   12  C   UNL     1      28.305  45.323  55.429  1.00  0.00     0.007 A 
HETATM   13  C   UNL     1      28.455  46.710  55.449  1.00  0.00     0.001 A 
HETATM   14  C   UNL     1      27.744  47.497  54.548  1.00  0.00     0.001 A 
HETATM   15  C   UNL     1      26.876  46.898  53.634  1.00  0.00     0.016 A 
ENDBRANCH   4   9
ENDBRANCH   1   2
BRANCH   1  16
HETATM   16  C   UNL     1      22.954  43.114  49.186  1.00  0.00     0.185 C 
BRANCH  16  17
HETATM   17  C   UNL     1      22.248  44.291  48.535  1.00  0.00     0.227 C 
HETATM   18  N   UNL     1      22.652  45.531  48.988  1.00  0.00    -0.358 N 
HETATM   19  H   UNL     1      23.377  45.596  49.691  1.00  0.00     0.162 HD
HETATM   20  O   UNL     1      21.390  44.148  47.667  1.00  0.00    -0.273 OA
BRANCH  18  21
HETATM   21  C   UNL     1      22.131  46.763  48.420  1.00  0.00     0.149 C 
BRANCH  21  22
HETATM   22  C   UNL     1      22.599  48.022  49.155  1.00  0.00     0.195 C 
BRANCH  22  23
HETATM   23  O   UNL     1      23.407  48.776  48.248  1.00  0.00    -0.350 OA
BRANCH  23  24
HETATM   24  C   UNL     1      24.729  48.935  48.555  1.00  0.00     0.068 A 
HETATM   25  C   UNL     1      25.589  49.897  48.023  1.00  0.00     0.037 A 
HETATM   26  C   UNL     1      26.924  49.953  48.443  1.00  0.00     0.003 A 
HETATM   27  C   UNL     1      27.404  49.047  49.389  1.00  0.00     0.000 A 
HETATM   28  C   UNL     1      26.550  48.084  49.919  1.00  0.00     0.003 A 
HETATM   29  C   UNL     1      25.220  48.032  49.503  1.00  0.00     0.037 A 
ENDBRANCH  23  24
ENDBRANCH  22  23
ENDBRANCH  21  22
ENDBRANCH  18  21
ENDBRANCH  16  17
ENDBRANCH   1  16
TORSDOF 9
ENDMDL
MODEL 10
REMARK VINA RESULT:      -8.0      2.219      3.577
REMARK  9 active torsions:
REMARK  status: ('A' for Active; 'I' for Inactive)
REMARK    1  A    between atoms: C_2  and  N_3 
REMARK    2  A    between atoms: C_4  and  S_5 
REMARK    3  A    between atoms: S_5  and  C_6 
REMARK    4  A    between atoms: C_6  and  C_7 
REMARK       I    between atoms: C_7  and  N_8 
REMARK    5  A    between atoms: N_8  and  C_9 
REMARK    6  A    between atoms: C_9  and  C_10 
REMARK    7  A    between atoms: C_10  and  O_11 
REMARK    8  A    between atoms: O_11  and  C_12 
REMARK    9  A    between atoms: C_21  and  C_22 
ROOT
HETATM    1  S   UNL     1      23.584  45.159  49.059  1.00  0.00    -0.081 SA
ENDROOT
BRANCH   1   2
HETATM    2  C   UNL     1      24.225  45.010  50.659  1.00  0.00     0.192 A 
HETATM    3  N   UNL     1      25.171  45.841  51.199  1.00  0.00    -0.308 N 
HETATM    4  C   UNL     1      25.374  45.385  52.487  1.00  0.00     0.165 A 
HETATM    5  N   UNL     1      24.588  44.341  52.686  1.00  0.00    -0.128 NA
HETATM    6  N   UNL     1      23.876  44.103  51.538  1.00  0.00    -0.122 NA
BRANCH   3   7
HETATM    7  C   UNL     1      25.768  47.011  50.586  1.00  0.00     0.128 C 
HETATM    8  C   UNL     1      26.964  46.680  49.708  1.00  0.00     0.027 C 
ENDBRANCH   3   7
BRANCH   4   9
HETATM    9  C   UNL     1      26.265  45.976  53.488  1.00  0.00     0.018 A 
HETATM   10  C   UNL     1      27.491  45.366  53.831  1.00  0.00    -0.048 A 
HETATM   11  C   UNL     1      27.961  44.100  53.165  1.00  0.00     0.049 C 
HETATM   12  C   UNL     1      28.317  45.975  54.792  1.00  0.00     0.007 A 
HETATM   13  C   UNL     1      27.937  47.166  55.410  1.00  0.00     0.001 A 
HETATM   14  C   UNL     1      26.736  47.775  55.062  1.00  0.00     0.001 A 
HETATM   15  C   UNL     1      25.910  47.188  54.103  1.00  0.00     0.016 A 
ENDBRANCH   4   9
ENDBRANCH   1   2
BRANCH   1  16
HETATM   16  C   UNL     1      21.990  44.312  49.277  1.00  0.00     0.185 C 
BRANCH  16  17
HETATM   17  C   UNL     1      20.925  45.015  48.450  1.00  0.00     0.227 C 
HETATM   18  N   UNL     1      20.006  45.737  49.184  1.00  0.00    -0.358 N 
HETATM   19  H   UNL     1      20.088  45.776  50.192  1.00  0.00     0.162 HD
HETATM   20  O   UNL     1      20.893  44.949  47.224  1.00  0.00    -0.273 OA
BRANCH  18  21
HETATM   21  C   UNL     1      18.967  46.528  48.547  1.00  0.00     0.149 C 
BRANCH  21  22
HETATM   22  C   UNL     1      19.229  48.036  48.593  1.00  0.00     0.195 C 
BRANCH  22  23
HETATM   23  O   UNL     1      20.216  48.332  47.602  1.00  0.00    -0.350 OA
BRANCH  23  24
HETATM   24  C   UNL     1      21.257  49.141  47.961  1.00  0.00     0.068 A 
HETATM   25  C   UNL     1      21.178  50.502  48.262  1.00  0.00     0.037 A 
HETATM   26  C   UNL     1      22.331  51.206  48.631  1.00  0.00     0.003 A 
HETATM   27  C   UNL     1      23.564  50.556  48.696  1.00  0.00     0.000 A 
HETATM   28  C   UNL     1      23.647  49.199  48.393  1.00  0.00     0.003 A 
HETATM   29  C   UNL     1      22.497  48.498  48.029  1.00  0.00     0.037 A 
ENDBRANCH  23  24
ENDBRANCH  22  23
ENDBRANCH  21  22
ENDBRANCH  18  21
ENDBRANCH  16  17
ENDBRANCH   1  16
TORSDOF 9
ENDMDL
