MODEL 1
REMARK VINA RESULT:      -8.4      0.000      0.000
REMARK  8 active torsions:
REMARK  status: ('A' for Active; 'I' for Inactive)
REMARK    1  A    between atoms: C_2  and  C_3 
REMARK    2  A    between atoms: C_3  and  O_4 
REMARK    3  A    between atoms: O_4  and  C_5 
REMARK    4  A    between atoms: C_6  and  C_7 
REMARK    5  A    between atoms: C_11  and  C_12 
REMARK       I    between atoms: C_12  and  N_13 
REMARK    6  A    between atoms: N_13  and  N_14 
REMARK    7  A    between atoms: C_15  and  C_16 
REMARK    8  A    between atoms: C_18  and  O_19 
ROOT
HETATM    1  C   UNL     1      24.925  45.791  49.884  1.00  0.00     0.092 A 
HETATM    2  N   UNL     1      25.883  45.205  49.153  1.00  0.00    -0.174 NA
HETATM    3  N   UNL     1      26.783  44.787  50.056  1.00  0.00    -0.272 N 
HETATM    4  H   UNL     1      27.626  44.319  49.732  1.00  0.00     0.189 HD
HETATM    5  C   UNL     1      26.423  45.009  51.357  1.00  0.00     0.121 A 
HETATM    6  C   UNL     1      25.224  45.689  51.272  1.00  0.00     0.071 A 
ENDROOT
BRANCH   5   7
HETATM    7  C   UNL     1      27.241  44.548  52.452  1.00  0.00     0.289 C 
HETATM    8  N   UNL     1      27.201  45.355  53.581  1.00  0.00    -0.242 N 
HETATM    9  H   UNL     1      26.628  46.187  53.591  1.00  0.00     0.192 HD
HETATM   10  O   UNL     1      27.885  43.505  52.369  1.00  0.00    -0.264 OA
BRANCH   8  11
HETATM   11  N   UNL     1      27.847  44.975  54.721  1.00  0.00    -0.184 NA
HETATM   12  C   UNL     1      29.012  45.507  54.909  1.00  0.00     0.150 C 
BRANCH  12  13
HETATM   13  C   UNL     1      29.815  45.210  56.112  1.00  0.00    -0.014 A 
HETATM   14  C   UNL     1      30.687  44.118  56.133  1.00  0.00     0.049 A 
HETATM   15  C   UNL     1      31.416  43.858  57.288  1.00  0.00     0.066 A 
HETATM   16  C   UNL     1      31.289  44.668  58.413  1.00  0.00     0.036 A 
HETATM   17  C   UNL     1      30.419  45.759  58.386  1.00  0.00     0.004 A 
HETATM   18  C   UNL     1      29.679  46.034  57.235  1.00  0.00     0.013 A 
BRANCH  15  19
HETATM   19  O   UNL     1      32.278  42.804  57.361  1.00  0.00    -0.361 OA
HETATM   20  H   UNL     1      32.032  42.154  56.681  1.00  0.00     0.217 HD
ENDBRANCH  15  19
ENDBRANCH  12  13
ENDBRANCH   8  11
ENDBRANCH   5   7
BRANCH   1  21
HETATM   21  C   UNL     1      23.718  46.364  49.289  1.00  0.00     0.028 A 
HETATM   22  C   UNL     1      23.573  47.742  49.041  1.00  0.00     0.081 A 
HETATM   23  C   UNL     1      22.378  48.216  48.478  1.00  0.00     0.038 A 
HETATM   24  C   UNL     1      21.346  47.335  48.147  1.00  0.00     0.003 A 
HETATM   25  C   UNL     1      21.489  45.972  48.384  1.00  0.00     0.001 A 
HETATM   26  C   UNL     1      22.668  45.490  48.953  1.00  0.00     0.017 A 
BRANCH  22  27
HETATM   27  O   UNL     1      24.593  48.574  49.432  1.00  0.00    -0.350 OA
BRANCH  27  28
HETATM   28  C   UNL     1      24.866  49.688  48.581  1.00  0.00     0.175 C 
BRANCH  28  29
HETATM   29  C   UNL     1      26.380  49.820  48.440  1.00  0.00     0.022 C 
HETATM   30  C   UNL     1      27.111  48.726  49.199  1.00  0.00     0.007 C 
ENDBRANCH  28  29
ENDBRANCH  27  28
ENDBRANCH  22  27
ENDBRANCH   1  21
TORSDOF 8
ENDMDL
MODEL 2
REMARK VINA RESULT:      -8.4      1.724      2.367
REMARK  8 active torsions:
REMARK  status: ('A' for Active; 'I' for Inactive)
REMARK    1  A    between atoms: C_2  and  C_3 
REMARK    2  A    between atoms: C_3  and  O_4 
REMARK    3  A    between atoms: O_4  and  C_5 
REMARK    4  A    between atoms: C_6  and  C_7 
REMARK    5  A    between atoms: C_11  and  C_12 
REMARK       I    between atoms: C_12  and  N_13 
REMARK    6  A    between atoms: N_13  and  N_14 
REMARK    7  A    between atoms: C_15  and  C_16 
REMARK    8  A    between atoms: C_18  and  O_19 
ROOT
HETATM    1  C   UNL     1      24.096  47.364  50.022  1.00  0.00     0.092 A 
HETATM    2  N   UNL     1      23.777  46.136  49.593  1.00  0.00    -0.174 NA
HETATM    3  N   UNL     1      24.362  45.311  50.473  1.00  0.00    -0.272 N 
HETATM    4  H   UNL     1      24.274  44.307  50.342  1.00  0.00     0.189 HD
HETATM    5  C   UNL     1      24.994  45.947  51.508  1.00  0.00     0.121 A 
HETATM    6  C   UNL     1      24.859  47.290  51.222  1.00  0.00     0.071 A 
ENDROOT
BRANCH   5   7
HETATM    7  C   UNL     1      25.604  45.204  52.584  1.00  0.00     0.289 C 
HETATM    8  N   UNL     1      26.842  45.688  52.987  1.00  0.00    -0.242 N 
HETATM    9  H   UNL     1      27.242  46.500  52.538  1.00  0.00     0.192 HD
HETATM   10  O   UNL     1      25.035  44.245  53.098  1.00  0.00    -0.264 OA
BRANCH   8  11
HETATM   11  N   UNL     1      27.476  45.140  54.065  1.00  0.00    -0.184 NA
HETATM   12  C   UNL     1      28.741  45.398  54.160  1.00  0.00     0.150 C 
BRANCH  12  13
HETATM   13  C   UNL     1      29.551  44.896  55.288  1.00  0.00    -0.014 A 
HETATM   14  C   UNL     1      29.702  45.658  56.450  1.00  0.00     0.049 A 
HETATM   15  C   UNL     1      30.484  45.161  57.487  1.00  0.00     0.066 A 
HETATM   16  C   UNL     1      31.112  43.924  57.381  1.00  0.00     0.036 A 
HETATM   17  C   UNL     1      30.958  43.165  56.219  1.00  0.00     0.004 A 
HETATM   18  C   UNL     1      30.176  43.649  55.169  1.00  0.00     0.013 A 
BRANCH  15  19
HETATM   19  O   UNL     1      30.665  45.866  58.640  1.00  0.00    -0.361 OA
HETATM   20  H   UNL     1      29.993  46.567  58.683  1.00  0.00     0.217 HD
ENDBRANCH  15  19
ENDBRANCH  12  13
ENDBRANCH   8  11
ENDBRANCH   5   7
BRANCH   1  21
HETATM   21  C   UNL     1      23.625  48.580  49.358  1.00  0.00     0.028 A 
HETATM   22  C   UNL     1      24.441  49.341  48.499  1.00  0.00     0.081 A 
HETATM   23  C   UNL     1      23.919  50.502  47.909  1.00  0.00     0.038 A 
HETATM   24  C   UNL     1      22.600  50.896  48.151  1.00  0.00     0.003 A 
HETATM   25  C   UNL     1      21.790  50.142  48.993  1.00  0.00     0.001 A 
HETATM   26  C   UNL     1      22.300  48.991  49.594  1.00  0.00     0.017 A 
BRANCH  22  27
HETATM   27  O   UNL     1      25.744  48.944  48.334  1.00  0.00    -0.350 OA
BRANCH  27  28
HETATM   28  C   UNL     1      26.741  49.956  48.485  1.00  0.00     0.175 C 
BRANCH  28  29
HETATM   29  C   UNL     1      27.965  49.325  49.141  1.00  0.00     0.022 C 
HETATM   30  C   UNL     1      27.908  47.807  49.093  1.00  0.00     0.007 C 
ENDBRANCH  28  29
ENDBRANCH  27  28
ENDBRANCH  22  27
ENDBRANCH   1  21
TORSDOF 8
ENDMDL
MODEL 3
REMARK VINA RESULT:      -8.2      3.134     10.059
REMARK  8 active torsions:
REMARK  status: ('A' for Active; 'I' for Inactive)
REMARK    1  A    between atoms: C_2  and  C_3 
REMARK    2  A    between atoms: C_3  and  O_4 
REMARK    3  A    between atoms: O_4  and  C_5 
REMARK    4  A    between atoms: C_6  and  C_7 
REMARK    5  A    between atoms: C_11  and  C_12 
REMARK       I    between atoms: C_12  and  N_13 
REMARK    6  A    between atoms: N_13  and  N_14 
REMARK    7  A    between atoms: C_15  and  C_16 
REMARK    8  A    between atoms: C_18  and  O_19 
ROOT
HETATM    1  C   UNL     1      26.194  45.083  51.894  1.00  0.00     0.092 A 
HETATM    2  N   UNL     1      24.922  44.665  51.847  1.00  0.00    -0.174 NA
HETATM    3  N   UNL     1      24.272  45.644  51.200  1.00  0.00    -0.272 N 
HETATM    4  H   UNL     1      23.269  45.559  51.057  1.00  0.00     0.189 HD
HETATM    5  C   UNL     1      25.077  46.657  50.756  1.00  0.00     0.121 A 
HETATM    6  C   UNL     1      26.335  46.329  51.220  1.00  0.00     0.071 A 
ENDROOT
BRANCH   5   7
HETATM    7  C   UNL     1      24.548  47.747  49.973  1.00  0.00     0.289 C 
HETATM    8  N   UNL     1      23.184  47.669  49.725  1.00  0.00    -0.242 N 
HETATM    9  H   UNL     1      22.644  46.896  50.088  1.00  0.00     0.192 HD
HETATM   10  O   UNL     1      25.268  48.668  49.596  1.00  0.00    -0.264 OA
BRANCH   8  11
HETATM   11  N   UNL     1      22.541  48.691  49.087  1.00  0.00    -0.184 NA
HETATM   12  C   UNL     1      21.259  48.740  49.260  1.00  0.00     0.150 C 
BRANCH  12  13
HETATM   13  C   UNL     1      20.437  49.806  48.653  1.00  0.00    -0.014 A 
HETATM   14  C   UNL     1      19.827  49.613  47.410  1.00  0.00     0.049 A 
HETATM   15  C   UNL     1      19.072  50.643  46.861  1.00  0.00     0.066 A 
HETATM   16  C   UNL     1      18.917  51.853  47.530  1.00  0.00     0.036 A 
HETATM   17  C   UNL     1      19.526  52.041  48.772  1.00  0.00     0.004 A 
HETATM   18  C   UNL     1      20.288  51.017  49.338  1.00  0.00     0.013 A 
BRANCH  15  19
HETATM   19  O   UNL     1      18.459  50.506  45.650  1.00  0.00    -0.361 OA
HETATM   20  H   UNL     1      19.020  49.954  45.079  1.00  0.00     0.217 HD
ENDBRANCH  15  19
ENDBRANCH  12  13
ENDBRANCH   8  11
ENDBRANCH   5   7
BRANCH   1  21
HETATM   21  C   UNL     1      27.265  44.286  52.493  1.00  0.00     0.028 A 
HETATM   22  C   UNL     1      27.719  44.491  53.810  1.00  0.00     0.081 A 
HETATM   23  C   UNL     1      28.759  43.693  54.309  1.00  0.00     0.038 A 
HETATM   24  C   UNL     1      29.333  42.692  53.520  1.00  0.00     0.003 A 
HETATM   25  C   UNL     1      28.881  42.482  52.222  1.00  0.00     0.001 A 
HETATM   26  C   UNL     1      27.855  43.276  51.711  1.00  0.00     0.017 A 
BRANCH  22  27
HETATM   27  O   UNL     1      27.162  45.521  54.527  1.00  0.00    -0.350 OA
BRANCH  27  28
HETATM   28  C   UNL     1      28.073  46.415  55.167  1.00  0.00     0.175 C 
BRANCH  28  29
HETATM   29  C   UNL     1      27.572  47.840  54.952  1.00  0.00     0.022 C 
HETATM   30  C   UNL     1      26.101  47.867  54.573  1.00  0.00     0.007 C 
ENDBRANCH  28  29
ENDBRANCH  27  28
ENDBRANCH  22  27
ENDBRANCH   1  21
TORSDOF 8
ENDMDL
MODEL 4
REMARK VINA RESULT:      -8.1      5.391      9.742
REMARK  8 active torsions:
REMARK  status: ('A' for Active; 'I' for Inactive)
REMARK    1  A    between atoms: C_2  and  C_3 
REMARK    2  A    between atoms: C_3  and  O_4 
REMARK    3  A    between atoms: O_4  and  C_5 
REMARK    4  A    between atoms: C_6  and  C_7 
REMARK    5  A    between atoms: C_11  and  C_12 
REMARK       I    between atoms: C_12  and  N_13 
REMARK    6  A    between atoms: N_13  and  N_14 
REMARK    7  A    between atoms: C_15  and  C_16 
REMARK    8  A    between atoms: C_18  and  O_19 
ROOT
HETATM    1  C   UNL     1      29.916  43.192  54.457  1.00  0.00     0.092 A 
HETATM    2  N   UNL     1      30.854  42.992  53.521  1.00  0.00    -0.174 NA
HETATM    3  N   UNL     1      30.237  42.262  52.581  1.00  0.00    -0.272 N 
HETATM    4  H   UNL     1      30.763  41.965  51.763  1.00  0.00     0.189 HD
HETATM    5  C   UNL     1      28.910  42.034  52.824  1.00  0.00     0.121 A 
HETATM    6  C   UNL     1      28.681  42.608  54.058  1.00  0.00     0.071 A 
ENDROOT
BRANCH   5   7
HETATM    7  C   UNL     1      28.082  41.334  51.872  1.00  0.00     0.289 C 
HETATM    8  N   UNL     1      28.775  40.480  51.024  1.00  0.00    -0.242 N 
HETATM    9  H   UNL     1      29.778  40.384  51.107  1.00  0.00     0.192 HD
HETATM   10  O   UNL     1      26.863  41.483  51.858  1.00  0.00    -0.264 OA
BRANCH   8  11
HETATM   11  N   UNL     1      28.097  39.681  50.149  1.00  0.00    -0.184 NA
HETATM   12  C   UNL     1      28.801  38.760  49.573  1.00  0.00     0.150 C 
BRANCH  12  13
HETATM   13  C   UNL     1      28.197  37.804  48.623  1.00  0.00    -0.014 A 
HETATM   14  C   UNL     1      28.750  37.618  47.353  1.00  0.00     0.049 A 
HETATM   15  C   UNL     1      28.146  36.721  46.478  1.00  0.00     0.066 A 
HETATM   16  C   UNL     1      27.008  36.013  46.851  1.00  0.00     0.036 A 
HETATM   17  C   UNL     1      26.460  36.201  48.121  1.00  0.00     0.004 A 
HETATM   18  C   UNL     1      27.053  37.097  49.012  1.00  0.00     0.013 A 
BRANCH  15  19
HETATM   19  O   UNL     1      28.645  36.505  45.227  1.00  0.00    -0.361 OA
HETATM   20  H   UNL     1      29.076  37.321  44.920  1.00  0.00     0.217 HD
ENDBRANCH  15  19
ENDBRANCH  12  13
ENDBRANCH   8  11
ENDBRANCH   5   7
BRANCH   1  21
HETATM   21  C   UNL     1      30.161  43.984  55.663  1.00  0.00     0.028 A 
HETATM   22  C   UNL     1      29.562  45.240  55.882  1.00  0.00     0.081 A 
HETATM   23  C   UNL     1      29.856  45.944  57.059  1.00  0.00     0.038 A 
HETATM   24  C   UNL     1      30.719  45.404  58.017  1.00  0.00     0.003 A 
HETATM   25  C   UNL     1      31.305  44.161  57.807  1.00  0.00     0.001 A 
HETATM   26  C   UNL     1      31.029  43.456  56.636  1.00  0.00     0.017 A 
BRANCH  22  27
HETATM   27  O   UNL     1      28.765  45.751  54.888  1.00  0.00    -0.350 OA
BRANCH  27  28
HETATM   28  C   UNL     1      28.150  47.012  55.154  1.00  0.00     0.175 C 
BRANCH  28  29
HETATM   29  C   UNL     1      26.883  47.111  54.309  1.00  0.00     0.022 C 
HETATM   30  C   UNL     1      26.576  45.803  53.601  1.00  0.00     0.007 C 
ENDBRANCH  28  29
ENDBRANCH  27  28
ENDBRANCH  22  27
ENDBRANCH   1  21
TORSDOF 8
ENDMDL
MODEL 5
REMARK VINA RESULT:      -7.9      3.176     10.253
REMARK  8 active torsions:
REMARK  status: ('A' for Active; 'I' for Inactive)
REMARK    1  A    between atoms: C_2  and  C_3 
REMARK    2  A    between atoms: C_3  and  O_4 
REMARK    3  A    between atoms: O_4  and  C_5 
REMARK    4  A    between atoms: C_6  and  C_7 
REMARK    5  A    between atoms: C_11  and  C_12 
REMARK       I    between atoms: C_12  and  N_13 
REMARK    6  A    between atoms: N_13  and  N_14 
REMARK    7  A    between atoms: C_15  and  C_16 
REMARK    8  A    between atoms: C_18  and  O_19 
ROOT
HETATM    1  C   UNL     1      26.036  45.406  52.004  1.00  0.00     0.092 A 
HETATM    2  N   UNL     1      24.858  44.794  51.824  1.00  0.00    -0.174 NA
HETATM    3  N   UNL     1      24.142  45.657  51.089  1.00  0.00    -0.272 N 
HETATM    4  H   UNL     1      23.187  45.417  50.837  1.00  0.00     0.189 HD
HETATM    5  C   UNL     1      24.825  46.783  50.716  1.00  0.00     0.121 A 
HETATM    6  C   UNL     1      26.058  46.656  51.324  1.00  0.00     0.071 A 
ENDROOT
BRANCH   5   7
HETATM    7  C   UNL     1      24.225  47.775  49.857  1.00  0.00     0.289 C 
HETATM    8  N   UNL     1      22.920  47.493  49.475  1.00  0.00    -0.242 N 
HETATM    9  H   UNL     1      22.465  46.652  49.802  1.00  0.00     0.192 HD
HETATM   10  O   UNL     1      24.838  48.788  49.532  1.00  0.00    -0.264 OA
BRANCH   8  11
HETATM   11  N   UNL     1      22.205  48.401  48.750  1.00  0.00    -0.184 NA
HETATM   12  C   UNL     1      21.202  48.942  49.364  1.00  0.00     0.150 C 
BRANCH  12  13
HETATM   13  C   UNL     1      20.354  49.962  48.714  1.00  0.00    -0.014 A 
HETATM   14  C   UNL     1      19.690  49.677  47.517  1.00  0.00     0.049 A 
HETATM   15  C   UNL     1      18.912  50.665  46.925  1.00  0.00     0.066 A 
HETATM   16  C   UNL     1      18.789  51.924  47.505  1.00  0.00     0.036 A 
HETATM   17  C   UNL     1      19.453  52.204  48.701  1.00  0.00     0.004 A 
HETATM   18  C   UNL     1      20.237  51.223  49.310  1.00  0.00     0.013 A 
BRANCH  15  19
HETATM   19  O   UNL     1      18.246  50.439  45.756  1.00  0.00    -0.361 OA
HETATM   20  H   UNL     1      18.411  49.522  45.478  1.00  0.00     0.217 HD
ENDBRANCH  15  19
ENDBRANCH  12  13
ENDBRANCH   8  11
ENDBRANCH   5   7
BRANCH   1  21
HETATM   21  C   UNL     1      27.143  44.788  52.735  1.00  0.00     0.028 A 
HETATM   22  C   UNL     1      27.929  43.754  52.191  1.00  0.00     0.081 A 
HETATM   23  C   UNL     1      28.966  43.205  52.960  1.00  0.00     0.038 A 
HETATM   24  C   UNL     1      29.233  43.684  54.246  1.00  0.00     0.003 A 
HETATM   25  C   UNL     1      28.463  44.709  54.782  1.00  0.00     0.001 A 
HETATM   26  C   UNL     1      27.422  45.257  54.032  1.00  0.00     0.017 A 
BRANCH  22  27
HETATM   27  O   UNL     1      27.595  43.282  50.947  1.00  0.00    -0.350 OA
BRANCH  27  28
HETATM   28  C   UNL     1      27.743  41.876  50.740  1.00  0.00     0.175 C 
BRANCH  28  29
HETATM   29  C   UNL     1      26.385  41.217  50.962  1.00  0.00     0.022 C 
HETATM   30  C   UNL     1      25.346  41.725  49.977  1.00  0.00     0.007 C 
ENDBRANCH  28  29
ENDBRANCH  27  28
ENDBRANCH  22  27
ENDBRANCH   1  21
TORSDOF 8
ENDMDL
MODEL 6
REMARK VINA RESULT:      -7.9      2.078      2.662
REMARK  8 active torsions:
REMARK  status: ('A' for Active; 'I' for Inactive)
REMARK    1  A    between atoms: C_2  and  C_3 
REMARK    2  A    between atoms: C_3  and  O_4 
REMARK    3  A    between atoms: O_4  and  C_5 
REMARK    4  A    between atoms: C_6  and  C_7 
REMARK    5  A    between atoms: C_11  and  C_12 
REMARK       I    between atoms: C_12  and  N_13 
REMARK    6  A    between atoms: N_13  and  N_14 
REMARK    7  A    between atoms: C_15  and  C_16 
REMARK    8  A    between atoms: C_18  and  O_19 
ROOT
HETATM    1  C   UNL     1      24.564  46.512  50.032  1.00  0.00     0.092 A 
HETATM    2  N   UNL     1      25.464  47.489  49.857  1.00  0.00    -0.174 NA
HETATM    3  N   UNL     1      26.127  47.545  51.022  1.00  0.00    -0.272 N 
HETATM    4  H   UNL     1      26.862  48.238  51.138  1.00  0.00     0.189 HD
HETATM    5  C   UNL     1      25.749  46.596  51.932  1.00  0.00     0.121 A 
HETATM    6  C   UNL     1      24.710  45.924  51.321  1.00  0.00     0.071 A 
ENDROOT
BRANCH   5   7
HETATM    7  C   UNL     1      26.418  46.468  53.204  1.00  0.00     0.289 C 
HETATM    8  N   UNL     1      26.838  45.179  53.506  1.00  0.00    -0.242 N 
HETATM    9  H   UNL     1      26.672  44.424  52.856  1.00  0.00     0.192 HD
HETATM   10  O   UNL     1      26.610  47.445  53.923  1.00  0.00    -0.264 OA
BRANCH   8  11
HETATM   11  N   UNL     1      27.576  44.943  54.630  1.00  0.00    -0.184 NA
HETATM   12  C   UNL     1      28.844  44.765  54.440  1.00  0.00     0.150 C 
BRANCH  12  13
HETATM   13  C   UNL     1      29.771  44.527  55.565  1.00  0.00    -0.014 A 
HETATM   14  C   UNL     1      29.875  45.452  56.608  1.00  0.00     0.049 A 
HETATM   15  C   UNL     1      30.769  45.203  57.644  1.00  0.00     0.066 A 
HETATM   16  C   UNL     1      31.553  44.054  57.653  1.00  0.00     0.036 A 
HETATM   17  C   UNL     1      31.445  43.132  56.610  1.00  0.00     0.004 A 
HETATM   18  C   UNL     1      30.553  43.366  55.562  1.00  0.00     0.013 A 
BRANCH  15  19
HETATM   19  O   UNL     1      30.910  46.075  58.683  1.00  0.00    -0.361 OA
HETATM   20  H   UNL     1      31.818  46.422  58.676  1.00  0.00     0.217 HD
ENDBRANCH  15  19
ENDBRANCH  12  13
ENDBRANCH   8  11
ENDBRANCH   5   7
BRANCH   1  21
HETATM   21  C   UNL     1      23.641  46.091  48.978  1.00  0.00     0.028 A 
HETATM   22  C   UNL     1      22.629  46.930  48.474  1.00  0.00     0.081 A 
HETATM   23  C   UNL     1      21.776  46.448  47.470  1.00  0.00     0.038 A 
HETATM   24  C   UNL     1      21.932  45.157  46.958  1.00  0.00     0.003 A 
HETATM   25  C   UNL     1      22.935  44.329  47.449  1.00  0.00     0.001 A 
HETATM   26  C   UNL     1      23.784  44.792  48.454  1.00  0.00     0.017 A 
BRANCH  22  27
HETATM   27  O   UNL     1      22.481  48.169  49.045  1.00  0.00    -0.350 OA
BRANCH  27  28
HETATM   28  C   UNL     1      21.163  48.720  49.035  1.00  0.00     0.175 C 
BRANCH  28  29
HETATM   29  C   UNL     1      21.244  50.158  49.540  1.00  0.00     0.022 C 
HETATM   30  C   UNL     1      21.688  51.113  48.446  1.00  0.00     0.007 C 
ENDBRANCH  28  29
ENDBRANCH  27  28
ENDBRANCH  22  27
ENDBRANCH   1  21
TORSDOF 8
ENDMDL
MODEL 7
REMARK VINA RESULT:      -7.9      5.453      7.343
REMARK  8 active torsions:
REMARK  status: ('A' for Active; 'I' for Inactive)
REMARK    1  A    between atoms: C_2  and  C_3 
REMARK    2  A    between atoms: C_3  and  O_4 
REMARK    3  A    between atoms: O_4  and  C_5 
REMARK    4  A    between atoms: C_6  and  C_7 
REMARK    5  A    between atoms: C_11  and  C_12 
REMARK       I    between atoms: C_12  and  N_13 
REMARK    6  A    between atoms: N_13  and  N_14 
REMARK    7  A    between atoms: C_15  and  C_16 
REMARK    8  A    between atoms: C_18  and  O_19 
ROOT
HETATM    1  C   UNL     1      27.236  39.704  49.183  1.00  0.00     0.092 A 
HETATM    2  N   UNL     1      26.226  39.282  49.956  1.00  0.00    -0.174 NA
HETATM    3  N   UNL     1      26.259  40.094  51.023  1.00  0.00    -0.272 N 
HETATM    4  H   UNL     1      25.585  39.953  51.771  1.00  0.00     0.189 HD
HETATM    5  C   UNL     1      27.204  41.081  50.952  1.00  0.00     0.121 A 
HETATM    6  C   UNL     1      27.875  40.833  49.771  1.00  0.00     0.071 A 
ENDROOT
BRANCH   5   7
HETATM    7  C   UNL     1      27.318  42.087  51.980  1.00  0.00     0.289 C 
HETATM    8  N   UNL     1      27.864  41.631  53.173  1.00  0.00    -0.242 N 
HETATM    9  H   UNL     1      28.148  40.666  53.267  1.00  0.00     0.192 HD
HETATM   10  O   UNL     1      26.977  43.248  51.774  1.00  0.00    -0.264 OA
BRANCH   8  11
HETATM   11  N   UNL     1      28.122  42.505  54.189  1.00  0.00    -0.184 NA
HETATM   12  C   UNL     1      29.361  42.856  54.323  1.00  0.00     0.150 C 
BRANCH  12  13
HETATM   13  C   UNL     1      29.786  43.817  55.361  1.00  0.00    -0.014 A 
HETATM   14  C   UNL     1      30.772  43.471  56.289  1.00  0.00     0.049 A 
HETATM   15  C   UNL     1      31.138  44.395  57.262  1.00  0.00     0.066 A 
HETATM   16  C   UNL     1      30.537  45.649  57.321  1.00  0.00     0.036 A 
HETATM   17  C   UNL     1      29.553  45.990  56.391  1.00  0.00     0.004 A 
HETATM   18  C   UNL     1      29.175  45.075  55.408  1.00  0.00     0.013 A 
BRANCH  15  19
HETATM   19  O   UNL     1      32.093  44.106  58.192  1.00  0.00    -0.361 OA
HETATM   20  H   UNL     1      31.654  43.908  59.036  1.00  0.00     0.217 HD
ENDBRANCH  15  19
ENDBRANCH  12  13
ENDBRANCH   8  11
ENDBRANCH   5   7
BRANCH   1  21
HETATM   21  C   UNL     1      27.539  39.106  47.883  1.00  0.00     0.028 A 
HETATM   22  C   UNL     1      28.384  37.989  47.739  1.00  0.00     0.081 A 
HETATM   23  C   UNL     1      28.635  37.480  46.456  1.00  0.00     0.038 A 
HETATM   24  C   UNL     1      28.044  38.059  45.329  1.00  0.00     0.003 A 
HETATM   25  C   UNL     1      27.204  39.158  45.470  1.00  0.00     0.001 A 
HETATM   26  C   UNL     1      26.954  39.679  46.739  1.00  0.00     0.017 A 
BRANCH  22  27
HETATM   27  O   UNL     1      28.983  37.488  48.869  1.00  0.00    -0.350 OA
BRANCH  27  28
HETATM   28  C   UNL     1      30.227  38.081  49.243  1.00  0.00     0.175 C 
BRANCH  28  29
HETATM   29  C   UNL     1      30.333  38.045  50.765  1.00  0.00     0.022 C 
HETATM   30  C   UNL     1      29.711  36.785  51.341  1.00  0.00     0.007 C 
ENDBRANCH  28  29
ENDBRANCH  27  28
ENDBRANCH  22  27
ENDBRANCH   1  21
TORSDOF 8
ENDMDL
MODEL 8
REMARK VINA RESULT:      -7.7      2.707     10.151
REMARK  8 active torsions:
REMARK  status: ('A' for Active; 'I' for Inactive)
REMARK    1  A    between atoms: C_2  and  C_3 
REMARK    2  A    between atoms: C_3  and  O_4 
REMARK    3  A    between atoms: O_4  and  C_5 
REMARK    4  A    between atoms: C_6  and  C_7 
REMARK    5  A    between atoms: C_11  and  C_12 
REMARK       I    between atoms: C_12  and  N_13 
REMARK    6  A    between atoms: N_13  and  N_14 
REMARK    7  A    between atoms: C_15  and  C_16 
REMARK    8  A    between atoms: C_18  and  O_19 
ROOT
HETATM    1  C   UNL     1      26.432  44.763  52.236  1.00  0.00     0.092 A 
HETATM    2  N   UNL     1      25.209  44.221  52.305  1.00  0.00    -0.174 NA
HETATM    3  N   UNL     1      24.425  45.078  51.635  1.00  0.00    -0.272 N 
HETATM    4  H   UNL     1      23.429  44.885  51.566  1.00  0.00     0.189 HD
HETATM    5  C   UNL     1      25.094  46.127  51.064  1.00  0.00     0.121 A 
HETATM    6  C   UNL     1      26.405  45.959  51.465  1.00  0.00     0.071 A 
ENDROOT
BRANCH   5   7
HETATM    7  C   UNL     1      24.410  47.095  50.242  1.00  0.00     0.289 C 
HETATM    8  N   UNL     1      23.317  46.592  49.550  1.00  0.00    -0.242 N 
HETATM    9  H   UNL     1      23.054  45.621  49.648  1.00  0.00     0.192 HD
HETATM   10  O   UNL     1      24.775  48.267  50.203  1.00  0.00    -0.264 OA
BRANCH   8  11
HETATM   11  N   UNL     1      22.522  47.428  48.820  1.00  0.00    -0.184 NA
HETATM   12  C   UNL     1      21.440  46.899  48.344  1.00  0.00     0.150 C 
BRANCH  12  13
HETATM   13  C   UNL     1      20.471  47.689  47.559  1.00  0.00    -0.014 A 
HETATM   14  C   UNL     1      20.247  49.037  47.855  1.00  0.00     0.049 A 
HETATM   15  C   UNL     1      19.316  49.747  47.105  1.00  0.00     0.066 A 
HETATM   16  C   UNL     1      18.613  49.136  46.071  1.00  0.00     0.036 A 
HETATM   17  C   UNL     1      18.841  47.791  45.778  1.00  0.00     0.004 A 
HETATM   18  C   UNL     1      19.772  47.063  46.521  1.00  0.00     0.013 A 
BRANCH  15  19
HETATM   19  O   UNL     1      19.059  51.063  47.355  1.00  0.00    -0.361 OA
HETATM   20  H   UNL     1      19.853  51.466  47.745  1.00  0.00     0.217 HD
ENDBRANCH  15  19
ENDBRANCH  12  13
ENDBRANCH   8  11
ENDBRANCH   5   7
BRANCH   1  21
HETATM   21  C   UNL     1      27.613  44.123  52.817  1.00  0.00     0.028 A 
HETATM   22  C   UNL     1      28.120  44.472  54.083  1.00  0.00     0.081 A 
HETATM   23  C   UNL     1      29.264  43.820  54.567  1.00  0.00     0.038 A 
HETATM   24  C   UNL     1      29.891  42.824  53.814  1.00  0.00     0.003 A 
HETATM   25  C   UNL     1      29.388  42.472  52.566  1.00  0.00     0.001 A 
HETATM   26  C   UNL     1      28.257  43.120  52.070  1.00  0.00     0.017 A 
BRANCH  22  27
HETATM   27  O   UNL     1      27.502  45.493  54.762  1.00  0.00    -0.350 OA
BRANCH  27  28
HETATM   28  C   UNL     1      28.343  46.558  55.208  1.00  0.00     0.175 C 
BRANCH  28  29
HETATM   29  C   UNL     1      27.651  47.879  54.882  1.00  0.00     0.022 C 
HETATM   30  C   UNL     1      26.162  47.690  54.646  1.00  0.00     0.007 C 
ENDBRANCH  28  29
ENDBRANCH  27  28
ENDBRANCH  22  27
ENDBRANCH   1  21
TORSDOF 8
ENDMDL
MODEL 9
REMARK VINA RESULT:      -7.6      1.519      3.328
REMARK  8 active torsions:
REMARK  status: ('A' for Active; 'I' for Inactive)
REMARK    1  A    between atoms: C_2  and  C_3 
REMARK    2  A    between atoms: C_3  and  O_4 
REMARK    3  A    between atoms: O_4  and  C_5 
REMARK    4  A    between atoms: C_6  and  C_7 
REMARK    5  A    between atoms: C_11  and  C_12 
REMARK       I    between atoms: C_12  and  N_13 
REMARK    6  A    between atoms: N_13  and  N_14 
REMARK    7  A    between atoms: C_15  and  C_16 
REMARK    8  A    between atoms: C_18  and  O_19 
ROOT
HETATM    1  C   UNL     1      24.481  46.945  49.777  1.00  0.00     0.092 A 
HETATM    2  N   UNL     1      23.848  45.772  49.916  1.00  0.00    -0.174 NA
HETATM    3  N   UNL     1      24.712  45.005  50.597  1.00  0.00    -0.272 N 
HETATM    4  H   UNL     1      24.456  44.045  50.811  1.00  0.00     0.189 HD
HETATM    5  C   UNL     1      25.860  45.647  50.976  1.00  0.00     0.121 A 
HETATM    6  C   UNL     1      25.747  46.910  50.429  1.00  0.00     0.071 A 
ENDROOT
BRANCH   5   7
HETATM    7  C   UNL     1      26.857  44.988  51.785  1.00  0.00     0.289 C 
HETATM    8  N   UNL     1      26.863  45.373  53.119  1.00  0.00    -0.242 N 
HETATM    9  H   UNL     1      26.201  46.059  53.453  1.00  0.00     0.192 HD
HETATM   10  O   UNL     1      27.604  44.139  51.306  1.00  0.00    -0.264 OA
BRANCH   8  11
HETATM   11  N   UNL     1      27.686  44.748  54.011  1.00  0.00    -0.184 NA
HETATM   12  C   UNL     1      28.596  45.494  54.549  1.00  0.00     0.150 C 
BRANCH  12  13
HETATM   13  C   UNL     1      29.540  44.962  55.552  1.00  0.00    -0.014 A 
HETATM   14  C   UNL     1      29.792  45.664  56.735  1.00  0.00     0.049 A 
HETATM   15  C   UNL     1      30.698  45.141  57.650  1.00  0.00     0.066 A 
HETATM   16  C   UNL     1      31.351  43.937  57.404  1.00  0.00     0.036 A 
HETATM   17  C   UNL     1      31.096  43.239  56.223  1.00  0.00     0.004 A 
HETATM   18  C   UNL     1      30.189  43.750  55.293  1.00  0.00     0.013 A 
BRANCH  15  19
HETATM   19  O   UNL     1      30.980  45.788  58.818  1.00  0.00    -0.361 OA
HETATM   20  H   UNL     1      31.115  45.124  59.515  1.00  0.00     0.217 HD
ENDBRANCH  15  19
ENDBRANCH  12  13
ENDBRANCH   8  11
ENDBRANCH   5   7
BRANCH   1  21
HETATM   21  C   UNL     1      23.872  48.097  49.112  1.00  0.00     0.028 A 
HETATM   22  C   UNL     1      22.504  48.148  48.782  1.00  0.00     0.081 A 
HETATM   23  C   UNL     1      21.997  49.284  48.134  1.00  0.00     0.038 A 
HETATM   24  C   UNL     1      22.829  50.365  47.831  1.00  0.00     0.003 A 
HETATM   25  C   UNL     1      24.179  50.321  48.163  1.00  0.00     0.001 A 
HETATM   26  C   UNL     1      24.698  49.193  48.798  1.00  0.00     0.017 A 
BRANCH  22  27
HETATM   27  O   UNL     1      21.738  47.041  49.051  1.00  0.00    -0.350 OA
BRANCH  27  28
HETATM   28  C   UNL     1      21.027  46.477  47.949  1.00  0.00     0.175 C 
BRANCH  28  29
HETATM   29  C   UNL     1      20.059  45.430  48.491  1.00  0.00     0.022 C 
HETATM   30  C   UNL     1      18.848  45.264  47.590  1.00  0.00     0.007 C 
ENDBRANCH  28  29
ENDBRANCH  27  28
ENDBRANCH  22  27
ENDBRANCH   1  21
TORSDOF 8
ENDMDL
MODEL 10
REMARK VINA RESULT:      -7.5      3.189      5.710
REMARK  8 active torsions:
REMARK  status: ('A' for Active; 'I' for Inactive)
REMARK    1  A    between atoms: C_2  and  C_3 
REMARK    2  A    between atoms: C_3  and  O_4 
REMARK    3  A    between atoms: O_4  and  C_5 
REMARK    4  A    between atoms: C_6  and  C_7 
REMARK    5  A    between atoms: C_11  and  C_12 
REMARK       I    between atoms: C_12  and  N_13 
REMARK    6  A    between atoms: N_13  and  N_14 
REMARK    7  A    between atoms: C_15  and  C_16 
REMARK    8  A    between atoms: C_18  and  O_19 
ROOT
HETATM    1  C   UNL     1      21.268  49.101  48.661  1.00  0.00     0.092 A 
HETATM    2  N   UNL     1      20.986  47.801  48.825  1.00  0.00    -0.174 NA
HETATM    3  N   UNL     1      22.141  47.258  49.236  1.00  0.00    -0.272 N 
HETATM    4  H   UNL     1      22.181  46.258  49.412  1.00  0.00     0.189 HD
HETATM    5  C   UNL     1      23.155  48.160  49.420  1.00  0.00     0.121 A 
HETATM    6  C   UNL     1      22.618  49.369  49.025  1.00  0.00     0.071 A 
ENDROOT
BRANCH   5   7
HETATM    7  C   UNL     1      24.438  47.751  49.937  1.00  0.00     0.289 C 
HETATM    8  N   UNL     1      24.429  46.532  50.601  1.00  0.00    -0.242 N 
HETATM    9  H   UNL     1      23.571  46.005  50.688  1.00  0.00     0.192 HD
HETATM   10  O   UNL     1      25.442  48.436  49.760  1.00  0.00    -0.264 OA
BRANCH   8  11
HETATM   11  N   UNL     1      25.598  45.982  51.045  1.00  0.00    -0.184 NA
HETATM   12  C   UNL     1      25.644  45.713  52.310  1.00  0.00     0.150 C 
BRANCH  12  13
HETATM   13  C   UNL     1      26.833  45.092  52.927  1.00  0.00    -0.014 A 
HETATM   14  C   UNL     1      27.577  44.135  52.230  1.00  0.00     0.049 A 
HETATM   15  C   UNL     1      28.682  43.559  52.847  1.00  0.00     0.066 A 
HETATM   16  C   UNL     1      29.052  43.921  54.138  1.00  0.00     0.036 A 
HETATM   17  C   UNL     1      28.307  44.878  54.830  1.00  0.00     0.004 A 
HETATM   18  C   UNL     1      27.195  45.467  54.226  1.00  0.00     0.013 A 
BRANCH  15  19
HETATM   19  O   UNL     1      29.440  42.619  52.211  1.00  0.00    -0.361 OA
HETATM   20  H   UNL     1      30.180  42.373  52.792  1.00  0.00     0.217 HD
ENDBRANCH  15  19
ENDBRANCH  12  13
ENDBRANCH   8  11
ENDBRANCH   5   7
BRANCH   1  21
HETATM   21  C   UNL     1      20.263  50.080  48.246  1.00  0.00     0.028 A 
HETATM   22  C   UNL     1      19.299  49.807  47.257  1.00  0.00     0.081 A 
HETATM   23  C   UNL     1      18.376  50.804  46.906  1.00  0.00     0.038 A 
HETATM   24  C   UNL     1      18.394  52.050  47.538  1.00  0.00     0.003 A 
HETATM   25  C   UNL     1      19.340  52.319  48.521  1.00  0.00     0.001 A 
HETATM   26  C   UNL     1      20.270  51.341  48.872  1.00  0.00     0.017 A 
BRANCH  22  27
HETATM   27  O   UNL     1      19.354  48.589  46.627  1.00  0.00    -0.350 OA
BRANCH  27  28
HETATM   28  C   UNL     1      18.109  48.041  46.192  1.00  0.00     0.175 C 
BRANCH  28  29
HETATM   29  C   UNL     1      17.922  46.686  46.869  1.00  0.00     0.022 C 
HETATM   30  C   UNL     1      17.433  46.836  48.299  1.00  0.00     0.007 C 
ENDBRANCH  28  29
ENDBRANCH  27  28
ENDBRANCH  22  27
ENDBRANCH   1  21
TORSDOF 8
ENDMDL
