MODEL 1
REMARK VINA RESULT:     -10.3      0.000      0.000
REMARK  3 active torsions:
REMARK  status: ('A' for Active; 'I' for Inactive)
REMARK    1  A    between atoms: C_2  and  C_3 
REMARK    2  A    between atoms: C_7  and  C_8 
REMARK       I    between atoms: C_8  and  N_9 
REMARK    3  A    between atoms: N_9  and  N_10 
ROOT
HETATM    1  C   UNL     1      29.589  42.933  53.456  1.00  0.00     0.272 C 
HETATM    2  N   UNL     1      28.627  41.946  53.315  1.00  0.00    -0.242 N 
HETATM    3  O   UNL     1      30.671  42.947  52.873  1.00  0.00    -0.266 OA
HETATM    4  H   UNL     1      27.747  41.970  53.831  1.00  0.00     0.192 HD
ENDROOT
BRANCH   1   5
HETATM    5  C   UNL     1      29.302  44.015  54.435  1.00  0.00     0.048 A 
HETATM    6  C   UNL     1      29.993  44.207  55.658  1.00  0.00     0.008 A 
HETATM    7  C   UNL     1      29.587  45.321  56.425  1.00  0.00     0.068 A 
HETATM    8  C   UNL     1      31.014  43.370  56.182  1.00  0.00     0.015 A 
HETATM    9  N   UNL     1      28.578  46.134  56.072  1.00  0.00    -0.253 NA
HETATM   10  C   UNL     1      30.238  45.595  57.620  1.00  0.00     0.032 A 
HETATM   11  C   UNL     1      27.892  45.884  54.936  1.00  0.00     0.036 A 
HETATM   12  C   UNL     1      28.236  44.851  54.086  1.00  0.00     0.045 A 
HETATM   13  C   UNL     1      31.270  44.791  58.103  1.00  0.00     0.002 A 
HETATM   14  C   UNL     1      31.654  43.669  57.386  1.00  0.00     0.001 A 
BRANCH  11  15
HETATM   15  C   UNL     1      26.720  46.778  54.630  1.00  0.00     0.055 C 
HETATM   16  C   UNL     1      26.782  48.083  55.408  1.00  0.00     0.011 C 
ENDBRANCH  11  15
ENDBRANCH   1   5
BRANCH   2  17
HETATM   17  N   UNL     1      28.869  40.903  52.466  1.00  0.00    -0.166 NA
HETATM   18  C   UNL     1      28.308  40.938  51.300  1.00  0.00     0.157 A 
HETATM   19  C   UNL     1      27.440  42.037  50.686  1.00  0.00     0.277 A 
HETATM   20  C   UNL     1      28.449  39.917  50.270  1.00  0.00     0.027 A 
HETATM   21  O   UNL     1      27.079  43.041  51.264  1.00  0.00    -0.266 OA
HETATM   22  N   UNL     1      27.190  41.632  49.392  1.00  0.00    -0.321 N 
HETATM   23  C   UNL     1      27.775  40.391  49.146  1.00  0.00     0.048 A 
HETATM   24  H   UNL     1      26.645  42.170  48.735  1.00  0.00     0.169 HD
HETATM   25  C   UNL     1      27.737  39.661  47.977  1.00  0.00     0.030 A 
HETATM   26  C   UNL     1      28.392  38.422  47.971  1.00  0.00     0.002 A 
HETATM   27  C   UNL     1      29.064  37.946  49.117  1.00  0.00     0.001 A 
HETATM   28  C   UNL     1      29.101  38.703  50.290  1.00  0.00     0.016 A 
ENDBRANCH   2  17
TORSDOF 3
ENDMDL
MODEL 2
REMARK VINA RESULT:      -9.8      1.433      1.738
REMARK  3 active torsions:
REMARK  status: ('A' for Active; 'I' for Inactive)
REMARK    1  A    between atoms: C_2  and  C_3 
REMARK    2  A    between atoms: C_7  and  C_8 
REMARK       I    between atoms: C_8  and  N_9 
REMARK    3  A    between atoms: N_9  and  N_10 
ROOT
HETATM    1  C   UNL     1      28.878  43.457  53.244  1.00  0.00     0.272 C 
HETATM    2  N   UNL     1      27.697  42.757  53.059  1.00  0.00    -0.242 N 
HETATM    3  O   UNL     1      29.897  43.304  52.574  1.00  0.00    -0.266 OA
HETATM    4  H   UNL     1      26.879  42.909  53.649  1.00  0.00     0.192 HD
ENDROOT
BRANCH   1   5
HETATM    5  C   UNL     1      28.918  44.417  54.379  1.00  0.00     0.048 A 
HETATM    6  C   UNL     1      29.781  44.314  55.499  1.00  0.00     0.008 A 
HETATM    7  C   UNL     1      29.684  45.355  56.448  1.00  0.00     0.068 A 
HETATM    8  C   UNL     1      30.691  43.254  55.759  1.00  0.00     0.015 A 
HETATM    9  N   UNL     1      28.803  46.364  56.352  1.00  0.00    -0.253 NA
HETATM   10  C   UNL     1      30.520  45.342  57.556  1.00  0.00     0.032 A 
HETATM   11  C   UNL     1      27.946  46.398  55.309  1.00  0.00     0.036 A 
HETATM   12  C   UNL     1      27.986  45.458  54.298  1.00  0.00     0.045 A 
HETATM   13  C   UNL     1      31.441  44.319  57.778  1.00  0.00     0.002 A 
HETATM   14  C   UNL     1      31.521  43.266  56.881  1.00  0.00     0.001 A 
BRANCH  11  15
HETATM   15  C   UNL     1      26.927  47.506  55.293  1.00  0.00     0.055 C 
HETATM   16  C   UNL     1      26.021  47.429  54.075  1.00  0.00     0.011 C 
ENDBRANCH  11  15
ENDBRANCH   1   5
BRANCH   2  17
HETATM   17  N   UNL     1      27.629  41.826  52.062  1.00  0.00    -0.166 NA
HETATM   18  C   UNL     1      26.640  41.909  51.231  1.00  0.00     0.157 A 
HETATM   19  C   UNL     1      25.537  42.965  51.157  1.00  0.00     0.277 A 
HETATM   20  C   UNL     1      26.406  41.006  50.112  1.00  0.00     0.027 A 
HETATM   21  O   UNL     1      25.387  43.870  51.951  1.00  0.00    -0.266 OA
HETATM   22  N   UNL     1      24.804  42.656  50.031  1.00  0.00    -0.321 N 
HETATM   23  C   UNL     1      25.305  41.509  49.419  1.00  0.00     0.048 A 
HETATM   24  H   UNL     1      24.009  43.193  49.719  1.00  0.00     0.169 HD
HETATM   25  C   UNL     1      24.835  40.889  48.282  1.00  0.00     0.030 A 
HETATM   26  C   UNL     1      25.499  39.729  47.860  1.00  0.00     0.002 A 
HETATM   27  C   UNL     1      26.606  39.221  48.573  1.00  0.00     0.001 A 
HETATM   28  C   UNL     1      27.077  39.868  49.718  1.00  0.00     0.016 A 
ENDBRANCH   2  17
TORSDOF 3
ENDMDL
MODEL 3
REMARK VINA RESULT:      -9.6      4.888      7.452
REMARK  3 active torsions:
REMARK  status: ('A' for Active; 'I' for Inactive)
REMARK    1  A    between atoms: C_2  and  C_3 
REMARK    2  A    between atoms: C_7  and  C_8 
REMARK       I    between atoms: C_8  and  N_9 
REMARK    3  A    between atoms: N_9  and  N_10 
ROOT
HETATM    1  C   UNL     1      25.341  44.967  51.963  1.00  0.00     0.272 C 
HETATM    2  N   UNL     1      25.544  45.954  51.011  1.00  0.00    -0.242 N 
HETATM    3  O   UNL     1      24.241  44.578  52.347  1.00  0.00    -0.266 OA
HETATM    4  H   UNL     1      26.478  46.254  50.733  1.00  0.00     0.192 HD
ENDROOT
BRANCH   1   5
HETATM    5  C   UNL     1      26.555  44.392  52.601  1.00  0.00     0.048 A 
HETATM    6  C   UNL     1      27.316  45.024  53.616  1.00  0.00     0.008 A 
HETATM    7  C   UNL     1      28.412  44.286  54.114  1.00  0.00     0.068 A 
HETATM    8  C   UNL     1      27.093  46.326  54.139  1.00  0.00     0.015 A 
HETATM    9  N   UNL     1      28.769  43.082  53.638  1.00  0.00    -0.253 NA
HETATM   10  C   UNL     1      29.185  44.824  55.132  1.00  0.00     0.032 A 
HETATM   11  C   UNL     1      28.067  42.535  52.623  1.00  0.00     0.036 A 
HETATM   12  C   UNL     1      26.948  43.148  52.094  1.00  0.00     0.045 A 
HETATM   13  C   UNL     1      28.930  46.086  55.669  1.00  0.00     0.002 A 
HETATM   14  C   UNL     1      27.886  46.844  55.165  1.00  0.00     0.001 A 
BRANCH  11  15
HETATM   15  C   UNL     1      28.559  41.222  52.075  1.00  0.00     0.055 C 
HETATM   16  C   UNL     1      27.885  40.865  50.761  1.00  0.00     0.011 C 
ENDBRANCH  11  15
ENDBRANCH   1   5
BRANCH   2  17
HETATM   17  N   UNL     1      24.458  46.550  50.435  1.00  0.00    -0.166 NA
HETATM   18  C   UNL     1      24.651  47.661  49.800  1.00  0.00     0.157 A 
HETATM   19  C   UNL     1      25.965  48.396  49.533  1.00  0.00     0.277 A 
HETATM   20  C   UNL     1      23.616  48.435  49.129  1.00  0.00     0.027 A 
HETATM   21  O   UNL     1      27.048  48.062  49.967  1.00  0.00    -0.266 OA
HETATM   22  N   UNL     1      25.635  49.463  48.725  1.00  0.00    -0.321 N 
HETATM   23  C   UNL     1      24.261  49.492  48.489  1.00  0.00     0.048 A 
HETATM   24  H   UNL     1      26.309  50.127  48.374  1.00  0.00     0.169 HD
HETATM   25  C   UNL     1      23.557  50.409  47.738  1.00  0.00     0.030 A 
HETATM   26  C   UNL     1      22.168  50.241  47.656  1.00  0.00     0.002 A 
HETATM   27  C   UNL     1      21.521  49.173  48.315  1.00  0.00     0.001 A 
HETATM   28  C   UNL     1      22.251  48.247  49.063  1.00  0.00     0.016 A 
ENDBRANCH   2  17
TORSDOF 3
ENDMDL
MODEL 4
REMARK VINA RESULT:      -9.6      1.309      2.252
REMARK  3 active torsions:
REMARK  status: ('A' for Active; 'I' for Inactive)
REMARK    1  A    between atoms: C_2  and  C_3 
REMARK    2  A    between atoms: C_7  and  C_8 
REMARK       I    between atoms: C_8  and  N_9 
REMARK    3  A    between atoms: N_9  and  N_10 
ROOT
HETATM    1  C   UNL     1      27.368  43.914  52.054  1.00  0.00     0.272 C 
HETATM    2  N   UNL     1      26.887  42.641  52.312  1.00  0.00    -0.242 N 
HETATM    3  O   UNL     1      27.619  44.356  50.935  1.00  0.00    -0.266 OA
HETATM    4  H   UNL     1      26.705  42.312  53.261  1.00  0.00     0.192 HD
ENDROOT
BRANCH   1   5
HETATM    5  C   UNL     1      27.657  44.774  53.233  1.00  0.00     0.048 A 
HETATM    6  C   UNL     1      28.699  44.547  54.167  1.00  0.00     0.008 A 
HETATM    7  C   UNL     1      28.824  45.508  55.194  1.00  0.00     0.068 A 
HETATM    8  C   UNL     1      29.587  43.438  54.177  1.00  0.00     0.015 A 
HETATM    9  N   UNL     1      27.991  46.552  55.335  1.00  0.00    -0.253 NA
HETATM   10  C   UNL     1      29.841  45.373  56.128  1.00  0.00     0.032 A 
HETATM   11  C   UNL     1      26.966  46.703  54.470  1.00  0.00     0.036 A 
HETATM   12  C   UNL     1      26.779  45.850  53.400  1.00  0.00     0.045 A 
HETATM   13  C   UNL     1      30.735  44.303  56.102  1.00  0.00     0.002 A 
HETATM   14  C   UNL     1      30.602  43.327  55.128  1.00  0.00     0.001 A 
BRANCH  11  15
HETATM   15  C   UNL     1      26.016  47.844  54.723  1.00  0.00     0.055 C 
HETATM   16  C   UNL     1      26.396  48.636  55.964  1.00  0.00     0.011 C 
ENDBRANCH  11  15
ENDBRANCH   1   5
BRANCH   2  17
HETATM   17  N   UNL     1      26.656  41.796  51.264  1.00  0.00    -0.166 NA
HETATM   18  C   UNL     1      27.510  40.845  51.063  1.00  0.00     0.157 A 
HETATM   19  C   UNL     1      28.743  40.473  51.888  1.00  0.00     0.277 A 
HETATM   20  C   UNL     1      27.429  39.855  49.997  1.00  0.00     0.027 A 
HETATM   21  O   UNL     1      29.150  41.095  52.846  1.00  0.00    -0.266 OA
HETATM   22  N   UNL     1      29.241  39.324  51.312  1.00  0.00    -0.321 N 
HETATM   23  C   UNL     1      28.479  38.961  50.203  1.00  0.00     0.048 A 
HETATM   24  H   UNL     1      30.055  38.836  51.655  1.00  0.00     0.169 HD
HETATM   25  C   UNL     1      28.670  37.881  49.369  1.00  0.00     0.030 A 
HETATM   26  C   UNL     1      27.775  37.727  48.301  1.00  0.00     0.002 A 
HETATM   27  C   UNL     1      26.722  38.642  48.093  1.00  0.00     0.001 A 
HETATM   28  C   UNL     1      26.536  39.726  48.955  1.00  0.00     0.016 A 
ENDBRANCH   2  17
TORSDOF 3
ENDMDL
MODEL 5
REMARK VINA RESULT:      -9.5      1.503      3.590
REMARK  3 active torsions:
REMARK  status: ('A' for Active; 'I' for Inactive)
REMARK    1  A    between atoms: C_2  and  C_3 
REMARK    2  A    between atoms: C_7  and  C_8 
REMARK       I    between atoms: C_8  and  N_9 
REMARK    3  A    between atoms: N_9  and  N_10 
ROOT
HETATM    1  C   UNL     1      27.626  43.613  52.162  1.00  0.00     0.272 C 
HETATM    2  N   UNL     1      26.944  42.414  52.289  1.00  0.00    -0.242 N 
HETATM    3  O   UNL     1      27.856  44.180  51.096  1.00  0.00    -0.266 OA
HETATM    4  H   UNL     1      26.788  41.973  53.196  1.00  0.00     0.192 HD
ENDROOT
BRANCH   1   5
HETATM    5  C   UNL     1      28.165  44.214  53.411  1.00  0.00     0.048 A 
HETATM    6  C   UNL     1      27.691  45.409  54.007  1.00  0.00     0.008 A 
HETATM    7  C   UNL     1      28.318  45.784  55.215  1.00  0.00     0.068 A 
HETATM    8  C   UNL     1      26.683  46.262  53.484  1.00  0.00     0.015 A 
HETATM    9  N   UNL     1      29.338  45.103  55.762  1.00  0.00    -0.253 NA
HETATM   10  C   UNL     1      27.887  46.926  55.877  1.00  0.00     0.032 A 
HETATM   11  C   UNL     1      29.815  44.007  55.134  1.00  0.00     0.036 A 
HETATM   12  C   UNL     1      29.244  43.522  53.973  1.00  0.00     0.045 A 
HETATM   13  C   UNL     1      26.865  47.731  55.375  1.00  0.00     0.002 A 
HETATM   14  C   UNL     1      26.266  47.404  54.170  1.00  0.00     0.001 A 
BRANCH  11  15
HETATM   15  C   UNL     1      31.010  43.328  55.748  1.00  0.00     0.055 C 
HETATM   16  C   UNL     1      31.292  43.835  57.153  1.00  0.00     0.011 C 
ENDBRANCH  11  15
ENDBRANCH   1   5
BRANCH   2  17
HETATM   17  N   UNL     1      26.475  41.797  51.164  1.00  0.00    -0.166 NA
HETATM   18  C   UNL     1      27.149  40.790  50.708  1.00  0.00     0.157 A 
HETATM   19  C   UNL     1      28.394  40.125  51.296  1.00  0.00     0.277 A 
HETATM   20  C   UNL     1      26.803  40.015  49.524  1.00  0.00     0.027 A 
HETATM   21  O   UNL     1      28.994  40.517  52.275  1.00  0.00    -0.266 OA
HETATM   22  N   UNL     1      28.647  39.036  50.490  1.00  0.00    -0.321 N 
HETATM   23  C   UNL     1      27.722  38.970  49.450  1.00  0.00     0.048 A 
HETATM   24  H   UNL     1      29.411  38.394  50.643  1.00  0.00     0.169 HD
HETATM   25  C   UNL     1      27.655  38.032  48.442  1.00  0.00     0.030 A 
HETATM   26  C   UNL     1      26.636  38.180  47.492  1.00  0.00     0.002 A 
HETATM   27  C   UNL     1      25.716  39.247  47.569  1.00  0.00     0.001 A 
HETATM   28  C   UNL     1      25.791  40.184  48.602  1.00  0.00     0.016 A 
ENDBRANCH   2  17
TORSDOF 3
ENDMDL
MODEL 6
REMARK VINA RESULT:      -9.4      4.824      7.448
REMARK  3 active torsions:
REMARK  status: ('A' for Active; 'I' for Inactive)
REMARK    1  A    between atoms: C_2  and  C_3 
REMARK    2  A    between atoms: C_7  and  C_8 
REMARK       I    between atoms: C_8  and  N_9 
REMARK    3  A    between atoms: N_9  and  N_10 
ROOT
HETATM    1  C   UNL     1      25.536  45.100  52.170  1.00  0.00     0.272 C 
HETATM    2  N   UNL     1      25.731  46.010  51.143  1.00  0.00    -0.242 N 
HETATM    3  O   UNL     1      24.440  44.773  52.619  1.00  0.00    -0.266 OA
HETATM    4  H   UNL     1      26.662  46.261  50.811  1.00  0.00     0.192 HD
ENDROOT
BRANCH   1   5
HETATM    5  C   UNL     1      26.756  44.534  52.805  1.00  0.00     0.048 A 
HETATM    6  C   UNL     1      27.331  43.279  52.482  1.00  0.00     0.008 A 
HETATM    7  C   UNL     1      28.514  42.948  53.178  1.00  0.00     0.068 A 
HETATM    8  C   UNL     1      26.807  42.331  51.563  1.00  0.00     0.015 A 
HETATM    9  N   UNL     1      29.055  43.726  54.130  1.00  0.00    -0.253 NA
HETATM   10  C   UNL     1      29.154  41.749  52.894  1.00  0.00     0.032 A 
HETATM   11  C   UNL     1      28.446  44.884  54.464  1.00  0.00     0.036 A 
HETATM   12  C   UNL     1      27.312  45.329  53.814  1.00  0.00     0.045 A 
HETATM   13  C   UNL     1      28.654  40.846  51.957  1.00  0.00     0.002 A 
HETATM   14  C   UNL     1      27.471  41.133  51.295  1.00  0.00     0.001 A 
BRANCH  11  15
HETATM   15  C   UNL     1      29.051  45.677  55.592  1.00  0.00     0.055 C 
HETATM   16  C   UNL     1      30.336  45.048  56.105  1.00  0.00     0.011 C 
ENDBRANCH  11  15
ENDBRANCH   1   5
BRANCH   2  17
HETATM   17  N   UNL     1      24.642  46.597  50.564  1.00  0.00    -0.166 NA
HETATM   18  C   UNL     1      24.836  47.683  49.887  1.00  0.00     0.157 A 
HETATM   19  C   UNL     1      26.152  48.395  49.574  1.00  0.00     0.277 A 
HETATM   20  C   UNL     1      23.797  48.444  49.206  1.00  0.00     0.027 A 
HETATM   21  O   UNL     1      27.239  48.065  50.001  1.00  0.00    -0.266 OA
HETATM   22  N   UNL     1      25.819  49.436  48.734  1.00  0.00    -0.321 N 
HETATM   23  C   UNL     1      24.443  49.472  48.519  1.00  0.00     0.048 A 
HETATM   24  H   UNL     1      26.494  50.080  48.349  1.00  0.00     0.169 HD
HETATM   25  C   UNL     1      23.735  50.369  47.748  1.00  0.00     0.030 A 
HETATM   26  C   UNL     1      22.343  50.212  47.694  1.00  0.00     0.002 A 
HETATM   27  C   UNL     1      21.697  49.176  48.401  1.00  0.00     0.001 A 
HETATM   28  C   UNL     1      22.430  48.269  49.169  1.00  0.00     0.016 A 
ENDBRANCH   2  17
TORSDOF 3
ENDMDL
MODEL 7
REMARK VINA RESULT:      -9.4      3.673      7.791
REMARK  3 active torsions:
REMARK  status: ('A' for Active; 'I' for Inactive)
REMARK    1  A    between atoms: C_2  and  C_3 
REMARK    2  A    between atoms: C_7  and  C_8 
REMARK       I    between atoms: C_8  and  N_9 
REMARK    3  A    between atoms: N_9  and  N_10 
ROOT
HETATM    1  C   UNL     1      25.893  46.716  52.792  1.00  0.00     0.272 C 
HETATM    2  N   UNL     1      26.930  45.832  53.043  1.00  0.00    -0.242 N 
HETATM    3  O   UNL     1      25.538  47.616  53.552  1.00  0.00    -0.266 OA
HETATM    4  H   UNL     1      27.180  45.091  52.388  1.00  0.00     0.192 HD
ENDROOT
BRANCH   1   5
HETATM    5  C   UNL     1      25.124  46.510  51.537  1.00  0.00     0.048 A 
HETATM    6  C   UNL     1      24.700  45.250  51.042  1.00  0.00     0.008 A 
HETATM    7  C   UNL     1      23.946  45.280  49.849  1.00  0.00     0.068 A 
HETATM    8  C   UNL     1      24.994  43.985  51.616  1.00  0.00     0.015 A 
HETATM    9  N   UNL     1      23.678  46.409  49.172  1.00  0.00    -0.253 NA
HETATM   10  C   UNL     1      23.468  44.090  49.320  1.00  0.00     0.032 A 
HETATM   11  C   UNL     1      24.154  47.586  49.630  1.00  0.00     0.036 A 
HETATM   12  C   UNL     1      24.861  47.678  50.813  1.00  0.00     0.045 A 
HETATM   13  C   UNL     1      23.725  42.856  49.917  1.00  0.00     0.002 A 
HETATM   14  C   UNL     1      24.499  42.802  51.065  1.00  0.00     0.001 A 
BRANCH  11  15
HETATM   15  C   UNL     1      23.892  48.807  48.790  1.00  0.00     0.055 C 
HETATM   16  C   UNL     1      25.153  49.625  48.564  1.00  0.00     0.011 C 
ENDBRANCH  11  15
ENDBRANCH   1   5
BRANCH   2  17
HETATM   17  N   UNL     1      27.632  45.949  54.210  1.00  0.00    -0.166 NA
HETATM   18  C   UNL     1      28.516  45.041  54.470  1.00  0.00     0.157 A 
HETATM   19  C   UNL     1      28.954  43.855  53.610  1.00  0.00     0.277 A 
HETATM   20  C   UNL     1      29.353  45.002  55.662  1.00  0.00     0.027 A 
HETATM   21  O   UNL     1      28.453  43.544  52.549  1.00  0.00    -0.266 OA
HETATM   22  N   UNL     1      29.995  43.266  54.295  1.00  0.00    -0.321 N 
HETATM   23  C   UNL     1      30.230  43.930  55.497  1.00  0.00     0.048 A 
HETATM   24  H   UNL     1      30.496  42.457  53.960  1.00  0.00     0.169 HD
HETATM   25  C   UNL     1      31.178  43.632  56.451  1.00  0.00     0.030 A 
HETATM   26  C   UNL     1      31.217  44.441  57.595  1.00  0.00     0.002 A 
HETATM   27  C   UNL     1      30.319  45.518  57.758  1.00  0.00     0.001 A 
HETATM   28  C   UNL     1      29.370  45.813  56.777  1.00  0.00     0.016 A 
ENDBRANCH   2  17
TORSDOF 3
ENDMDL
MODEL 8
REMARK VINA RESULT:      -9.3      2.893      4.587
REMARK  3 active torsions:
REMARK  status: ('A' for Active; 'I' for Inactive)
REMARK    1  A    between atoms: C_2  and  C_3 
REMARK    2  A    between atoms: C_7  and  C_8 
REMARK       I    between atoms: C_8  and  N_9 
REMARK    3  A    between atoms: N_9  and  N_10 
ROOT
HETATM    1  C   UNL     1      27.612  43.716  52.251  1.00  0.00     0.272 C 
HETATM    2  N   UNL     1      26.465  42.946  52.357  1.00  0.00    -0.242 N 
HETATM    3  O   UNL     1      28.227  43.920  51.207  1.00  0.00    -0.266 OA
HETATM    4  H   UNL     1      25.995  42.793  53.249  1.00  0.00     0.192 HD
ENDROOT
BRANCH   1   5
HETATM    5  C   UNL     1      28.159  44.280  53.513  1.00  0.00     0.048 A 
HETATM    6  C   UNL     1      27.716  45.479  54.127  1.00  0.00     0.008 A 
HETATM    7  C   UNL     1      28.345  45.815  55.345  1.00  0.00     0.068 A 
HETATM    8  C   UNL     1      26.738  46.370  53.610  1.00  0.00     0.015 A 
HETATM    9  N   UNL     1      29.340  45.095  55.887  1.00  0.00    -0.253 NA
HETATM   10  C   UNL     1      27.943  46.958  56.022  1.00  0.00     0.032 A 
HETATM   11  C   UNL     1      29.788  43.995  55.245  1.00  0.00     0.036 A 
HETATM   12  C   UNL     1      29.213  43.548  54.072  1.00  0.00     0.045 A 
HETATM   13  C   UNL     1      26.950  47.802  55.527  1.00  0.00     0.002 A 
HETATM   14  C   UNL     1      26.351  47.513  54.312  1.00  0.00     0.001 A 
BRANCH  11  15
HETATM   15  C   UNL     1      30.959  43.271  55.856  1.00  0.00     0.055 C 
HETATM   16  C   UNL     1      31.373  43.881  57.186  1.00  0.00     0.011 C 
ENDBRANCH  11  15
ENDBRANCH   1   5
BRANCH   2  17
HETATM   17  N   UNL     1      25.954  42.363  51.231  1.00  0.00    -0.166 NA
HETATM   18  C   UNL     1      24.885  42.883  50.721  1.00  0.00     0.157 A 
HETATM   19  C   UNL     1      24.120  44.131  51.163  1.00  0.00     0.277 A 
HETATM   20  C   UNL     1      24.201  42.396  49.530  1.00  0.00     0.027 A 
HETATM   21  O   UNL     1      24.380  44.792  52.147  1.00  0.00    -0.266 OA
HETATM   22  N   UNL     1      23.128  44.310  50.224  1.00  0.00    -0.321 N 
HETATM   23  C   UNL     1      23.168  43.296  49.269  1.00  0.00     0.048 A 
HETATM   24  H   UNL     1      22.465  45.070  50.250  1.00  0.00     0.169 HD
HETATM   25  C   UNL     1      22.336  43.130  48.182  1.00  0.00     0.030 A 
HETATM   26  C   UNL     1      22.563  42.016  47.362  1.00  0.00     0.002 A 
HETATM   27  C   UNL     1      23.605  41.106  47.640  1.00  0.00     0.001 A 
HETATM   28  C   UNL     1      24.446  41.294  48.738  1.00  0.00     0.016 A 
ENDBRANCH   2  17
TORSDOF 3
ENDMDL
MODEL 9
REMARK VINA RESULT:      -9.3      1.554      3.453
REMARK  3 active torsions:
REMARK  status: ('A' for Active; 'I' for Inactive)
REMARK    1  A    between atoms: C_2  and  C_3 
REMARK    2  A    between atoms: C_7  and  C_8 
REMARK       I    between atoms: C_8  and  N_9 
REMARK    3  A    between atoms: N_9  and  N_10 
ROOT
HETATM    1  C   UNL     1      28.214  42.518  53.416  1.00  0.00     0.272 C 
HETATM    2  N   UNL     1      28.645  42.477  52.100  1.00  0.00    -0.242 N 
HETATM    3  O   UNL     1      27.480  41.684  53.941  1.00  0.00    -0.266 OA
HETATM    4  H   UNL     1      29.245  43.201  51.704  1.00  0.00     0.192 HD
ENDROOT
BRANCH   1   5
HETATM    5  C   UNL     1      28.629  43.698  54.221  1.00  0.00     0.048 A 
HETATM    6  C   UNL     1      27.957  44.946  54.239  1.00  0.00     0.008 A 
HETATM    7  C   UNL     1      28.496  45.922  55.105  1.00  0.00     0.068 A 
HETATM    8  C   UNL     1      26.831  45.300  53.449  1.00  0.00     0.015 A 
HETATM    9  N   UNL     1      29.605  45.731  55.837  1.00  0.00    -0.253 NA
HETATM   10  C   UNL     1      27.873  47.159  55.202  1.00  0.00     0.032 A 
HETATM   11  C   UNL     1      30.264  44.556  55.746  1.00  0.00     0.036 A 
HETATM   12  C   UNL     1      29.798  43.514  54.969  1.00  0.00     0.045 A 
HETATM   13  C   UNL     1      26.741  47.480  54.454  1.00  0.00     0.002 A 
HETATM   14  C   UNL     1      26.223  46.551  53.567  1.00  0.00     0.001 A 
BRANCH  11  15
HETATM   15  C   UNL     1      31.545  44.424  56.526  1.00  0.00     0.055 C 
HETATM   16  C   UNL     1      31.673  43.059  57.183  1.00  0.00     0.011 C 
ENDBRANCH  11  15
ENDBRANCH   1   5
BRANCH   2  17
HETATM   17  N   UNL     1      28.246  41.440  51.306  1.00  0.00    -0.166 NA
HETATM   18  C   UNL     1      27.464  41.714  50.312  1.00  0.00     0.157 A 
HETATM   19  C   UNL     1      26.956  43.076  49.838  1.00  0.00     0.277 A 
HETATM   20  C   UNL     1      26.938  40.740  49.364  1.00  0.00     0.027 A 
HETATM   21  O   UNL     1      27.165  44.129  50.403  1.00  0.00    -0.266 OA
HETATM   22  N   UNL     1      26.250  42.827  48.681  1.00  0.00    -0.321 N 
HETATM   23  C   UNL     1      26.233  41.461  48.402  1.00  0.00     0.048 A 
HETATM   24  H   UNL     1      25.804  43.547  48.133  1.00  0.00     0.169 HD
HETATM   25  C   UNL     1      25.624  40.827  47.340  1.00  0.00     0.030 A 
HETATM   26  C   UNL     1      25.732  39.432  47.276  1.00  0.00     0.002 A 
HETATM   27  C   UNL     1      26.439  38.708  48.261  1.00  0.00     0.001 A 
HETATM   28  C   UNL     1      27.059  39.367  49.325  1.00  0.00     0.016 A 
ENDBRANCH   2  17
TORSDOF 3
ENDMDL
MODEL 10
REMARK VINA RESULT:      -9.2      0.709      3.101
REMARK  3 active torsions:
REMARK  status: ('A' for Active; 'I' for Inactive)
REMARK    1  A    between atoms: C_2  and  C_3 
REMARK    2  A    between atoms: C_7  and  C_8 
REMARK       I    between atoms: C_8  and  N_9 
REMARK    3  A    between atoms: N_9  and  N_10 
ROOT
HETATM    1  C   UNL     1      29.467  43.145  53.623  1.00  0.00     0.272 C 
HETATM    2  N   UNL     1      28.550  42.121  53.451  1.00  0.00    -0.242 N 
HETATM    3  O   UNL     1      30.615  43.140  53.184  1.00  0.00    -0.266 OA
HETATM    4  H   UNL     1      27.610  42.164  53.845  1.00  0.00     0.192 HD
ENDROOT
BRANCH   1   5
HETATM    5  C   UNL     1      29.035  44.300  54.454  1.00  0.00     0.048 A 
HETATM    6  C   UNL     1      27.958  45.167  54.141  1.00  0.00     0.008 A 
HETATM    7  C   UNL     1      27.690  46.181  55.087  1.00  0.00     0.068 A 
HETATM    8  C   UNL     1      27.165  45.125  52.963  1.00  0.00     0.015 A 
HETATM    9  N   UNL     1      28.424  46.371  56.196  1.00  0.00    -0.253 NA
HETATM   10  C   UNL     1      26.630  47.049  54.868  1.00  0.00     0.032 A 
HETATM   11  C   UNL     1      29.487  45.572  56.431  1.00  0.00     0.036 A 
HETATM   12  C   UNL     1      29.810  44.519  55.598  1.00  0.00     0.045 A 
HETATM   13  C   UNL     1      25.830  46.970  53.728  1.00  0.00     0.002 A 
HETATM   14  C   UNL     1      26.104  46.010  52.767  1.00  0.00     0.001 A 
BRANCH  11  15
HETATM   15  C   UNL     1      30.322  45.880  57.646  1.00  0.00     0.055 C 
HETATM   16  C   UNL     1      31.142  44.681  58.092  1.00  0.00     0.011 C 
ENDBRANCH  11  15
ENDBRANCH   1   5
BRANCH   2  17
HETATM   17  N   UNL     1      28.919  41.015  52.739  1.00  0.00    -0.166 NA
HETATM   18  C   UNL     1      28.386  40.849  51.571  1.00  0.00     0.157 A 
HETATM   19  C   UNL     1      27.425  41.768  50.817  1.00  0.00     0.277 A 
HETATM   20  C   UNL     1      28.658  39.733  50.676  1.00  0.00     0.027 A 
HETATM   21  O   UNL     1      26.947  42.790  51.264  1.00  0.00    -0.266 OA
HETATM   22  N   UNL     1      27.249  41.186  49.580  1.00  0.00    -0.321 N 
HETATM   23  C   UNL     1      27.965  39.993  49.494  1.00  0.00     0.048 A 
HETATM   24  H   UNL     1      26.668  41.579  48.855  1.00  0.00     0.169 HD
HETATM   25  C   UNL     1      28.032  39.128  48.423  1.00  0.00     0.030 A 
HETATM   26  C   UNL     1      28.812  37.974  48.576  1.00  0.00     0.002 A 
HETATM   27  C   UNL     1      29.502  37.713  49.779  1.00  0.00     0.001 A 
HETATM   28  C   UNL     1      29.432  38.605  50.852  1.00  0.00     0.016 A 
ENDBRANCH   2  17
TORSDOF 3
ENDMDL
