MODEL 1
REMARK VINA RESULT:      -7.3      0.000      0.000
REMARK  7 active torsions:
REMARK  status: ('A' for Active; 'I' for Inactive)
REMARK    1  A    between atoms: C_2  and  C_3 
REMARK    2  A    between atoms: C_3  and  C_4 
REMARK    3  A    between atoms: C_7  and  C_8 
REMARK    4  A    between atoms: C_14  and  C_15 
REMARK    5  A    between atoms: C_16  and  O_17 
REMARK    6  A    between atoms: O_17  and  C_18 
REMARK       I    between atoms: C_18  and  N_19 
REMARK    7  A    between atoms: C_33  and  N_34 
ROOT
HETATM    1  C   UNL     1      42.375  46.789  65.360  1.00  0.00     0.099 A 
HETATM    2  N   UNL     1      43.587  47.223  64.955  1.00  0.00    -0.172 NA
HETATM    3  N   UNL     1      44.367  46.127  64.955  1.00  0.00    -0.256 N 
HETATM    4  H   UNL     1      45.344  46.222  64.702  1.00  0.00     0.191 HD
HETATM    5  C   UNL     1      43.698  45.008  65.323  1.00  0.00     0.175 A 
HETATM    6  C   UNL     1      42.401  45.381  65.561  1.00  0.00     0.040 A 
HETATM    7  C   UNL     1      41.403  44.349  65.964  1.00  0.00     0.109 A 
HETATM    8  C   UNL     1      42.093  43.004  66.210  1.00  0.00     0.081 A 
HETATM    9  C   UNL     1      41.294  41.986  66.807  1.00  0.00     0.100 C 
HETATM   10  N   UNL     1      40.636  41.173  67.311  1.00  0.00    -0.191 NA
HETATM   11  C   UNL     1      43.411  42.788  65.945  1.00  0.00     0.140 A 
HETATM   12  O   UNL     1      44.240  43.801  65.428  1.00  0.00    -0.279 OA
ENDROOT
BRANCH   7  13
HETATM   13  C   UNL     1      40.362  44.268  64.854  1.00  0.00    -0.010 A 
HETATM   14  C   UNL     1      39.061  44.775  65.049  1.00  0.00     0.088 A 
HETATM   15  C   UNL     1      38.071  44.630  64.074  1.00  0.00     0.038 A 
HETATM   16  C   UNL     1      38.371  43.997  62.869  1.00  0.00     0.003 A 
HETATM   17  C   UNL     1      39.647  43.488  62.649  1.00  0.00     0.001 A 
HETATM   18  C   UNL     1      40.629  43.611  63.634  1.00  0.00     0.011 A 
BRANCH  14  19
HETATM   19  O   UNL     1      38.785  45.347  66.320  1.00  0.00    -0.261 OA
BRANCH  19  20
HETATM   20  C   UNL     1      38.025  44.763  67.339  1.00  0.00     0.368 C 
HETATM   21  N   UNL     1      37.040  45.617  67.816  1.00  0.00    -0.324 N 
HETATM   22  C   UNL     1      36.975  47.032  67.448  1.00  0.00     0.154 C 
HETATM   23  C   UNL     1      36.382  45.277  69.076  1.00  0.00     0.154 C 
HETATM   24  C   UNL     1      35.555  47.582  67.612  1.00  0.00     0.187 C 
HETATM   25  O   UNL     1      35.044  47.321  68.927  1.00  0.00    -0.388 OA
HETATM   26  C   UNL     1      34.992  45.908  69.175  1.00  0.00     0.187 C 
HETATM   27  O   UNL     1      38.190  43.625  67.765  1.00  0.00    -0.238 OA
ENDBRANCH  19  20
ENDBRANCH  14  19
ENDBRANCH   7  13
BRANCH  11  28
HETATM   28  N   UNL     1      44.083  41.605  66.150  1.00  0.00    -0.282 NA
HETATM   29  H   UNL     1      43.541  40.862  66.585  1.00  0.00     0.126 HD
HETATM   30  H   UNL     1      44.578  41.297  65.316  1.00  0.00     0.126 HD
ENDBRANCH  11  28
BRANCH   1  31
HETATM   31  C   UNL     1      41.264  47.725  65.528  1.00  0.00    -0.005 A 
HETATM   32  C   UNL     1      40.446  48.043  64.436  1.00  0.00     0.014 A 
HETATM   33  C   UNL     1      39.391  48.949  64.573  1.00  0.00     0.008 A 
HETATM   34  C   UNL     1      39.134  49.556  65.808  1.00  0.00    -0.058 A 
HETATM   35  C   UNL     1      39.952  49.242  66.900  1.00  0.00     0.008 A 
HETATM   36  C   UNL     1      41.012  48.341  66.759  1.00  0.00     0.014 A 
BRANCH  34  37
HETATM   37  C   UNL     1      37.998  50.539  65.960  1.00  0.00     0.042 C 
BRANCH  37  38
HETATM   38  C   UNL     1      38.101  51.415  67.224  1.00  0.00    -0.019 C 
HETATM   39  C   UNL     1      37.089  50.997  68.294  1.00  0.00     0.010 C 
HETATM   40  C   UNL     1      37.884  52.883  66.853  1.00  0.00     0.010 C 
ENDBRANCH  37  38
ENDBRANCH  34  37
ENDBRANCH   1  31
TORSDOF 7
ENDMDL
MODEL 2
REMARK VINA RESULT:      -7.1     25.608     28.523
REMARK  7 active torsions:
REMARK  status: ('A' for Active; 'I' for Inactive)
REMARK    1  A    between atoms: C_2  and  C_3 
REMARK    2  A    between atoms: C_3  and  C_4 
REMARK    3  A    between atoms: C_7  and  C_8 
REMARK    4  A    between atoms: C_14  and  C_15 
REMARK    5  A    between atoms: C_16  and  O_17 
REMARK    6  A    between atoms: O_17  and  C_18 
REMARK       I    between atoms: C_18  and  N_19 
REMARK    7  A    between atoms: C_33  and  N_34 
ROOT
HETATM    1  C   UNL     1      19.804  51.142  47.956  1.00  0.00     0.099 A 
HETATM    2  N   UNL     1      19.592  52.318  48.584  1.00  0.00    -0.172 NA
HETATM    3  N   UNL     1      18.469  52.810  48.032  1.00  0.00    -0.256 N 
HETATM    4  H   UNL     1      18.127  53.713  48.339  1.00  0.00     0.191 HD
HETATM    5  C   UNL     1      17.944  51.987  47.092  1.00  0.00     0.175 A 
HETATM    6  C   UNL     1      18.753  50.882  47.035  1.00  0.00     0.040 A 
HETATM    7  C   UNL     1      18.415  49.773  46.098  1.00  0.00     0.109 A 
HETATM    8  C   UNL     1      17.238  50.169  45.201  1.00  0.00     0.081 A 
HETATM    9  C   UNL     1      16.949  49.290  44.117  1.00  0.00     0.100 C 
HETATM   10  N   UNL     1      16.737  48.574  43.228  1.00  0.00    -0.191 NA
HETATM   11  C   UNL     1      16.537  51.323  45.367  1.00  0.00     0.140 A 
HETATM   12  O   UNL     1      16.853  52.246  46.381  1.00  0.00    -0.279 OA
ENDROOT
BRANCH   7  13
HETATM   13  C   UNL     1      18.105  48.544  46.946  1.00  0.00    -0.010 A 
HETATM   14  C   UNL     1      18.801  47.335  46.742  1.00  0.00     0.088 A 
HETATM   15  C   UNL     1      18.468  46.178  47.449  1.00  0.00     0.038 A 
HETATM   16  C   UNL     1      17.447  46.213  48.397  1.00  0.00     0.003 A 
HETATM   17  C   UNL     1      16.744  47.393  48.620  1.00  0.00     0.001 A 
HETATM   18  C   UNL     1      17.060  48.543  47.894  1.00  0.00     0.011 A 
BRANCH  14  19
HETATM   19  O   UNL     1      19.783  47.332  45.715  1.00  0.00    -0.261 OA
BRANCH  19  20
HETATM   20  C   UNL     1      19.920  46.369  44.709  1.00  0.00     0.368 C 
HETATM   21  N   UNL     1      20.977  45.503  44.951  1.00  0.00    -0.324 N 
HETATM   22  C   UNL     1      21.960  45.732  46.011  1.00  0.00     0.154 C 
HETATM   23  C   UNL     1      21.441  44.656  43.854  1.00  0.00     0.154 C 
HETATM   24  C   UNL     1      22.632  44.423  46.436  1.00  0.00     0.187 C 
HETATM   25  O   UNL     1      23.178  43.727  45.307  1.00  0.00    -0.388 OA
HETATM   26  C   UNL     1      22.141  43.398  44.370  1.00  0.00     0.187 C 
HETATM   27  O   UNL     1      19.191  46.280  43.727  1.00  0.00    -0.238 OA
ENDBRANCH  19  20
ENDBRANCH  14  19
ENDBRANCH   7  13
BRANCH  11  28
HETATM   28  N   UNL     1      15.476  51.732  44.590  1.00  0.00    -0.282 NA
HETATM   29  H   UNL     1      14.602  51.883  45.086  1.00  0.00     0.126 HD
HETATM   30  H   UNL     1      15.725  52.509  43.982  1.00  0.00     0.126 HD
ENDBRANCH  11  28
BRANCH   1  31
HETATM   31  C   UNL     1      20.981  50.331  48.268  1.00  0.00    -0.005 A 
HETATM   32  C   UNL     1      22.260  50.800  47.940  1.00  0.00     0.014 A 
HETATM   33  C   UNL     1      23.394  50.031  48.214  1.00  0.00     0.008 A 
HETATM   34  C   UNL     1      23.271  48.775  48.821  1.00  0.00    -0.058 A 
HETATM   35  C   UNL     1      21.993  48.303  49.146  1.00  0.00     0.008 A 
HETATM   36  C   UNL     1      20.859  49.071  48.865  1.00  0.00     0.014 A 
BRANCH  34  37
HETATM   37  C   UNL     1      24.493  47.938  49.114  1.00  0.00     0.042 C 
BRANCH  37  38
HETATM   38  C   UNL     1      24.275  46.888  50.219  1.00  0.00    -0.019 C 
HETATM   39  C   UNL     1      25.311  47.011  51.339  1.00  0.00     0.010 C 
HETATM   40  C   UNL     1      24.332  45.483  49.615  1.00  0.00     0.010 C 
ENDBRANCH  37  38
ENDBRANCH  34  37
ENDBRANCH   1  31
TORSDOF 7
ENDMDL
MODEL 3
REMARK VINA RESULT:      -7.1      2.224      5.470
REMARK  7 active torsions:
REMARK  status: ('A' for Active; 'I' for Inactive)
REMARK    1  A    between atoms: C_2  and  C_3 
REMARK    2  A    between atoms: C_3  and  C_4 
REMARK    3  A    between atoms: C_7  and  C_8 
REMARK    4  A    between atoms: C_14  and  C_15 
REMARK    5  A    between atoms: C_16  and  O_17 
REMARK    6  A    between atoms: O_17  and  C_18 
REMARK       I    between atoms: C_18  and  N_19 
REMARK    7  A    between atoms: C_33  and  N_34 
ROOT
HETATM    1  C   UNL     1      37.426  46.299  64.761  1.00  0.00     0.099 A 
HETATM    2  N   UNL     1      36.244  46.045  64.160  1.00  0.00    -0.172 NA
HETATM    3  N   UNL     1      36.285  44.737  63.850  1.00  0.00    -0.256 N 
HETATM    4  H   UNL     1      35.498  44.325  63.363  1.00  0.00     0.191 HD
HETATM    5  C   UNL     1      37.435  44.140  64.248  1.00  0.00     0.175 A 
HETATM    6  C   UNL     1      38.187  45.102  64.871  1.00  0.00     0.040 A 
HETATM    7  C   UNL     1      39.513  44.739  65.445  1.00  0.00     0.109 A 
HETATM    8  C   UNL     1      39.885  43.302  65.067  1.00  0.00     0.081 A 
HETATM    9  C   UNL     1      41.218  42.896  65.367  1.00  0.00     0.100 C 
HETATM   10  N   UNL     1      42.313  42.587  65.600  1.00  0.00    -0.191 NA
HETATM   11  C   UNL     1      39.031  42.462  64.420  1.00  0.00     0.140 A 
HETATM   12  O   UNL     1      37.737  42.864  64.043  1.00  0.00    -0.279 OA
ENDROOT
BRANCH   7  13
HETATM   13  C   UNL     1      39.421  44.932  66.955  1.00  0.00    -0.010 A 
HETATM   14  C   UNL     1      40.105  45.990  67.587  1.00  0.00     0.088 A 
HETATM   15  C   UNL     1      40.101  46.128  68.977  1.00  0.00     0.038 A 
HETATM   16  C   UNL     1      39.389  45.223  69.763  1.00  0.00     0.003 A 
HETATM   17  C   UNL     1      38.705  44.170  69.165  1.00  0.00     0.001 A 
HETATM   18  C   UNL     1      38.730  44.018  67.778  1.00  0.00     0.011 A 
BRANCH  14  19
HETATM   19  O   UNL     1      40.874  46.842  66.750  1.00  0.00    -0.261 OA
BRANCH  19  20
HETATM   20  C   UNL     1      42.072  47.476  67.098  1.00  0.00     0.368 C 
HETATM   21  N   UNL     1      43.110  47.144  66.240  1.00  0.00    -0.324 N 
HETATM   22  C   UNL     1      43.003  46.077  65.244  1.00  0.00     0.154 C 
HETATM   23  C   UNL     1      44.476  47.467  66.650  1.00  0.00     0.154 C 
HETATM   24  C   UNL     1      43.997  46.286  64.097  1.00  0.00     0.187 C 
HETATM   25  O   UNL     1      45.332  46.458  64.592  1.00  0.00    -0.388 OA
HETATM   26  C   UNL     1      45.408  47.609  65.447  1.00  0.00     0.187 C 
HETATM   27  O   UNL     1      42.202  48.248  68.041  1.00  0.00    -0.238 OA
ENDBRANCH  19  20
ENDBRANCH  14  19
ENDBRANCH   7  13
BRANCH  11  28
HETATM   28  N   UNL     1      39.313  41.165  64.052  1.00  0.00    -0.282 NA
HETATM   29  H   UNL     1      40.166  41.038  63.513  1.00  0.00     0.126 HD
HETATM   30  H   UNL     1      39.240  40.521  64.836  1.00  0.00     0.126 HD
ENDBRANCH  11  28
BRANCH   1  31
HETATM   31  C   UNL     1      37.764  47.652  65.201  1.00  0.00    -0.005 A 
HETATM   32  C   UNL     1      38.831  48.335  64.604  1.00  0.00     0.014 A 
HETATM   33  C   UNL     1      39.180  49.621  65.025  1.00  0.00     0.008 A 
HETATM   34  C   UNL     1      38.467  50.250  66.053  1.00  0.00    -0.058 A 
HETATM   35  C   UNL     1      37.402  49.567  66.653  1.00  0.00     0.008 A 
HETATM   36  C   UNL     1      37.059  48.277  66.236  1.00  0.00     0.014 A 
BRANCH  34  37
HETATM   37  C   UNL     1      38.844  51.637  66.514  1.00  0.00     0.042 C 
BRANCH  37  38
HETATM   38  C   UNL     1      37.633  52.530  66.846  1.00  0.00    -0.019 C 
HETATM   39  C   UNL     1      37.767  53.928  66.234  1.00  0.00     0.010 C 
HETATM   40  C   UNL     1      37.476  52.644  68.363  1.00  0.00     0.010 C 
ENDBRANCH  37  38
ENDBRANCH  34  37
ENDBRANCH   1  31
TORSDOF 7
ENDMDL
MODEL 4
REMARK VINA RESULT:      -7.0      2.706      6.320
REMARK  7 active torsions:
REMARK  status: ('A' for Active; 'I' for Inactive)
REMARK    1  A    between atoms: C_2  and  C_3 
REMARK    2  A    between atoms: C_3  and  C_4 
REMARK    3  A    between atoms: C_7  and  C_8 
REMARK    4  A    between atoms: C_14  and  C_15 
REMARK    5  A    between atoms: C_16  and  O_17 
REMARK    6  A    between atoms: O_17  and  C_18 
REMARK       I    between atoms: C_18  and  N_19 
REMARK    7  A    between atoms: C_33  and  N_34 
ROOT
HETATM    1  C   UNL     1      38.824  43.594  64.425  1.00  0.00     0.099 A 
HETATM    2  N   UNL     1      38.518  42.629  63.533  1.00  0.00    -0.172 NA
HETATM    3  N   UNL     1      37.234  42.317  63.783  1.00  0.00    -0.256 N 
HETATM    4  H   UNL     1      36.793  41.586  63.237  1.00  0.00     0.191 HD
HETATM    5  C   UNL     1      36.701  43.058  64.784  1.00  0.00     0.175 A 
HETATM    6  C   UNL     1      37.680  43.920  65.206  1.00  0.00     0.040 A 
HETATM    7  C   UNL     1      37.382  44.892  66.295  1.00  0.00     0.109 A 
HETATM    8  C   UNL     1      35.997  44.622  66.890  1.00  0.00     0.081 A 
HETATM    9  C   UNL     1      35.672  45.337  68.079  1.00  0.00     0.100 C 
HETATM   10  N   UNL     1      35.429  45.911  69.059  1.00  0.00    -0.191 NA
HETATM   11  C   UNL     1      35.133  43.707  66.370  1.00  0.00     0.140 A 
HETATM   12  O   UNL     1      35.462  42.933  65.243  1.00  0.00    -0.279 OA
ENDROOT
BRANCH   7  13
HETATM   13  C   UNL     1      37.490  46.290  65.696  1.00  0.00    -0.010 A 
HETATM   14  C   UNL     1      38.335  47.257  66.276  1.00  0.00     0.088 A 
HETATM   15  C   UNL     1      38.378  48.567  65.792  1.00  0.00     0.038 A 
HETATM   16  C   UNL     1      37.594  48.929  64.698  1.00  0.00     0.003 A 
HETATM   17  C   UNL     1      36.751  47.994  64.106  1.00  0.00     0.001 A 
HETATM   18  C   UNL     1      36.689  46.692  64.606  1.00  0.00     0.011 A 
BRANCH  14  19
HETATM   19  O   UNL     1      39.059  46.860  67.432  1.00  0.00    -0.261 OA
BRANCH  19  20
HETATM   20  C   UNL     1      40.442  46.662  67.510  1.00  0.00     0.368 C 
HETATM   21  N   UNL     1      40.767  45.470  68.142  1.00  0.00    -0.324 N 
HETATM   22  C   UNL     1      39.778  44.650  68.843  1.00  0.00     0.154 C 
HETATM   23  C   UNL     1      42.148  45.273  68.578  1.00  0.00     0.154 C 
HETATM   24  C   UNL     1      40.232  43.191  68.935  1.00  0.00     0.187 C 
HETATM   25  O   UNL     1      41.545  43.090  69.503  1.00  0.00    -0.388 OA
HETATM   26  C   UNL     1      42.500  43.789  68.690  1.00  0.00     0.187 C 
HETATM   27  O   UNL     1      41.282  47.436  67.066  1.00  0.00    -0.238 OA
ENDBRANCH  19  20
ENDBRANCH  14  19
ENDBRANCH   7  13
BRANCH  11  28
HETATM   28  N   UNL     1      33.881  43.420  66.865  1.00  0.00    -0.282 NA
HETATM   29  H   UNL     1      33.233  43.000  66.202  1.00  0.00     0.126 HD
HETATM   30  H   UNL     1      33.925  42.917  67.747  1.00  0.00     0.126 HD
ENDBRANCH  11  28
BRANCH   1  31
HETATM   31  C   UNL     1      40.173  44.156  64.485  1.00  0.00    -0.005 A 
HETATM   32  C   UNL     1      40.428  45.421  63.940  1.00  0.00     0.014 A 
HETATM   33  C   UNL     1      41.714  45.966  63.973  1.00  0.00     0.008 A 
HETATM   34  C   UNL     1      42.772  45.256  64.551  1.00  0.00    -0.058 A 
HETATM   35  C   UNL     1      42.520  43.989  65.093  1.00  0.00     0.008 A 
HETATM   36  C   UNL     1      41.233  43.442  65.054  1.00  0.00     0.014 A 
BRANCH  34  37
HETATM   37  C   UNL     1      44.165  45.838  64.584  1.00  0.00     0.042 C 
BRANCH  37  38
HETATM   38  C   UNL     1      44.563  46.417  65.955  1.00  0.00    -0.019 C 
HETATM   39  C   UNL     1      45.299  47.753  65.820  1.00  0.00     0.010 C 
HETATM   40  C   UNL     1      45.444  45.415  66.702  1.00  0.00     0.010 C 
ENDBRANCH  37  38
ENDBRANCH  34  37
ENDBRANCH   1  31
TORSDOF 7
ENDMDL
MODEL 5
REMARK VINA RESULT:      -7.0     29.117     31.755
REMARK  7 active torsions:
REMARK  status: ('A' for Active; 'I' for Inactive)
REMARK    1  A    between atoms: C_2  and  C_3 
REMARK    2  A    between atoms: C_3  and  C_4 
REMARK    3  A    between atoms: C_7  and  C_8 
REMARK    4  A    between atoms: C_14  and  C_15 
REMARK    5  A    between atoms: C_16  and  O_17 
REMARK    6  A    between atoms: O_17  and  C_18 
REMARK       I    between atoms: C_18  and  N_19 
REMARK    7  A    between atoms: C_33  and  N_34 
ROOT
HETATM    1  C   UNL     1      16.527  48.329  46.003  1.00  0.00     0.099 A 
HETATM    2  N   UNL     1      16.699  47.004  45.814  1.00  0.00    -0.172 NA
HETATM    3  N   UNL     1      15.619  46.609  45.117  1.00  0.00    -0.256 N 
HETATM    4  H   UNL     1      15.523  45.629  44.878  1.00  0.00     0.191 HD
HETATM    5  C   UNL     1      14.775  47.630  44.836  1.00  0.00     0.175 A 
HETATM    6  C   UNL     1      15.337  48.766  45.358  1.00  0.00     0.040 A 
HETATM    7  C   UNL     1      14.644  50.074  45.185  1.00  0.00     0.109 A 
HETATM    8  C   UNL     1      13.264  49.870  44.553  1.00  0.00     0.081 A 
HETATM    9  C   UNL     1      12.408  51.009  44.527  1.00  0.00     0.100 C 
HETATM   10  N   UNL     1      11.715  51.941  44.532  1.00  0.00    -0.191 NA
HETATM   11  C   UNL     1      12.830  48.664  44.097  1.00  0.00     0.140 A 
HETATM   12  O   UNL     1      13.626  47.507  44.182  1.00  0.00    -0.279 OA
ENDROOT
BRANCH   7  13
HETATM   13  C   UNL     1      15.546  50.954  44.325  1.00  0.00    -0.010 A 
HETATM   14  C   UNL     1      16.112  52.133  44.850  1.00  0.00     0.088 A 
HETATM   15  C   UNL     1      16.868  52.994  44.051  1.00  0.00     0.038 A 
HETATM   16  C   UNL     1      17.097  52.677  42.713  1.00  0.00     0.003 A 
HETATM   17  C   UNL     1      16.551  51.518  42.169  1.00  0.00     0.001 A 
HETATM   18  C   UNL     1      15.774  50.672  42.962  1.00  0.00     0.011 A 
BRANCH  14  19
HETATM   19  O   UNL     1      15.791  52.449  46.198  1.00  0.00    -0.261 OA
BRANCH  19  20
HETATM   20  C   UNL     1      14.849  53.393  46.621  1.00  0.00     0.368 C 
HETATM   21  N   UNL     1      14.822  53.526  48.002  1.00  0.00    -0.324 N 
HETATM   22  C   UNL     1      15.531  52.612  48.899  1.00  0.00     0.154 C 
HETATM   23  C   UNL     1      13.691  54.227  48.607  1.00  0.00     0.154 C 
HETATM   24  C   UNL     1      15.819  53.272  50.250  1.00  0.00     0.187 C 
HETATM   25  O   UNL     1      14.623  53.811  50.831  1.00  0.00    -0.388 OA
HETATM   26  C   UNL     1      14.053  54.811  49.973  1.00  0.00     0.187 C 
HETATM   27  O   UNL     1      14.132  54.045  45.871  1.00  0.00    -0.238 OA
ENDBRANCH  19  20
ENDBRANCH  14  19
ENDBRANCH   7  13
BRANCH  11  28
HETATM   28  N   UNL     1      11.601  48.421  43.526  1.00  0.00    -0.282 NA
HETATM   29  H   UNL     1      11.622  47.983  42.609  1.00  0.00     0.126 HD
HETATM   30  H   UNL     1      10.965  47.957  44.171  1.00  0.00     0.126 HD
ENDBRANCH  11  28
BRANCH   1  31
HETATM   31  C   UNL     1      17.498  49.106  46.774  1.00  0.00    -0.005 A 
HETATM   32  C   UNL     1      17.326  49.266  48.155  1.00  0.00     0.014 A 
HETATM   33  C   UNL     1      18.233  50.019  48.905  1.00  0.00     0.008 A 
HETATM   34  C   UNL     1      19.331  50.629  48.287  1.00  0.00    -0.058 A 
HETATM   35  C   UNL     1      19.502  50.474  46.905  1.00  0.00     0.008 A 
HETATM   36  C   UNL     1      18.590  49.725  46.156  1.00  0.00     0.014 A 
BRANCH  34  37
HETATM   37  C   UNL     1      20.311  51.449  49.092  1.00  0.00     0.042 C 
BRANCH  37  38
HETATM   38  C   UNL     1      21.633  50.716  49.392  1.00  0.00    -0.019 C 
HETATM   39  C   UNL     1      22.756  51.152  48.448  1.00  0.00     0.010 C 
HETATM   40  C   UNL     1      21.422  49.205  49.281  1.00  0.00     0.010 C 
ENDBRANCH  37  38
ENDBRANCH  34  37
ENDBRANCH   1  31
TORSDOF 7
ENDMDL
MODEL 6
REMARK VINA RESULT:      -6.9     20.958     23.669
REMARK  7 active torsions:
REMARK  status: ('A' for Active; 'I' for Inactive)
REMARK    1  A    between atoms: C_2  and  C_3 
REMARK    2  A    between atoms: C_3  and  C_4 
REMARK    3  A    between atoms: C_7  and  C_8 
REMARK    4  A    between atoms: C_14  and  C_15 
REMARK    5  A    between atoms: C_16  and  O_17 
REMARK    6  A    between atoms: O_17  and  C_18 
REMARK       I    between atoms: C_18  and  N_19 
REMARK    7  A    between atoms: C_33  and  N_34 
ROOT
HETATM    1  C   UNL     1      27.203  41.933  50.704  1.00  0.00     0.099 A 
HETATM    2  N   UNL     1      28.161  42.318  51.573  1.00  0.00    -0.172 NA
HETATM    3  N   UNL     1      28.936  41.231  51.741  1.00  0.00    -0.256 N 
HETATM    4  H   UNL     1      29.719  41.283  52.382  1.00  0.00     0.191 HD
HETATM    5  C   UNL     1      28.524  40.175  51.000  1.00  0.00     0.175 A 
HETATM    6  C   UNL     1      27.429  40.592  50.288  1.00  0.00     0.040 A 
HETATM    7  C   UNL     1      26.759  39.646  49.350  1.00  0.00     0.109 A 
HETATM    8  C   UNL     1      27.360  38.244  49.484  1.00  0.00     0.081 A 
HETATM    9  C   UNL     1      26.673  37.197  48.804  1.00  0.00     0.100 C 
HETATM   10  N   UNL     1      26.092  36.351  48.261  1.00  0.00    -0.191 NA
HETATM   11  C   UNL     1      28.448  37.975  50.257  1.00  0.00     0.140 A 
HETATM   12  O   UNL     1      29.097  38.978  51.000  1.00  0.00    -0.279 OA
ENDROOT
BRANCH   7  13
HETATM   13  C   UNL     1      26.924  40.212  47.944  1.00  0.00    -0.010 A 
HETATM   14  C   UNL     1      25.818  40.307  47.074  1.00  0.00     0.088 A 
HETATM   15  C   UNL     1      25.968  40.740  45.754  1.00  0.00     0.038 A 
HETATM   16  C   UNL     1      27.227  41.113  45.285  1.00  0.00     0.003 A 
HETATM   17  C   UNL     1      28.335  41.030  46.123  1.00  0.00     0.001 A 
HETATM   18  C   UNL     1      28.189  40.573  47.433  1.00  0.00     0.011 A 
BRANCH  14  19
HETATM   19  O   UNL     1      24.571  39.848  47.576  1.00  0.00    -0.261 OA
BRANCH  19  20
HETATM   20  C   UNL     1      23.326  40.451  47.366  1.00  0.00     0.368 C 
HETATM   21  N   UNL     1      22.359  39.537  46.972  1.00  0.00    -0.324 N 
HETATM   22  C   UNL     1      22.679  38.159  46.599  1.00  0.00     0.154 C 
HETATM   23  C   UNL     1      21.109  40.051  46.415  1.00  0.00     0.154 C 
HETATM   24  C   UNL     1      21.464  37.242  46.769  1.00  0.00     0.187 C 
HETATM   25  O   UNL     1      20.321  37.760  46.073  1.00  0.00    -0.388 OA
HETATM   26  C   UNL     1      19.963  39.053  46.584  1.00  0.00     0.187 C 
HETATM   27  O   UNL     1      23.097  41.646  47.520  1.00  0.00    -0.238 OA
ENDBRANCH  19  20
ENDBRANCH  14  19
ENDBRANCH   7  13
BRANCH  11  28
HETATM   28  N   UNL     1      29.027  36.736  50.418  1.00  0.00    -0.282 NA
HETATM   29  H   UNL     1      29.703  36.472  49.705  1.00  0.00     0.126 HD
HETATM   30  H   UNL     1      29.375  36.597  51.364  1.00  0.00     0.126 HD
ENDBRANCH  11  28
BRANCH   1  31
HETATM   31  C   UNL     1      26.136  42.854  50.313  1.00  0.00    -0.005 A 
HETATM   32  C   UNL     1      24.808  42.574  50.662  1.00  0.00     0.014 A 
HETATM   33  C   UNL     1      23.774  43.434  50.282  1.00  0.00     0.008 A 
HETATM   34  C   UNL     1      24.048  44.591  49.543  1.00  0.00    -0.058 A 
HETATM   35  C   UNL     1      25.374  44.870  49.190  1.00  0.00     0.008 A 
HETATM   36  C   UNL     1      26.407  44.006  49.566  1.00  0.00     0.014 A 
BRANCH  34  37
HETATM   37  C   UNL     1      22.933  45.520  49.125  1.00  0.00     0.042 C 
BRANCH  37  38
HETATM   38  C   UNL     1      21.878  44.855  48.221  1.00  0.00    -0.019 C 
HETATM   39  C   UNL     1      22.191  45.053  46.735  1.00  0.00     0.010 C 
HETATM   40  C   UNL     1      20.494  45.425  48.537  1.00  0.00     0.010 C 
ENDBRANCH  37  38
ENDBRANCH  34  37
ENDBRANCH   1  31
TORSDOF 7
ENDMDL
MODEL 7
REMARK VINA RESULT:      -6.9     28.175     31.010
REMARK  7 active torsions:
REMARK  status: ('A' for Active; 'I' for Inactive)
REMARK    1  A    between atoms: C_2  and  C_3 
REMARK    2  A    between atoms: C_3  and  C_4 
REMARK    3  A    between atoms: C_7  and  C_8 
REMARK    4  A    between atoms: C_14  and  C_15 
REMARK    5  A    between atoms: C_16  and  O_17 
REMARK    6  A    between atoms: O_17  and  C_18 
REMARK       I    between atoms: C_18  and  N_19 
REMARK    7  A    between atoms: C_33  and  N_34 
ROOT
HETATM    1  C   UNL     1      17.432  51.984  49.037  1.00  0.00     0.099 A 
HETATM    2  N   UNL     1      17.152  52.348  50.306  1.00  0.00    -0.172 NA
HETATM    3  N   UNL     1      15.986  53.014  50.228  1.00  0.00    -0.256 N 
HETATM    4  H   UNL     1      15.589  53.406  51.073  1.00  0.00     0.191 HD
HETATM    5  C   UNL     1      15.500  53.072  48.964  1.00  0.00     0.175 A 
HETATM    6  C   UNL     1      16.383  52.390  48.167  1.00  0.00     0.040 A 
HETATM    7  C   UNL     1      16.103  52.258  46.709  1.00  0.00     0.109 A 
HETATM    8  C   UNL     1      14.884  53.099  46.319  1.00  0.00     0.081 A 
HETATM    9  C   UNL     1      14.634  53.235  44.923  1.00  0.00     0.100 C 
HETATM   10  N   UNL     1      14.454  53.354  43.782  1.00  0.00    -0.191 NA
HETATM   11  C   UNL     1      14.107  53.745  47.231  1.00  0.00     0.140 A 
HETATM   12  O   UNL     1      14.380  53.690  48.610  1.00  0.00    -0.279 OA
ENDROOT
BRANCH   7  13
HETATM   13  C   UNL     1      15.896  50.775  46.421  1.00  0.00    -0.010 A 
HETATM   14  C   UNL     1      16.374  50.201  45.226  1.00  0.00     0.088 A 
HETATM   15  C   UNL     1      16.116  48.866  44.908  1.00  0.00     0.038 A 
HETATM   16  C   UNL     1      15.395  48.068  45.795  1.00  0.00     0.003 A 
HETATM   17  C   UNL     1      14.912  48.608  46.983  1.00  0.00     0.001 A 
HETATM   18  C   UNL     1      15.148  49.949  47.288  1.00  0.00     0.011 A 
BRANCH  14  19
HETATM   19  O   UNL     1      17.040  51.073  44.323  1.00  0.00    -0.261 OA
BRANCH  19  20
HETATM   20  C   UNL     1      18.344  50.918  43.839  1.00  0.00     0.368 C 
HETATM   21  N   UNL     1      18.444  51.228  42.490  1.00  0.00    -0.324 N 
HETATM   22  C   UNL     1      17.273  51.458  41.643  1.00  0.00     0.154 C 
HETATM   23  C   UNL     1      19.650  50.817  41.775  1.00  0.00     0.154 C 
HETATM   24  C   UNL     1      17.631  52.311  40.423  1.00  0.00     0.187 C 
HETATM   25  O   UNL     1      18.741  51.754  39.705  1.00  0.00    -0.388 OA
HETATM   26  C   UNL     1      19.903  51.691  40.546  1.00  0.00     0.187 C 
HETATM   27  O   UNL     1      19.300  50.562  44.518  1.00  0.00    -0.238 OA
ENDBRANCH  19  20
ENDBRANCH  14  19
ENDBRANCH   7  13
BRANCH  11  28
HETATM   28  N   UNL     1      13.006  54.518  46.938  1.00  0.00    -0.282 NA
HETATM   29  H   UNL     1      13.173  55.297  46.306  1.00  0.00     0.126 HD
HETATM   30  H   UNL     1      12.205  53.953  46.666  1.00  0.00     0.126 HD
ENDBRANCH  11  28
BRANCH   1  31
HETATM   31  C   UNL     1      18.668  51.269  48.721  1.00  0.00    -0.005 A 
HETATM   32  C   UNL     1      19.891  51.952  48.722  1.00  0.00     0.014 A 
HETATM   33  C   UNL     1      21.079  51.289  48.405  1.00  0.00     0.008 A 
HETATM   34  C   UNL     1      21.068  49.928  48.080  1.00  0.00    -0.058 A 
HETATM   35  C   UNL     1      19.846  49.243  48.075  1.00  0.00     0.008 A 
HETATM   36  C   UNL     1      18.657  49.910  48.385  1.00  0.00     0.014 A 
BRANCH  34  37
HETATM   37  C   UNL     1      22.349  49.208  47.731  1.00  0.00     0.042 C 
BRANCH  37  38
HETATM   38  C   UNL     1      23.509  49.503  48.700  1.00  0.00    -0.019 C 
HETATM   39  C   UNL     1      24.755  50.007  47.966  1.00  0.00     0.010 C 
HETATM   40  C   UNL     1      23.854  48.240  49.493  1.00  0.00     0.010 C 
ENDBRANCH  37  38
ENDBRANCH  34  37
ENDBRANCH   1  31
TORSDOF 7
ENDMDL
MODEL 8
REMARK VINA RESULT:      -6.7     28.771     31.411
REMARK  7 active torsions:
REMARK  status: ('A' for Active; 'I' for Inactive)
REMARK    1  A    between atoms: C_2  and  C_3 
REMARK    2  A    between atoms: C_3  and  C_4 
REMARK    3  A    between atoms: C_7  and  C_8 
REMARK    4  A    between atoms: C_14  and  C_15 
REMARK    5  A    between atoms: C_16  and  O_17 
REMARK    6  A    between atoms: O_17  and  C_18 
REMARK       I    between atoms: C_18  and  N_19 
REMARK    7  A    between atoms: C_33  and  N_34 
ROOT
HETATM    1  C   UNL     1      16.838  47.029  45.928  1.00  0.00     0.099 A 
HETATM    2  N   UNL     1      17.041  45.731  45.621  1.00  0.00    -0.172 NA
HETATM    3  N   UNL     1      16.060  45.420  44.756  1.00  0.00    -0.256 N 
HETATM    4  H   UNL     1      16.001  44.473  44.402  1.00  0.00     0.191 HD
HETATM    5  C   UNL     1      15.250  46.472  44.483  1.00  0.00     0.175 A 
HETATM    6  C   UNL     1      15.735  47.541  45.191  1.00  0.00     0.040 A 
HETATM    7  C   UNL     1      15.060  48.865  45.074  1.00  0.00     0.109 A 
HETATM    8  C   UNL     1      13.771  48.739  44.257  1.00  0.00     0.081 A 
HETATM    9  C   UNL     1      12.917  49.880  44.247  1.00  0.00     0.100 C 
HETATM   10  N   UNL     1      12.222  50.810  44.265  1.00  0.00    -0.191 NA
HETATM   11  C   UNL     1      13.406  47.591  43.622  1.00  0.00     0.140 A 
HETATM   12  O   UNL     1      14.193  46.427  43.681  1.00  0.00    -0.279 OA
ENDROOT
BRANCH   7  13
HETATM   13  C   UNL     1      16.056  49.826  44.434  1.00  0.00    -0.010 A 
HETATM   14  C   UNL     1      16.372  51.051  45.055  1.00  0.00     0.088 A 
HETATM   15  C   UNL     1      17.215  51.980  44.439  1.00  0.00     0.038 A 
HETATM   16  C   UNL     1      17.781  51.689  43.199  1.00  0.00     0.003 A 
HETATM   17  C   UNL     1      17.487  50.486  42.565  1.00  0.00     0.001 A 
HETATM   18  C   UNL     1      16.624  49.569  43.169  1.00  0.00     0.011 A 
BRANCH  14  19
HETATM   19  O   UNL     1      15.714  51.333  46.283  1.00  0.00    -0.261 OA
BRANCH  19  20
HETATM   20  C   UNL     1      15.031  52.512  46.600  1.00  0.00     0.368 C 
HETATM   21  N   UNL     1      15.222  52.889  47.921  1.00  0.00    -0.324 N 
HETATM   22  C   UNL     1      15.868  52.022  48.907  1.00  0.00     0.154 C 
HETATM   23  C   UNL     1      14.335  53.906  48.484  1.00  0.00     0.154 C 
HETATM   24  C   UNL     1      16.459  52.837  50.061  1.00  0.00     0.187 C 
HETATM   25  O   UNL     1      15.476  53.707  50.640  1.00  0.00    -0.388 OA
HETATM   26  C   UNL     1      14.986  54.635  49.660  1.00  0.00     0.187 C 
HETATM   27  O   UNL     1      14.349  53.155  45.810  1.00  0.00    -0.238 OA
ENDBRANCH  19  20
ENDBRANCH  14  19
ENDBRANCH   7  13
BRANCH  11  28
HETATM   28  N   UNL     1      12.259  47.420  42.880  1.00  0.00    -0.282 NA
HETATM   29  H   UNL     1      11.390  47.643  43.358  1.00  0.00     0.126 HD
HETATM   30  H   UNL     1      12.329  47.854  41.962  1.00  0.00     0.126 HD
ENDBRANCH  11  28
BRANCH   1  31
HETATM   31  C   UNL     1      17.698  47.712  46.894  1.00  0.00    -0.005 A 
HETATM   32  C   UNL     1      17.144  48.270  48.054  1.00  0.00     0.014 A 
HETATM   33  C   UNL     1      17.948  48.941  48.978  1.00  0.00     0.008 A 
HETATM   34  C   UNL     1      19.325  49.067  48.761  1.00  0.00    -0.058 A 
HETATM   35  C   UNL     1      19.881  48.514  47.601  1.00  0.00     0.008 A 
HETATM   36  C   UNL     1      19.074  47.848  46.673  1.00  0.00     0.014 A 
BRANCH  34  37
HETATM   37  C   UNL     1      20.198  49.796  49.755  1.00  0.00     0.042 C 
BRANCH  37  38
HETATM   38  C   UNL     1      20.675  51.177  49.266  1.00  0.00    -0.019 C 
HETATM   39  C   UNL     1      19.633  51.862  48.378  1.00  0.00     0.010 C 
HETATM   40  C   UNL     1      21.989  51.026  48.497  1.00  0.00     0.010 C 
ENDBRANCH  37  38
ENDBRANCH  34  37
ENDBRANCH   1  31
TORSDOF 7
ENDMDL
MODEL 9
REMARK VINA RESULT:      -6.7      2.930      5.805
REMARK  7 active torsions:
REMARK  status: ('A' for Active; 'I' for Inactive)
REMARK    1  A    between atoms: C_2  and  C_3 
REMARK    2  A    between atoms: C_3  and  C_4 
REMARK    3  A    between atoms: C_7  and  C_8 
REMARK    4  A    between atoms: C_14  and  C_15 
REMARK    5  A    between atoms: C_16  and  O_17 
REMARK    6  A    between atoms: O_17  and  C_18 
REMARK       I    between atoms: C_18  and  N_19 
REMARK    7  A    between atoms: C_33  and  N_34 
ROOT
HETATM    1  C   UNL     1      40.023  43.930  64.193  1.00  0.00     0.099 A 
HETATM    2  N   UNL     1      40.184  43.153  63.103  1.00  0.00    -0.172 NA
HETATM    3  N   UNL     1      39.003  42.530  62.941  1.00  0.00    -0.256 N 
HETATM    4  H   UNL     1      38.900  41.867  62.182  1.00  0.00     0.191 HD
HETATM    5  C   UNL     1      38.088  42.894  63.872  1.00  0.00     0.175 A 
HETATM    6  C   UNL     1      38.691  43.822  64.681  1.00  0.00     0.040 A 
HETATM    7  C   UNL     1      37.918  44.435  65.797  1.00  0.00     0.109 A 
HETATM    8  C   UNL     1      36.555  43.752  65.943  1.00  0.00     0.081 A 
HETATM    9  C   UNL     1      35.801  44.092  67.104  1.00  0.00     0.100 C 
HETATM   10  N   UNL     1      35.207  44.364  68.064  1.00  0.00    -0.191 NA
HETATM   11  C   UNL     1      36.096  42.820  65.064  1.00  0.00     0.140 A 
HETATM   12  O   UNL     1      36.855  42.410  63.952  1.00  0.00    -0.279 OA
ENDROOT
BRANCH   7  13
HETATM   13  C   UNL     1      37.787  45.923  65.494  1.00  0.00    -0.010 A 
HETATM   14  C   UNL     1      38.470  46.879  66.273  1.00  0.00     0.088 A 
HETATM   15  C   UNL     1      38.292  48.248  66.063  1.00  0.00     0.038 A 
HETATM   16  C   UNL     1      37.445  48.691  65.048  1.00  0.00     0.003 A 
HETATM   17  C   UNL     1      36.759  47.769  64.263  1.00  0.00     0.001 A 
HETATM   18  C   UNL     1      36.918  46.401  64.490  1.00  0.00     0.011 A 
BRANCH  14  19
HETATM   19  O   UNL     1      39.265  46.380  67.340  1.00  0.00    -0.261 OA
BRANCH  19  20
HETATM   20  C   UNL     1      39.001  46.535  68.706  1.00  0.00     0.368 C 
HETATM   21  N   UNL     1      40.030  47.191  69.368  1.00  0.00    -0.324 N 
HETATM   22  C   UNL     1      41.324  47.468  68.742  1.00  0.00     0.154 C 
HETATM   23  C   UNL     1      40.049  47.148  70.828  1.00  0.00     0.154 C 
HETATM   24  C   UNL     1      42.027  48.646  69.421  1.00  0.00     0.187 C 
HETATM   25  O   UNL     1      42.121  48.450  70.839  1.00  0.00    -0.388 OA
HETATM   26  C   UNL     1      40.813  48.334  71.419  1.00  0.00     0.187 C 
HETATM   27  O   UNL     1      37.980  46.152  69.265  1.00  0.00    -0.238 OA
ENDBRANCH  19  20
ENDBRANCH  14  19
ENDBRANCH   7  13
BRANCH  11  28
HETATM   28  N   UNL     1      34.884  42.172  65.147  1.00  0.00    -0.282 NA
HETATM   29  H   UNL     1      34.910  41.171  64.967  1.00  0.00     0.126 HD
HETATM   30  H   UNL     1      34.382  42.407  66.000  1.00  0.00     0.126 HD
ENDBRANCH  11  28
BRANCH   1  31
HETATM   31  C   UNL     1      41.132  44.734  64.708  1.00  0.00    -0.005 A 
HETATM   32  C   UNL     1      41.992  44.201  65.676  1.00  0.00     0.014 A 
HETATM   33  C   UNL     1      43.046  44.961  66.192  1.00  0.00     0.008 A 
HETATM   34  C   UNL     1      43.258  46.271  65.749  1.00  0.00    -0.058 A 
HETATM   35  C   UNL     1      42.397  46.808  64.784  1.00  0.00     0.008 A 
HETATM   36  C   UNL     1      41.339  46.049  64.274  1.00  0.00     0.014 A 
BRANCH  34  37
HETATM   37  C   UNL     1      44.392  47.098  66.307  1.00  0.00     0.042 C 
BRANCH  37  38
HETATM   38  C   UNL     1      45.415  47.545  65.246  1.00  0.00    -0.019 C 
HETATM   39  C   UNL     1      46.109  46.353  64.582  1.00  0.00     0.010 C 
HETATM   40  C   UNL     1      46.461  48.458  65.889  1.00  0.00     0.010 C 
ENDBRANCH  37  38
ENDBRANCH  34  37
ENDBRANCH   1  31
TORSDOF 7
ENDMDL
MODEL 10
REMARK VINA RESULT:      -6.6     27.246     30.420
REMARK  7 active torsions:
REMARK  status: ('A' for Active; 'I' for Inactive)
REMARK    1  A    between atoms: C_2  and  C_3 
REMARK    2  A    between atoms: C_3  and  C_4 
REMARK    3  A    between atoms: C_7  and  C_8 
REMARK    4  A    between atoms: C_14  and  C_15 
REMARK    5  A    between atoms: C_16  and  O_17 
REMARK    6  A    between atoms: O_17  and  C_18 
REMARK       I    between atoms: C_18  and  N_19 
REMARK    7  A    between atoms: C_33  and  N_34 
ROOT
HETATM    1  C   UNL     1      23.414  46.333  41.182  1.00  0.00     0.099 A 
HETATM    2  N   UNL     1      22.143  46.495  41.605  1.00  0.00    -0.172 NA
HETATM    3  N   UNL     1      21.711  47.611  40.992  1.00  0.00    -0.256 N 
HETATM    4  H   UNL     1      20.773  47.943  41.183  1.00  0.00     0.191 HD
HETATM    5  C   UNL     1      22.646  48.157  40.178  1.00  0.00     0.175 A 
HETATM    6  C   UNL     1      23.750  47.347  40.242  1.00  0.00     0.040 A 
HETATM    7  C   UNL     1      24.952  47.678  39.425  1.00  0.00     0.109 A 
HETATM    8  C   UNL     1      24.778  49.038  38.743  1.00  0.00     0.081 A 
HETATM    9  C   UNL     1      25.934  49.576  38.105  1.00  0.00     0.100 C 
HETATM   10  N   UNL     1      26.888  50.010  37.607  1.00  0.00    -0.191 NA
HETATM   11  C   UNL     1      23.615  49.745  38.787  1.00  0.00     0.140 A 
HETATM   12  O   UNL     1      22.484  49.272  39.477  1.00  0.00    -0.279 OA
ENDROOT
BRANCH   7  13
HETATM   13  C   UNL     1      25.139  46.549  38.418  1.00  0.00    -0.010 A 
HETATM   14  C   UNL     1      26.367  45.863  38.326  1.00  0.00     0.088 A 
HETATM   15  C   UNL     1      26.583  44.887  37.351  1.00  0.00     0.038 A 
HETATM   16  C   UNL     1      25.561  44.557  36.461  1.00  0.00     0.003 A 
HETATM   17  C   UNL     1      24.339  45.217  36.530  1.00  0.00     0.001 A 
HETATM   18  C   UNL     1      24.133  46.210  37.488  1.00  0.00     0.011 A 
BRANCH  14  19
HETATM   19  O   UNL     1      27.400  46.285  39.207  1.00  0.00    -0.261 OA
BRANCH  19  20
HETATM   20  C   UNL     1      28.557  46.983  38.845  1.00  0.00     0.368 C 
HETATM   21  N   UNL     1      28.958  47.879  39.826  1.00  0.00    -0.324 N 
HETATM   22  C   UNL     1      28.126  48.208  40.985  1.00  0.00     0.154 C 
HETATM   23  C   UNL     1      29.947  48.894  39.471  1.00  0.00     0.154 C 
HETATM   24  C   UNL     1      28.977  48.725  42.148  1.00  0.00     0.187 C 
HETATM   25  O   UNL     1      29.817  49.813  41.736  1.00  0.00    -0.388 OA
HETATM   26  C   UNL     1      30.714  49.389  40.698  1.00  0.00     0.187 C 
HETATM   27  O   UNL     1      29.164  46.825  37.792  1.00  0.00    -0.238 OA
ENDBRANCH  19  20
ENDBRANCH  14  19
ENDBRANCH   7  13
BRANCH  11  28
HETATM   28  N   UNL     1      23.404  50.972  38.199  1.00  0.00    -0.282 NA
HETATM   29  H   UNL     1      22.570  51.043  37.621  1.00  0.00     0.126 HD
HETATM   30  H   UNL     1      23.489  51.735  38.866  1.00  0.00     0.126 HD
ENDBRANCH  11  28
BRANCH   1  31
HETATM   31  C   UNL     1      24.233  45.230  41.682  1.00  0.00    -0.005 A 
HETATM   32  C   UNL     1      25.550  45.468  42.095  1.00  0.00     0.014 A 
HETATM   33  C   UNL     1      26.353  44.423  42.559  1.00  0.00     0.008 A 
HETATM   34  C   UNL     1      25.854  43.117  42.619  1.00  0.00    -0.058 A 
HETATM   35  C   UNL     1      24.538  42.876  42.203  1.00  0.00     0.008 A 
HETATM   36  C   UNL     1      23.738  43.922  41.733  1.00  0.00     0.014 A 
BRANCH  34  37
HETATM   37  C   UNL     1      26.719  41.983  43.115  1.00  0.00     0.042 C 
BRANCH  37  38
HETATM   38  C   UNL     1      28.081  41.885  42.402  1.00  0.00    -0.019 C 
HETATM   39  C   UNL     1      27.940  41.384  40.962  1.00  0.00     0.010 C 
HETATM   40  C   UNL     1      29.007  40.951  43.184  1.00  0.00     0.010 C 
ENDBRANCH  37  38
ENDBRANCH  34  37
ENDBRANCH   1  31
TORSDOF 7
ENDMDL
