MODEL 1
REMARK VINA RESULT:      -8.6      0.000      0.000
REMARK  5 active torsions:
REMARK  status: ('A' for Active; 'I' for Inactive)
REMARK    1  A    between atoms: C_2  and  O_3 
REMARK    2  A    between atoms: C_2  and  C_4 
REMARK    3  A    between atoms: C_7  and  N_8 
REMARK    4  A    between atoms: N_12  and  C_13 
REMARK    5  A    between atoms: C_13  and  C_14 
ROOT
HETATM    1  N   UNL     1      25.019  44.968  50.685  1.00  0.00    -0.367 N 
HETATM    2  C   UNL     1      26.394  44.886  50.137  1.00  0.00     0.127 C 
HETATM    3  C   UNL     1      27.441  44.635  51.228  1.00  0.00     0.068 C 
HETATM    4  C   UNL     1      26.983  43.640  52.324  1.00  0.00     0.206 C 
HETATM    5  N   UNL     1      28.004  43.481  53.447  1.00  0.00     0.105 N 
HETATM    6  C   UNL     1      29.124  42.533  53.112  1.00  0.00     0.280 C 
HETATM    7  C   UNL     1      28.671  41.088  52.830  1.00  0.00     0.089 C 
HETATM    8  C   UNL     1      27.528  41.147  51.919  1.00  0.00     0.037 A 
HETATM    9  C   UNL     1      26.770  42.268  51.680  1.00  0.00     0.072 A 
HETATM   10  N   UNL     1      25.766  41.860  50.811  1.00  0.00    -0.352 N 
HETATM   11  H   UNL     1      25.004  42.451  50.485  1.00  0.00     0.166 HD
HETATM   12  C   UNL     1      25.892  40.558  50.525  1.00  0.00     0.181 A 
HETATM   13  N   UNL     1      26.973  40.125  51.177  1.00  0.00    -0.354 N 
HETATM   14  H   UNL     1      27.309  39.163  51.161  1.00  0.00     0.166 HD
HETATM   15  C   UNL     1      25.595  44.058  52.899  1.00  0.00     0.068 C 
HETATM   16  C   UNL     1      24.935  45.206  52.132  1.00  0.00     0.127 C 
ENDROOT
BRANCH   5  17
HETATM   17  C   UNL     1      28.650  44.727  53.953  1.00  0.00     0.277 C 
BRANCH  17  18
HETATM   18  C   UNL     1      27.993  45.445  55.149  1.00  0.00     0.006 C 
HETATM   19  C   UNL     1      29.016  45.776  56.240  1.00  0.00     0.011 C 
HETATM   20  C   UNL     1      27.326  46.741  54.673  1.00  0.00     0.011 C 
ENDBRANCH  17  18
ENDBRANCH   5  17
BRANCH   1  21
HETATM   21  C   UNL     1      24.157  45.711  49.854  1.00  0.00     0.103 A 
HETATM   22  N   UNL     1      24.178  47.051  49.816  1.00  0.00    -0.344 N 
HETATM   23  C   UNL     1      23.385  47.813  49.036  1.00  0.00     0.039 A 
HETATM   24  H   UNL     1      24.847  47.598  50.363  1.00  0.00     0.167 HD
HETATM   25  C   UNL     1      22.452  47.203  48.205  1.00  0.00     0.028 A 
HETATM   26  C   UNL     1      22.364  45.817  48.208  1.00  0.00     0.006 A 
HETATM   27  C   UNL     1      23.212  45.072  49.028  1.00  0.00     0.048 A 
BRANCH  23  28
HETATM   28  C   UNL     1      23.622  49.291  49.130  1.00  0.00     0.163 C 
HETATM   29  C   UNL     1      23.301  50.029  47.839  1.00  0.00     0.046 C 
BRANCH  28  30
HETATM   30  O   UNL     1      22.728  49.745  50.165  1.00  0.00    -0.390 OA
HETATM   31  H   UNL     1      23.050  50.631  50.437  1.00  0.00     0.210 HD
ENDBRANCH  28  30
ENDBRANCH  23  28
ENDBRANCH   1  21
TORSDOF 5
ENDMDL
MODEL 2
REMARK VINA RESULT:      -8.6      1.708      2.384
REMARK  5 active torsions:
REMARK  status: ('A' for Active; 'I' for Inactive)
REMARK    1  A    between atoms: C_2  and  O_3 
REMARK    2  A    between atoms: C_2  and  C_4 
REMARK    3  A    between atoms: C_7  and  N_8 
REMARK    4  A    between atoms: N_12  and  C_13 
REMARK    5  A    between atoms: C_13  and  C_14 
ROOT
HETATM    1  N   UNL     1      25.236  46.370  50.300  1.00  0.00    -0.367 N 
HETATM    2  C   UNL     1      26.359  45.792  49.524  1.00  0.00     0.127 C 
HETATM    3  C   UNL     1      27.206  44.826  50.360  1.00  0.00     0.068 C 
HETATM    4  C   UNL     1      26.380  43.928  51.315  1.00  0.00     0.206 C 
HETATM    5  N   UNL     1      27.252  43.045  52.203  1.00  0.00     0.105 N 
HETATM    6  C   UNL     1      27.739  41.797  51.516  1.00  0.00     0.280 C 
HETATM    7  C   UNL     1      26.619  40.847  51.054  1.00  0.00     0.089 C 
HETATM    8  C   UNL     1      25.603  41.650  50.373  1.00  0.00     0.037 A 
HETATM    9  C   UNL     1      25.483  43.016  50.475  1.00  0.00     0.072 A 
HETATM   10  N   UNL     1      24.362  43.348  49.726  1.00  0.00    -0.352 N 
HETATM   11  H   UNL     1      23.972  44.285  49.646  1.00  0.00     0.166 HD
HETATM   12  C   UNL     1      23.813  42.251  49.188  1.00  0.00     0.181 A 
HETATM   13  N   UNL     1      24.576  41.220  49.560  1.00  0.00    -0.354 N 
HETATM   14  H   UNL     1      24.393  40.248  49.311  1.00  0.00     0.166 HD
HETATM   15  C   UNL     1      25.413  44.792  52.181  1.00  0.00     0.068 C 
HETATM   16  C   UNL     1      25.362  46.262  51.759  1.00  0.00     0.127 C 
ENDROOT
BRANCH   5  17
HETATM   17  C   UNL     1      28.456  43.680  52.814  1.00  0.00     0.277 C 
BRANCH  17  18
HETATM   18  C   UNL     1      28.601  43.622  54.347  1.00  0.00     0.006 C 
HETATM   19  C   UNL     1      30.039  43.305  54.767  1.00  0.00     0.011 C 
HETATM   20  C   UNL     1      28.181  44.964  54.960  1.00  0.00     0.011 C 
ENDBRANCH  17  18
ENDBRANCH   5  17
BRANCH   1  21
HETATM   21  C   UNL     1      24.806  47.606  49.776  1.00  0.00     0.103 A 
HETATM   22  N   UNL     1      23.518  47.977  49.780  1.00  0.00    -0.344 N 
HETATM   23  C   UNL     1      23.051  49.148  49.301  1.00  0.00     0.039 A 
HETATM   24  H   UNL     1      22.788  47.395  50.198  1.00  0.00     0.167 HD
HETATM   25  C   UNL     1      23.937  50.060  48.740  1.00  0.00     0.028 A 
HETATM   26  C   UNL     1      25.285  49.733  48.687  1.00  0.00     0.006 A 
HETATM   27  C   UNL     1      25.720  48.511  49.202  1.00  0.00     0.048 A 
BRANCH  23  28
HETATM   28  C   UNL     1      21.574  49.361  49.457  1.00  0.00     0.163 C 
HETATM   29  C   UNL     1      20.968  50.178  48.326  1.00  0.00     0.046 C 
BRANCH  28  30
HETATM   30  O   UNL     1      21.005  48.037  49.438  1.00  0.00    -0.390 OA
HETATM   31  H   UNL     1      21.740  47.420  49.644  1.00  0.00     0.210 HD
ENDBRANCH  28  30
ENDBRANCH  23  28
ENDBRANCH   1  21
TORSDOF 5
ENDMDL
MODEL 3
REMARK VINA RESULT:      -8.1      1.422      3.856
REMARK  5 active torsions:
REMARK  status: ('A' for Active; 'I' for Inactive)
REMARK    1  A    between atoms: C_2  and  O_3 
REMARK    2  A    between atoms: C_2  and  C_4 
REMARK    3  A    between atoms: C_7  and  N_8 
REMARK    4  A    between atoms: N_12  and  C_13 
REMARK    5  A    between atoms: C_13  and  C_14 
ROOT
HETATM    1  N   UNL     1      24.981  45.621  50.328  1.00  0.00    -0.367 N 
HETATM    2  C   UNL     1      24.351  44.757  51.354  1.00  0.00     0.127 C 
HETATM    3  C   UNL     1      25.222  43.546  51.709  1.00  0.00     0.068 C 
HETATM    4  C   UNL     1      26.737  43.862  51.785  1.00  0.00     0.206 C 
HETATM    5  N   UNL     1      27.590  42.623  52.045  1.00  0.00     0.105 N 
HETATM    6  C   UNL     1      27.642  42.222  53.495  1.00  0.00     0.280 C 
HETATM    7  C   UNL     1      28.256  43.284  54.427  1.00  0.00     0.089 C 
HETATM    8  C   UNL     1      27.653  44.574  54.094  1.00  0.00     0.037 A 
HETATM    9  C   UNL     1      26.974  44.848  52.930  1.00  0.00     0.072 A 
HETATM   10  N   UNL     1      26.634  46.192  53.006  1.00  0.00    -0.352 N 
HETATM   11  H   UNL     1      26.169  46.717  52.268  1.00  0.00     0.166 HD
HETATM   12  C   UNL     1      27.075  46.726  54.152  1.00  0.00     0.181 A 
HETATM   13  N   UNL     1      27.675  45.742  54.827  1.00  0.00    -0.354 N 
HETATM   14  H   UNL     1      28.124  45.857  55.735  1.00  0.00     0.166 HD
HETATM   15  C   UNL     1      27.211  44.593  50.492  1.00  0.00     0.068 C 
HETATM   16  C   UNL     1      26.066  44.995  49.561  1.00  0.00     0.127 C 
ENDROOT
BRANCH   5  17
HETATM   17  C   UNL     1      27.237  41.388  51.285  1.00  0.00     0.277 C 
BRANCH  17  18
HETATM   18  C   UNL     1      28.115  41.012  50.075  1.00  0.00     0.006 C 
HETATM   19  C   UNL     1      28.482  39.525  50.084  1.00  0.00     0.011 C 
HETATM   20  C   UNL     1      27.374  41.341  48.773  1.00  0.00     0.011 C 
ENDBRANCH  17  18
ENDBRANCH   5  17
BRANCH   1  21
HETATM   21  C   UNL     1      24.031  46.377  49.611  1.00  0.00     0.103 A 
HETATM   22  N   UNL     1      23.979  47.715  49.682  1.00  0.00    -0.344 N 
HETATM   23  C   UNL     1      23.099  48.488  49.013  1.00  0.00     0.039 A 
HETATM   24  H   UNL     1      24.650  48.254  50.233  1.00  0.00     0.167 HD
HETATM   25  C   UNL     1      22.151  47.891  48.189  1.00  0.00     0.028 A 
HETATM   26  C   UNL     1      22.137  46.507  48.083  1.00  0.00     0.006 A 
HETATM   27  C   UNL     1      23.073  45.751  48.790  1.00  0.00     0.048 A 
BRANCH  23  28
HETATM   28  C   UNL     1      23.263  49.965  49.214  1.00  0.00     0.163 C 
HETATM   29  C   UNL     1      22.804  50.783  48.017  1.00  0.00     0.046 C 
BRANCH  28  30
HETATM   30  O   UNL     1      22.428  50.280  50.346  1.00  0.00    -0.390 OA
HETATM   31  H   UNL     1      21.501  50.227  50.026  1.00  0.00     0.210 HD
ENDBRANCH  28  30
ENDBRANCH  23  28
ENDBRANCH   1  21
TORSDOF 5
ENDMDL
MODEL 4
REMARK VINA RESULT:      -8.0     11.652     14.252
REMARK  5 active torsions:
REMARK  status: ('A' for Active; 'I' for Inactive)
REMARK    1  A    between atoms: C_2  and  O_3 
REMARK    2  A    between atoms: C_2  and  C_4 
REMARK    3  A    between atoms: C_7  and  N_8 
REMARK    4  A    between atoms: N_12  and  C_13 
REMARK    5  A    between atoms: C_13  and  C_14 
ROOT
HETATM    1  N   UNL     1      31.822  50.190  41.978  1.00  0.00    -0.367 N 
HETATM    2  C   UNL     1      31.659  50.242  40.506  1.00  0.00     0.127 C 
HETATM    3  C   UNL     1      30.719  49.148  39.986  1.00  0.00     0.068 C 
HETATM    4  C   UNL     1      29.490  48.890  40.894  1.00  0.00     0.206 C 
HETATM    5  N   UNL     1      28.623  47.733  40.405  1.00  0.00     0.105 N 
HETATM    6  C   UNL     1      27.676  48.118  39.300  1.00  0.00     0.280 C 
HETATM    7  C   UNL     1      26.649  49.197  39.689  1.00  0.00     0.089 C 
HETATM    8  C   UNL     1      27.366  50.270  40.379  1.00  0.00     0.037 A 
HETATM    9  C   UNL     1      28.626  50.153  40.917  1.00  0.00     0.072 A 
HETATM   10  N   UNL     1      28.887  51.375  41.522  1.00  0.00    -0.352 N 
HETATM   11  H   UNL     1      29.723  51.592  42.060  1.00  0.00     0.166 HD
HETATM   12  C   UNL     1      27.848  52.207  41.370  1.00  0.00     0.181 A 
HETATM   13  N   UNL     1      26.931  51.548  40.657  1.00  0.00    -0.354 N 
HETATM   14  H   UNL     1      26.021  51.927  40.399  1.00  0.00     0.166 HD
HETATM   15  C   UNL     1      29.937  48.656  42.369  1.00  0.00     0.068 C 
HETATM   16  C   UNL     1      31.424  48.924  42.609  1.00  0.00     0.127 C 
ENDROOT
BRANCH   5  17
HETATM   17  C   UNL     1      29.333  46.508  39.937  1.00  0.00     0.277 C 
BRANCH  17  18
HETATM   18  C   UNL     1      28.490  45.387  39.296  1.00  0.00     0.006 C 
HETATM   19  C   UNL     1      29.361  44.411  38.499  1.00  0.00     0.011 C 
HETATM   20  C   UNL     1      27.736  44.617  40.386  1.00  0.00     0.011 C 
ENDBRANCH  17  18
ENDBRANCH   5  17
BRANCH   1  21
HETATM   21  C   UNL     1      33.034  50.773  42.402  1.00  0.00     0.103 A 
HETATM   22  N   UNL     1      34.156  50.704  41.671  1.00  0.00    -0.344 N 
HETATM   23  C   UNL     1      35.338  51.249  42.021  1.00  0.00     0.039 A 
HETATM   24  H   UNL     1      34.177  50.255  40.752  1.00  0.00     0.167 HD
HETATM   25  C   UNL     1      35.448  51.928  43.228  1.00  0.00     0.028 A 
HETATM   26  C   UNL     1      34.329  52.023  44.044  1.00  0.00     0.006 A 
HETATM   27  C   UNL     1      33.125  51.449  43.634  1.00  0.00     0.048 A 
BRANCH  23  28
HETATM   28  C   UNL     1      36.443  51.081  41.019  1.00  0.00     0.163 C 
HETATM   29  C   UNL     1      37.810  50.915  41.663  1.00  0.00     0.046 C 
BRANCH  28  30
HETATM   30  O   UNL     1      36.111  49.876  40.301  1.00  0.00    -0.390 OA
HETATM   31  H   UNL     1      35.754  50.164  39.433  1.00  0.00     0.210 HD
ENDBRANCH  28  30
ENDBRANCH  23  28
ENDBRANCH   1  21
TORSDOF 5
ENDMDL
MODEL 5
REMARK VINA RESULT:      -7.8      2.483      6.523
REMARK  5 active torsions:
REMARK  status: ('A' for Active; 'I' for Inactive)
REMARK    1  A    between atoms: C_2  and  O_3 
REMARK    2  A    between atoms: C_2  and  C_4 
REMARK    3  A    between atoms: C_7  and  N_8 
REMARK    4  A    between atoms: N_12  and  C_13 
REMARK    5  A    between atoms: C_13  and  C_14 
ROOT
HETATM    1  N   UNL     1      27.490  43.665  52.257  1.00  0.00    -0.367 N 
HETATM    2  C   UNL     1      26.191  43.140  52.742  1.00  0.00     0.127 C 
HETATM    3  C   UNL     1      25.034  43.495  51.801  1.00  0.00     0.068 C 
HETATM    4  C   UNL     1      25.394  43.404  50.297  1.00  0.00     0.206 C 
HETATM    5  N   UNL     1      24.256  43.854  49.385  1.00  0.00     0.105 N 
HETATM    6  C   UNL     1      23.213  42.793  49.158  1.00  0.00     0.280 C 
HETATM    7  C   UNL     1      23.742  41.519  48.472  1.00  0.00     0.089 C 
HETATM    8  C   UNL     1      24.980  41.128  49.146  1.00  0.00     0.037 A 
HETATM    9  C   UNL     1      25.724  41.949  49.960  1.00  0.00     0.072 A 
HETATM   10  N   UNL     1      26.834  41.200  50.328  1.00  0.00    -0.352 N 
HETATM   11  H   UNL     1      27.610  41.546  50.889  1.00  0.00     0.166 HD
HETATM   12  C   UNL     1      26.785  39.982  49.775  1.00  0.00     0.181 A 
HETATM   13  N   UNL     1      25.649  39.925  49.074  1.00  0.00    -0.354 N 
HETATM   14  H   UNL     1      25.349  39.118  48.528  1.00  0.00     0.166 HD
HETATM   15  C   UNL     1      26.692  44.214  49.994  1.00  0.00     0.068 C 
HETATM   16  C   UNL     1      27.399  44.730  51.249  1.00  0.00     0.127 C 
ENDROOT
BRANCH   5  17
HETATM   17  C   UNL     1      23.515  45.086  49.786  1.00  0.00     0.277 C 
BRANCH  17  18
HETATM   18  C   UNL     1      24.006  46.436  49.227  1.00  0.00     0.006 C 
HETATM   19  C   UNL     1      22.862  47.232  48.591  1.00  0.00     0.011 C 
HETATM   20  C   UNL     1      24.635  47.266  50.351  1.00  0.00     0.011 C 
ENDBRANCH  17  18
ENDBRANCH   5  17
BRANCH   1  21
HETATM   21  C   UNL     1      28.418  43.840  53.304  1.00  0.00     0.103 A 
HETATM   22  N   UNL     1      28.381  44.900  54.125  1.00  0.00    -0.344 N 
HETATM   23  C   UNL     1      29.235  45.114  55.145  1.00  0.00     0.039 A 
HETATM   24  H   UNL     1      27.653  45.614  54.053  1.00  0.00     0.167 HD
HETATM   25  C   UNL     1      30.254  44.201  55.389  1.00  0.00     0.028 A 
HETATM   26  C   UNL     1      30.363  43.089  54.566  1.00  0.00     0.006 A 
HETATM   27  C   UNL     1      29.449  42.907  53.526  1.00  0.00     0.048 A 
BRANCH  23  28
HETATM   28  C   UNL     1      28.967  46.348  55.957  1.00  0.00     0.163 C 
HETATM   29  C   UNL     1      27.700  47.074  55.534  1.00  0.00     0.046 C 
BRANCH  28  30
HETATM   30  O   UNL     1      28.809  45.874  57.309  1.00  0.00    -0.390 OA
HETATM   31  H   UNL     1      29.319  46.491  57.877  1.00  0.00     0.210 HD
ENDBRANCH  28  30
ENDBRANCH  23  28
ENDBRANCH   1  21
TORSDOF 5
ENDMDL
MODEL 6
REMARK VINA RESULT:      -7.6      2.608      7.886
REMARK  5 active torsions:
REMARK  status: ('A' for Active; 'I' for Inactive)
REMARK    1  A    between atoms: C_2  and  O_3 
REMARK    2  A    between atoms: C_2  and  C_4 
REMARK    3  A    between atoms: C_7  and  N_8 
REMARK    4  A    between atoms: N_12  and  C_13 
REMARK    5  A    between atoms: C_13  and  C_14 
ROOT
HETATM    1  N   UNL     1      26.316  45.510  50.937  1.00  0.00    -0.367 N 
HETATM    2  C   UNL     1      26.080  45.400  49.478  1.00  0.00     0.127 C 
HETATM    3  C   UNL     1      24.863  46.212  49.023  1.00  0.00     0.068 C 
HETATM    4  C   UNL     1      24.721  47.584  49.729  1.00  0.00     0.206 C 
HETATM    5  N   UNL     1      23.451  48.330  49.329  1.00  0.00     0.105 N 
HETATM    6  C   UNL     1      23.572  49.062  48.019  1.00  0.00     0.280 C 
HETATM    7  C   UNL     1      24.654  50.158  48.001  1.00  0.00     0.089 C 
HETATM    8  C   UNL     1      25.872  49.595  48.584  1.00  0.00     0.037 A 
HETATM    9  C   UNL     1      25.921  48.455  49.350  1.00  0.00     0.072 A 
HETATM   10  N   UNL     1      27.247  48.327  49.742  1.00  0.00    -0.352 N 
HETATM   11  H   UNL     1      27.603  47.607  50.368  1.00  0.00     0.166 HD
HETATM   12  C   UNL     1      27.983  49.331  49.248  1.00  0.00     0.181 A 
HETATM   13  N   UNL     1      27.156  50.092  48.525  1.00  0.00    -0.354 N 
HETATM   14  H   UNL     1      27.435  50.943  48.039  1.00  0.00     0.166 HD
HETATM   15  C   UNL     1      24.793  47.414  51.277  1.00  0.00     0.068 C 
HETATM   16  C   UNL     1      25.175  46.000  51.721  1.00  0.00     0.127 C 
ENDROOT
BRANCH   5  17
HETATM   17  C   UNL     1      22.195  47.529  49.244  1.00  0.00     0.277 C 
BRANCH  17  18
HETATM   18  C   UNL     1      21.439  47.515  47.900  1.00  0.00     0.006 C 
HETATM   19  C   UNL     1      21.479  46.132  47.244  1.00  0.00     0.011 C 
HETATM   20  C   UNL     1      19.979  47.927  48.122  1.00  0.00     0.011 C 
ENDBRANCH  17  18
ENDBRANCH   5  17
BRANCH   1  21
HETATM   21  C   UNL     1      27.028  44.405  51.448  1.00  0.00     0.103 A 
HETATM   22  N   UNL     1      27.647  44.440  52.636  1.00  0.00    -0.344 N 
HETATM   23  C   UNL     1      28.334  43.413  53.177  1.00  0.00     0.039 A 
HETATM   24  H   UNL     1      27.603  45.259  53.246  1.00  0.00     0.167 HD
HETATM   25  C   UNL     1      28.443  42.218  52.477  1.00  0.00     0.028 A 
HETATM   26  C   UNL     1      27.840  42.119  51.230  1.00  0.00     0.006 A 
HETATM   27  C   UNL     1      27.134  43.207  50.716  1.00  0.00     0.048 A 
BRANCH  23  28
HETATM   28  C   UNL     1      28.903  43.671  54.541  1.00  0.00     0.163 C 
HETATM   29  C   UNL     1      30.339  43.192  54.687  1.00  0.00     0.046 C 
BRANCH  28  30
HETATM   30  O   UNL     1      28.868  45.104  54.692  1.00  0.00    -0.390 OA
HETATM   31  H   UNL     1      29.625  45.453  54.174  1.00  0.00     0.210 HD
ENDBRANCH  28  30
ENDBRANCH  23  28
ENDBRANCH   1  21
TORSDOF 5
ENDMDL
MODEL 7
REMARK VINA RESULT:      -7.6     11.048     13.457
REMARK  5 active torsions:
REMARK  status: ('A' for Active; 'I' for Inactive)
REMARK    1  A    between atoms: C_2  and  O_3 
REMARK    2  A    between atoms: C_2  and  C_4 
REMARK    3  A    between atoms: C_7  and  N_8 
REMARK    4  A    between atoms: N_12  and  C_13 
REMARK    5  A    between atoms: C_13  and  C_14 
ROOT
HETATM    1  N   UNL     1      28.923  47.847  40.553  1.00  0.00    -0.367 N 
HETATM    2  C   UNL     1      28.494  48.783  41.619  1.00  0.00     0.127 C 
HETATM    3  C   UNL     1      29.608  49.758  42.018  1.00  0.00     0.068 C 
HETATM    4  C   UNL     1      30.450  50.275  40.825  1.00  0.00     0.206 C 
HETATM    5  N   UNL     1      31.610  51.167  41.258  1.00  0.00     0.105 N 
HETATM    6  C   UNL     1      31.203  52.589  41.535  1.00  0.00     0.280 C 
HETATM    7  C   UNL     1      30.614  53.330  40.319  1.00  0.00     0.089 C 
HETATM    8  C   UNL     1      29.632  52.448  39.690  1.00  0.00     0.037 A 
HETATM    9  C   UNL     1      29.543  51.093  39.903  1.00  0.00     0.072 A 
HETATM   10  N   UNL     1      28.526  50.651  39.067  1.00  0.00    -0.352 N 
HETATM   11  H   UNL     1      28.250  49.678  38.950  1.00  0.00     0.166 HD
HETATM   12  C   UNL     1      28.011  51.673  38.371  1.00  0.00     0.181 A 
HETATM   13  N   UNL     1      28.664  52.770  38.763  1.00  0.00    -0.354 N 
HETATM   14  H   UNL     1      28.496  53.704  38.390  1.00  0.00     0.166 HD
HETATM   15  C   UNL     1      30.967  49.083  39.961  1.00  0.00     0.068 C 
HETATM   16  C   UNL     1      30.375  47.732  40.366  1.00  0.00     0.127 C 
ENDROOT
BRANCH   5  17
HETATM   17  C   UNL     1      32.398  50.722  42.444  1.00  0.00     0.277 C 
BRANCH  17  18
HETATM   18  C   UNL     1      33.113  51.801  43.281  1.00  0.00     0.006 C 
HETATM   19  C   UNL     1      32.665  51.770  44.745  1.00  0.00     0.011 C 
HETATM   20  C   UNL     1      34.630  51.591  43.212  1.00  0.00     0.011 C 
ENDBRANCH  17  18
ENDBRANCH   5  17
BRANCH   1  21
HETATM   21  C   UNL     1      28.173  46.653  40.559  1.00  0.00     0.103 A 
HETATM   22  N   UNL     1      28.520  45.585  39.825  1.00  0.00    -0.344 N 
HETATM   23  C   UNL     1      27.847  44.417  39.798  1.00  0.00     0.039 A 
HETATM   24  H   UNL     1      29.366  45.574  39.252  1.00  0.00     0.167 HD
HETATM   25  C   UNL     1      26.695  44.273  40.562  1.00  0.00     0.028 A 
HETATM   26  C   UNL     1      26.268  45.345  41.333  1.00  0.00     0.006 A 
HETATM   27  C   UNL     1      27.003  46.532  41.333  1.00  0.00     0.048 A 
BRANCH  23  28
HETATM   28  C   UNL     1      28.452  43.349  38.935  1.00  0.00     0.163 C 
HETATM   29  C   UNL     1      29.581  43.863  38.055  1.00  0.00     0.046 C 
BRANCH  28  30
HETATM   30  O   UNL     1      28.983  42.381  39.863  1.00  0.00    -0.390 OA
HETATM   31  H   UNL     1      29.789  42.012  39.442  1.00  0.00     0.210 HD
ENDBRANCH  28  30
ENDBRANCH  23  28
ENDBRANCH   1  21
TORSDOF 5
ENDMDL
MODEL 8
REMARK VINA RESULT:      -7.6      1.925      4.368
REMARK  5 active torsions:
REMARK  status: ('A' for Active; 'I' for Inactive)
REMARK    1  A    between atoms: C_2  and  O_3 
REMARK    2  A    between atoms: C_2  and  C_4 
REMARK    3  A    between atoms: C_7  and  N_8 
REMARK    4  A    between atoms: N_12  and  C_13 
REMARK    5  A    between atoms: C_13  and  C_14 
ROOT
HETATM    1  N   UNL     1      24.927  45.320  50.205  1.00  0.00    -0.367 N 
HETATM    2  C   UNL     1      24.341  44.059  50.718  1.00  0.00     0.127 C 
HETATM    3  C   UNL     1      25.358  42.913  50.743  1.00  0.00     0.068 C 
HETATM    4  C   UNL     1      26.780  43.342  51.183  1.00  0.00     0.206 C 
HETATM    5  N   UNL     1      27.795  42.205  51.107  1.00  0.00     0.105 N 
HETATM    6  C   UNL     1      27.750  41.280  52.294  1.00  0.00     0.280 C 
HETATM    7  C   UNL     1      28.069  41.957  53.641  1.00  0.00     0.089 C 
HETATM    8  C   UNL     1      27.298  43.198  53.711  1.00  0.00     0.037 A 
HETATM    9  C   UNL     1      26.718  43.825  52.634  1.00  0.00     0.072 A 
HETATM   10  N   UNL     1      26.149  44.986  53.141  1.00  0.00    -0.352 N 
HETATM   11  H   UNL     1      25.688  45.700  52.582  1.00  0.00     0.166 HD
HETATM   12  C   UNL     1      26.363  45.077  54.460  1.00  0.00     0.181 A 
HETATM   13  N   UNL     1      27.041  43.983  54.815  1.00  0.00    -0.354 N 
HETATM   14  H   UNL     1      27.359  43.785  55.763  1.00  0.00     0.166 HD
HETATM   15  C   UNL     1      27.266  44.567  50.350  1.00  0.00     0.068 C 
HETATM   16  C   UNL     1      26.181  45.168  49.454  1.00  0.00     0.127 C 
ENDROOT
BRANCH   5  17
HETATM   17  C   UNL     1      27.743  41.332  49.898  1.00  0.00     0.277 C 
BRANCH  17  18
HETATM   18  C   UNL     1      27.803  39.806  50.107  1.00  0.00     0.006 C 
HETATM   19  C   UNL     1      26.538  39.115  49.589  1.00  0.00     0.011 C 
HETATM   20  C   UNL     1      29.026  39.231  49.384  1.00  0.00     0.011 C 
ENDBRANCH  17  18
ENDBRANCH   5  17
BRANCH   1  21
HETATM   21  C   UNL     1      23.950  46.183  49.667  1.00  0.00     0.103 A 
HETATM   22  N   UNL     1      22.769  45.735  49.218  1.00  0.00    -0.344 N 
HETATM   23  C   UNL     1      21.795  46.513  48.703  1.00  0.00     0.039 A 
HETATM   24  H   UNL     1      22.505  44.749  49.277  1.00  0.00     0.167 HD
HETATM   25  C   UNL     1      21.997  47.885  48.600  1.00  0.00     0.028 A 
HETATM   26  C   UNL     1      23.206  48.414  49.031  1.00  0.00     0.006 A 
HETATM   27  C   UNL     1      24.180  47.568  49.563  1.00  0.00     0.048 A 
BRANCH  23  28
HETATM   28  C   UNL     1      20.540  45.792  48.308  1.00  0.00     0.163 C 
HETATM   29  C   UNL     1      20.741  44.848  47.133  1.00  0.00     0.046 C 
BRANCH  28  30
HETATM   30  O   UNL     1      20.173  45.024  49.471  1.00  0.00    -0.390 OA
HETATM   31  H   UNL     1      19.722  45.647  50.081  1.00  0.00     0.210 HD
ENDBRANCH  28  30
ENDBRANCH  23  28
ENDBRANCH   1  21
TORSDOF 5
ENDMDL
MODEL 9
REMARK VINA RESULT:      -7.5      2.878      7.949
REMARK  5 active torsions:
REMARK  status: ('A' for Active; 'I' for Inactive)
REMARK    1  A    between atoms: C_2  and  O_3 
REMARK    2  A    between atoms: C_2  and  C_4 
REMARK    3  A    between atoms: C_7  and  N_8 
REMARK    4  A    between atoms: N_12  and  C_13 
REMARK    5  A    between atoms: C_13  and  C_14 
ROOT
HETATM    1  N   UNL     1      26.176  45.500  50.973  1.00  0.00    -0.367 N 
HETATM    2  C   UNL     1      25.923  45.370  49.518  1.00  0.00     0.127 C 
HETATM    3  C   UNL     1      24.747  46.236  49.053  1.00  0.00     0.068 C 
HETATM    4  C   UNL     1      24.684  47.629  49.729  1.00  0.00     0.206 C 
HETATM    5  N   UNL     1      23.452  48.432  49.320  1.00  0.00     0.105 N 
HETATM    6  C   UNL     1      23.602  49.128  47.994  1.00  0.00     0.280 C 
HETATM    7  C   UNL     1      24.740  50.164  47.944  1.00  0.00     0.089 C 
HETATM    8  C   UNL     1      25.931  49.550  48.532  1.00  0.00     0.037 A 
HETATM    9  C   UNL     1      25.925  48.426  49.323  1.00  0.00     0.072 A 
HETATM   10  N   UNL     1      27.246  48.236  49.709  1.00  0.00    -0.352 N 
HETATM   11  H   UNL     1      27.567  47.512  50.348  1.00  0.00     0.166 HD
HETATM   12  C   UNL     1      28.030  49.188  49.188  1.00  0.00     0.181 A 
HETATM   13  N   UNL     1      27.239  49.976  48.454  1.00  0.00    -0.354 N 
HETATM   14  H   UNL     1      27.559  50.801  47.947  1.00  0.00     0.166 HD
HETATM   15  C   UNL     1      24.758  47.489  51.280  1.00  0.00     0.068 C 
HETATM   16  C   UNL     1      25.068  46.067  51.753  1.00  0.00     0.127 C 
ENDROOT
BRANCH   5  17
HETATM   17  C   UNL     1      22.155  47.698  49.261  1.00  0.00     0.277 C 
BRANCH  17  18
HETATM   18  C   UNL     1      20.971  48.383  48.551  1.00  0.00     0.006 C 
HETATM   19  C   UNL     1      20.034  47.361  47.900  1.00  0.00     0.011 C 
HETATM   20  C   UNL     1      20.178  49.224  49.558  1.00  0.00     0.011 C 
ENDBRANCH  17  18
ENDBRANCH   5  17
BRANCH   1  21
HETATM   21  C   UNL     1      26.831  44.370  51.503  1.00  0.00     0.103 A 
HETATM   22  N   UNL     1      26.736  43.157  50.940  1.00  0.00    -0.344 N 
HETATM   23  C   UNL     1      27.347  42.045  51.398  1.00  0.00     0.039 A 
HETATM   24  H   UNL     1      26.212  43.000  50.077  1.00  0.00     0.167 HD
HETATM   25  C   UNL     1      28.131  42.117  52.544  1.00  0.00     0.028 A 
HETATM   26  C   UNL     1      28.258  43.340  53.188  1.00  0.00     0.006 A 
HETATM   27  C   UNL     1      27.612  44.464  52.671  1.00  0.00     0.048 A 
BRANCH  23  28
HETATM   28  C   UNL     1      27.130  40.810  50.574  1.00  0.00     0.163 C 
HETATM   29  C   UNL     1      28.399  39.995  50.380  1.00  0.00     0.046 C 
BRANCH  28  30
HETATM   30  O   UNL     1      26.179  40.028  51.324  1.00  0.00    -0.390 OA
HETATM   31  H   UNL     1      25.387  40.595  51.438  1.00  0.00     0.210 HD
ENDBRANCH  28  30
ENDBRANCH  23  28
ENDBRANCH   1  21
TORSDOF 5
ENDMDL
MODEL 10
REMARK VINA RESULT:      -7.5      4.643      9.456
REMARK  5 active torsions:
REMARK  status: ('A' for Active; 'I' for Inactive)
REMARK    1  A    between atoms: C_2  and  O_3 
REMARK    2  A    between atoms: C_2  and  C_4 
REMARK    3  A    between atoms: C_7  and  N_8 
REMARK    4  A    between atoms: N_12  and  C_13 
REMARK    5  A    between atoms: C_13  and  C_14 
ROOT
HETATM    1  N   UNL     1      22.316  49.050  48.139  1.00  0.00    -0.367 N 
HETATM    2  C   UNL     1      21.677  48.079  49.058  1.00  0.00     0.127 C 
HETATM    3  C   UNL     1      20.185  48.368  49.263  1.00  0.00     0.068 C 
HETATM    4  C   UNL     1      19.449  48.819  47.976  1.00  0.00     0.206 C 
HETATM    5  N   UNL     1      17.990  49.191  48.226  1.00  0.00     0.105 N 
HETATM    6  C   UNL     1      17.069  48.003  48.288  1.00  0.00     0.280 C 
HETATM    7  C   UNL     1      17.011  47.174  46.992  1.00  0.00     0.089 C 
HETATM    8  C   UNL     1      18.385  46.951  46.541  1.00  0.00     0.037 A 
HETATM    9  C   UNL     1      19.477  47.668  46.968  1.00  0.00     0.072 A 
HETATM   10  N   UNL     1      20.554  47.171  46.245  1.00  0.00    -0.352 N 
HETATM   11  H   UNL     1      21.504  47.534  46.291  1.00  0.00     0.166 HD
HETATM   12  C   UNL     1      20.154  46.200  45.414  1.00  0.00     0.181 A 
HETATM   13  N   UNL     1      18.842  46.047  45.606  1.00  0.00    -0.354 N 
HETATM   14  H   UNL     1      18.259  45.384  45.097  1.00  0.00     0.166 HD
HETATM   15  C   UNL     1      20.207  49.998  47.295  1.00  0.00     0.068 C 
HETATM   16  C   UNL     1      21.569  50.297  47.926  1.00  0.00     0.127 C 
ENDROOT
BRANCH   5  17
HETATM   17  C   UNL     1      17.700  50.007  49.441  1.00  0.00     0.277 C 
BRANCH  17  18
HETATM   18  C   UNL     1      17.278  51.476  49.239  1.00  0.00     0.006 C 
HETATM   19  C   UNL     1      18.453  52.435  49.447  1.00  0.00     0.011 C 
HETATM   20  C   UNL     1      16.716  51.665  47.825  1.00  0.00     0.011 C 
ENDBRANCH  17  18
ENDBRANCH   5  17
BRANCH   1  21
HETATM   21  C   UNL     1      23.705  49.156  48.357  1.00  0.00     0.103 A 
HETATM   22  N   UNL     1      24.370  48.316  49.163  1.00  0.00    -0.344 N 
HETATM   23  C   UNL     1      25.696  48.364  49.402  1.00  0.00     0.039 A 
HETATM   24  H   UNL     1      23.906  47.534  49.631  1.00  0.00     0.167 HD
HETATM   25  C   UNL     1      26.465  49.352  48.798  1.00  0.00     0.028 A 
HETATM   26  C   UNL     1      25.838  50.267  47.964  1.00  0.00     0.006 A 
HETATM   27  C   UNL     1      24.463  50.171  47.743  1.00  0.00     0.048 A 
BRANCH  23  28
HETATM   28  C   UNL     1      26.224  47.288  50.305  1.00  0.00     0.163 C 
HETATM   29  C   UNL     1      25.177  46.756  51.272  1.00  0.00     0.046 C 
BRANCH  28  30
HETATM   30  O   UNL     1      26.628  46.226  49.418  1.00  0.00    -0.390 OA
HETATM   31  H   UNL     1      27.356  46.589  48.869  1.00  0.00     0.210 HD
ENDBRANCH  28  30
ENDBRANCH  23  28
ENDBRANCH   1  21
TORSDOF 5
ENDMDL
