MODEL 1
REMARK VINA RESULT:      -7.7      0.000      0.000
REMARK  6 active torsions:
REMARK  status: ('A' for Active; 'I' for Inactive)
REMARK    1  A    between atoms: C_3  and  N_4 
REMARK    2  A    between atoms: N_4  and  C_5 
REMARK    3  A    between atoms: C_5  and  C_6 
REMARK    4  A    between atoms: N_8  and  C_10 
REMARK    5  A    between atoms: C_10  and  C_11 
REMARK    6  A    between atoms: C_12  and  O_13 
ROOT
HETATM    1  C   UNL     1      26.009  44.713  49.658  1.00  0.00     0.031 C 
HETATM    2  C   UNL     1      26.964  44.724  50.854  1.00  0.00     0.241 C 
HETATM    3  N   UNL     1      26.491  43.607  51.750  1.00  0.00    -0.067 N 
HETATM    4  H   UNL     1      27.309  43.009  51.978  1.00  0.00     0.280 HD
HETATM    5  C   UNL     1      25.521  42.751  50.974  1.00  0.00     0.235 C 
HETATM    6  C   UNL     1      25.671  43.227  49.539  1.00  0.00     0.035 C 
ENDROOT
BRANCH   3   7
HETATM    7  C   UNL     1      26.016  44.042  53.114  1.00  0.00     0.276 C 
BRANCH   7   8
HETATM    8  C   UNL     1      27.053  44.802  53.891  1.00  0.00     0.002 A 
HETATM    9  C   UNL     1      26.893  46.168  54.156  1.00  0.00     0.073 A 
HETATM   10  C   UNL     1      27.835  46.878  54.894  1.00  0.00     0.038 A 
HETATM   11  C   UNL     1      28.968  46.220  55.376  1.00  0.00     0.022 A 
HETATM   12  C   UNL     1      29.143  44.862  55.120  1.00  0.00     0.011 A 
HETATM   13 BR   UNL     1      30.682  43.972  55.758  1.00  0.00    -0.051 Br
HETATM   14  C   UNL     1      28.192  44.150  54.388  1.00  0.00     0.030 A 
BRANCH   9  15
HETATM   15  O   UNL     1      25.790  46.797  53.641  1.00  0.00    -0.360 OA
HETATM   16  H   UNL     1      25.001  46.294  53.929  1.00  0.00     0.217 HD
ENDBRANCH   9  15
ENDBRANCH   7   8
ENDBRANCH   3   7
BRANCH   1  17
HETATM   17  C   UNL     1      24.782  45.613  49.891  1.00  0.00     0.127 C 
BRANCH  17  18
HETATM   18  N   UNL     1      25.173  46.871  50.535  1.00  0.00    -0.376 N 
HETATM   19  H   UNL     1      25.547  46.751  51.471  1.00  0.00     0.161 HD
BRANCH  18  20
HETATM   20  C   UNL     1      25.660  47.935  49.793  1.00  0.00     0.100 A 
HETATM   21  C   UNL     1      27.020  48.252  49.673  1.00  0.00     0.048 A 
HETATM   22  C   UNL     1      27.425  49.346  48.910  1.00  0.00     0.005 A 
HETATM   23  C   UNL     1      26.473  50.113  48.254  1.00  0.00     0.017 A 
HETATM   24  C   UNL     1      25.140  49.755  48.364  1.00  0.00     0.089 A 
HETATM   25  N   UNL     1      24.787  48.694  49.106  1.00  0.00    -0.353 N 
HETATM   26  H   UNL     1      23.800  48.455  49.152  1.00  0.00     0.166 HD
ENDBRANCH  18  20
ENDBRANCH  17  18
ENDBRANCH   1  17
TORSDOF 6
ENDMDL
MODEL 2
REMARK VINA RESULT:      -7.6      1.608      2.078
REMARK  6 active torsions:
REMARK  status: ('A' for Active; 'I' for Inactive)
REMARK    1  A    between atoms: C_3  and  N_4 
REMARK    2  A    between atoms: N_4  and  C_5 
REMARK    3  A    between atoms: C_5  and  C_6 
REMARK    4  A    between atoms: N_8  and  C_10 
REMARK    5  A    between atoms: C_10  and  C_11 
REMARK    6  A    between atoms: C_12  and  O_13 
ROOT
HETATM    1  C   UNL     1      25.207  44.691  49.321  1.00  0.00     0.031 C 
HETATM    2  C   UNL     1      26.384  44.439  50.266  1.00  0.00     0.241 C 
HETATM    3  N   UNL     1      25.912  43.364  51.210  1.00  0.00    -0.067 N 
HETATM    4  H   UNL     1      26.627  42.611  51.225  1.00  0.00     0.280 HD
HETATM    5  C   UNL     1      24.647  42.759  50.652  1.00  0.00     0.235 C 
HETATM    6  C   UNL     1      24.568  43.306  49.236  1.00  0.00     0.035 C 
ENDROOT
BRANCH   3   7
HETATM    7  C   UNL     1      25.841  43.775  52.660  1.00  0.00     0.276 C 
BRANCH   7   8
HETATM    8  C   UNL     1      27.138  43.592  53.394  1.00  0.00     0.002 A 
HETATM    9  C   UNL     1      27.840  42.382  53.321  1.00  0.00     0.073 A 
HETATM   10  C   UNL     1      29.054  42.207  53.979  1.00  0.00     0.038 A 
HETATM   11  C   UNL     1      29.583  43.256  54.734  1.00  0.00     0.022 A 
HETATM   12  C   UNL     1      28.897  44.464  54.819  1.00  0.00     0.011 A 
HETATM   13 BR   UNL     1      29.602  45.879  55.853  1.00  0.00    -0.051 Br
HETATM   14  C   UNL     1      27.684  44.640  54.151  1.00  0.00     0.030 A 
BRANCH   9  15
HETATM   15  O   UNL     1      27.282  41.358  52.602  1.00  0.00    -0.360 OA
HETATM   16  H   UNL     1      26.341  41.289  52.866  1.00  0.00     0.217 HD
ENDBRANCH   9  15
ENDBRANCH   7   8
ENDBRANCH   3   7
BRANCH   1  17
HETATM   17  C   UNL     1      24.260  45.780  49.858  1.00  0.00     0.127 C 
BRANCH  17  18
HETATM   18  N   UNL     1      25.016  46.849  50.519  1.00  0.00    -0.376 N 
HETATM   19  H   UNL     1      25.526  46.538  51.341  1.00  0.00     0.161 HD
BRANCH  18  20
HETATM   20  C   UNL     1      25.565  47.894  49.795  1.00  0.00     0.100 A 
HETATM   21  C   UNL     1      26.939  48.155  49.710  1.00  0.00     0.048 A 
HETATM   22  C   UNL     1      27.408  49.234  48.961  1.00  0.00     0.005 A 
HETATM   23  C   UNL     1      26.505  50.042  48.285  1.00  0.00     0.017 A 
HETATM   24  C   UNL     1      25.157  49.738  48.360  1.00  0.00     0.089 A 
HETATM   25  N   UNL     1      24.741  48.691  49.090  1.00  0.00    -0.353 N 
HETATM   26  H   UNL     1      23.745  48.492  49.109  1.00  0.00     0.166 HD
ENDBRANCH  18  20
ENDBRANCH  17  18
ENDBRANCH   1  17
TORSDOF 6
ENDMDL
MODEL 3
REMARK VINA RESULT:      -7.5      1.999      2.658
REMARK  6 active torsions:
REMARK  status: ('A' for Active; 'I' for Inactive)
REMARK    1  A    between atoms: C_3  and  N_4 
REMARK    2  A    between atoms: N_4  and  C_5 
REMARK    3  A    between atoms: C_5  and  C_6 
REMARK    4  A    between atoms: N_8  and  C_10 
REMARK    5  A    between atoms: C_10  and  C_11 
REMARK    6  A    between atoms: C_12  and  O_13 
ROOT
HETATM    1  C   UNL     1      25.795  45.750  49.906  1.00  0.00     0.031 C 
HETATM    2  C   UNL     1      26.795  44.977  50.770  1.00  0.00     0.241 C 
HETATM    3  N   UNL     1      25.964  43.999  51.559  1.00  0.00    -0.067 N 
HETATM    4  H   UNL     1      26.381  43.055  51.444  1.00  0.00     0.280 HD
HETATM    5  C   UNL     1      24.583  43.947  50.954  1.00  0.00     0.235 C 
HETATM    6  C   UNL     1      24.727  44.691  49.636  1.00  0.00     0.035 C 
ENDROOT
BRANCH   3   7
HETATM    7  C   UNL     1      26.003  44.191  53.055  1.00  0.00     0.276 C 
BRANCH   7   8
HETATM    8  C   UNL     1      27.329  43.837  53.666  1.00  0.00     0.002 A 
HETATM    9  C   UNL     1      27.931  42.599  53.407  1.00  0.00     0.073 A 
HETATM   10  C   UNL     1      29.169  42.268  53.950  1.00  0.00     0.038 A 
HETATM   11  C   UNL     1      29.824  43.184  54.775  1.00  0.00     0.022 A 
HETATM   12  C   UNL     1      29.238  44.418  55.044  1.00  0.00     0.011 A 
HETATM   13 BR   UNL     1      30.114  45.653  56.174  1.00  0.00    -0.051 Br
HETATM   14  C   UNL     1      28.000  44.751  54.491  1.00  0.00     0.030 A 
BRANCH   9  15
HETATM   15  O   UNL     1      27.251  41.706  52.622  1.00  0.00    -0.360 OA
HETATM   16  H   UNL     1      27.893  41.315  51.993  1.00  0.00     0.217 HD
ENDBRANCH   9  15
ENDBRANCH   7   8
ENDBRANCH   3   7
BRANCH   1  17
HETATM   17  C   UNL     1      25.261  47.003  50.623  1.00  0.00     0.127 C 
BRANCH  17  18
HETATM   18  N   UNL     1      23.863  47.256  50.258  1.00  0.00    -0.376 N 
HETATM   19  H   UNL     1      23.195  46.907  50.940  1.00  0.00     0.161 HD
BRANCH  18  20
HETATM   20  C   UNL     1      23.501  48.385  49.542  1.00  0.00     0.100 A 
HETATM   21  C   UNL     1      24.395  49.158  48.789  1.00  0.00     0.048 A 
HETATM   22  C   UNL     1      23.946  50.286  48.101  1.00  0.00     0.005 A 
HETATM   23  C   UNL     1      22.603  50.629  48.152  1.00  0.00     0.017 A 
HETATM   24  C   UNL     1      21.739  49.826  48.876  1.00  0.00     0.089 A 
HETATM   25  N   UNL     1      22.205  48.748  49.526  1.00  0.00    -0.353 N 
HETATM   26  H   UNL     1      21.537  48.176  50.035  1.00  0.00     0.166 HD
ENDBRANCH  18  20
ENDBRANCH  17  18
ENDBRANCH   1  17
TORSDOF 6
ENDMDL
MODEL 4
REMARK VINA RESULT:      -7.5      3.251      7.228
REMARK  6 active torsions:
REMARK  status: ('A' for Active; 'I' for Inactive)
REMARK    1  A    between atoms: C_3  and  N_4 
REMARK    2  A    between atoms: N_4  and  C_5 
REMARK    3  A    between atoms: C_5  and  C_6 
REMARK    4  A    between atoms: N_8  and  C_10 
REMARK    5  A    between atoms: C_10  and  C_11 
REMARK    6  A    between atoms: C_12  and  O_13 
ROOT
HETATM    1  C   UNL     1      26.746  45.755  54.732  1.00  0.00     0.031 C 
HETATM    2  C   UNL     1      25.878  46.183  53.545  1.00  0.00     0.241 C 
HETATM    3  N   UNL     1      25.873  45.001  52.611  1.00  0.00    -0.067 N 
HETATM    4  H   UNL     1      24.886  44.783  52.372  1.00  0.00     0.280 HD
HETATM    5  C   UNL     1      26.421  43.805  53.350  1.00  0.00     0.235 C 
HETATM    6  C   UNL     1      26.466  44.255  54.801  1.00  0.00     0.035 C 
ENDROOT
BRANCH   3   7
HETATM    7  C   UNL     1      26.487  45.256  51.257  1.00  0.00     0.276 C 
BRANCH   7   8
HETATM    8  C   UNL     1      25.809  46.357  50.494  1.00  0.00     0.002 A 
HETATM    9  C   UNL     1      24.426  46.333  50.274  1.00  0.00     0.073 A 
HETATM   10  C   UNL     1      23.783  47.359  49.587  1.00  0.00     0.038 A 
HETATM   11  C   UNL     1      24.531  48.433  49.101  1.00  0.00     0.022 A 
HETATM   12  C   UNL     1      25.907  48.472  49.309  1.00  0.00     0.011 A 
HETATM   13 BR   UNL     1      26.923  49.916  48.639  1.00  0.00    -0.051 Br
HETATM   14  C   UNL     1      26.548  47.446  50.006  1.00  0.00     0.030 A 
BRANCH   9  15
HETATM   15  O   UNL     1      23.722  45.251  50.731  1.00  0.00    -0.360 OA
HETATM   16  H   UNL     1      22.780  45.392  50.502  1.00  0.00     0.217 HD
ENDBRANCH   9  15
ENDBRANCH   7   8
ENDBRANCH   3   7
BRANCH   1  17
HETATM   17  C   UNL     1      28.230  46.102  54.515  1.00  0.00     0.127 C 
BRANCH  17  18
HETATM   18  N   UNL     1      28.907  46.318  55.798  1.00  0.00    -0.376 N 
HETATM   19  H   UNL     1      28.347  46.832  56.473  1.00  0.00     0.161 HD
BRANCH  18  20
HETATM   20  C   UNL     1      29.805  45.390  56.301  1.00  0.00     0.100 A 
HETATM   21  C   UNL     1      30.385  45.468  57.575  1.00  0.00     0.048 A 
HETATM   22  C   UNL     1      31.286  44.492  58.001  1.00  0.00     0.005 A 
HETATM   23  C   UNL     1      31.595  43.433  57.161  1.00  0.00     0.017 A 
HETATM   24  C   UNL     1      30.981  43.365  55.922  1.00  0.00     0.089 A 
HETATM   25  N   UNL     1      30.117  44.321  55.545  1.00  0.00    -0.353 N 
HETATM   26  H   UNL     1      29.676  44.230  54.634  1.00  0.00     0.166 HD
ENDBRANCH  18  20
ENDBRANCH  17  18
ENDBRANCH   1  17
TORSDOF 6
ENDMDL
MODEL 5
REMARK VINA RESULT:      -7.5      1.703      2.166
REMARK  6 active torsions:
REMARK  status: ('A' for Active; 'I' for Inactive)
REMARK    1  A    between atoms: C_3  and  N_4 
REMARK    2  A    between atoms: N_4  and  C_5 
REMARK    3  A    between atoms: C_5  and  C_6 
REMARK    4  A    between atoms: N_8  and  C_10 
REMARK    5  A    between atoms: C_10  and  C_11 
REMARK    6  A    between atoms: C_12  and  O_13 
ROOT
HETATM    1  C   UNL     1      25.545  45.892  50.019  1.00  0.00     0.031 C 
HETATM    2  C   UNL     1      26.512  45.419  51.107  1.00  0.00     0.241 C 
HETATM    3  N   UNL     1      25.764  44.353  51.866  1.00  0.00    -0.067 N 
HETATM    4  H   UNL     1      26.371  43.512  51.923  1.00  0.00     0.280 HD
HETATM    5  C   UNL     1      24.545  43.964  51.068  1.00  0.00     0.235 C 
HETATM    6  C   UNL     1      24.766  44.613  49.712  1.00  0.00     0.035 C 
ENDROOT
BRANCH   3   7
HETATM    7  C   UNL     1      25.508  44.667  53.320  1.00  0.00     0.276 C 
BRANCH   7   8
HETATM    8  C   UNL     1      26.732  45.133  54.053  1.00  0.00     0.002 A 
HETATM    9  C   UNL     1      26.808  46.433  54.570  1.00  0.00     0.073 A 
HETATM   10  C   UNL     1      27.929  46.869  55.271  1.00  0.00     0.038 A 
HETATM   11  C   UNL     1      29.004  45.998  55.460  1.00  0.00     0.022 A 
HETATM   12  C   UNL     1      28.944  44.703  54.950  1.00  0.00     0.011 A 
HETATM   13 BR   UNL     1      30.403  43.528  55.189  1.00  0.00    -0.051 Br
HETATM   14  C   UNL     1      27.816  44.265  54.255  1.00  0.00     0.030 A 
BRANCH   9  15
HETATM   15  O   UNL     1      25.755  47.278  54.341  1.00  0.00    -0.360 OA
HETATM   16  H   UNL     1      25.788  47.983  55.021  1.00  0.00     0.217 HD
ENDBRANCH   9  15
ENDBRANCH   7   8
ENDBRANCH   3   7
BRANCH   1  17
HETATM   17  C   UNL     1      24.661  47.057  50.500  1.00  0.00     0.127 C 
BRANCH  17  18
HETATM   18  N   UNL     1      23.497  47.224  49.625  1.00  0.00    -0.376 N 
HETATM   19  H   UNL     1      22.787  46.507  49.750  1.00  0.00     0.161 HD
BRANCH  18  20
HETATM   20  C   UNL     1      23.061  48.482  49.241  1.00  0.00     0.100 A 
HETATM   21  C   UNL     1      23.794  49.352  48.423  1.00  0.00     0.048 A 
HETATM   22  C   UNL     1      23.282  50.605  48.089  1.00  0.00     0.005 A 
HETATM   23  C   UNL     1      22.033  50.982  48.559  1.00  0.00     0.017 A 
HETATM   24  C   UNL     1      21.318  50.088  49.337  1.00  0.00     0.089 A 
HETATM   25  N   UNL     1      21.841  48.889  49.638  1.00  0.00    -0.353 N 
HETATM   26  H   UNL     1      21.281  48.255  50.200  1.00  0.00     0.166 HD
ENDBRANCH  18  20
ENDBRANCH  17  18
ENDBRANCH   1  17
TORSDOF 6
ENDMDL
MODEL 6
REMARK VINA RESULT:      -7.4      3.358      7.055
REMARK  6 active torsions:
REMARK  status: ('A' for Active; 'I' for Inactive)
REMARK    1  A    between atoms: C_3  and  N_4 
REMARK    2  A    between atoms: N_4  and  C_5 
REMARK    3  A    between atoms: C_5  and  C_6 
REMARK    4  A    between atoms: N_8  and  C_10 
REMARK    5  A    between atoms: C_10  and  C_11 
REMARK    6  A    between atoms: C_12  and  O_13 
ROOT
HETATM    1  C   UNL     1      25.807  44.096  52.184  1.00  0.00     0.031 C 
HETATM    2  C   UNL     1      25.315  45.530  51.972  1.00  0.00     0.241 C 
HETATM    3  N   UNL     1      25.520  45.806  50.505  1.00  0.00    -0.067 N 
HETATM    4  H   UNL     1      24.628  46.173  50.118  1.00  0.00     0.280 HD
HETATM    5  C   UNL     1      25.798  44.498  49.806  1.00  0.00     0.235 C 
HETATM    6  C   UNL     1      25.461  43.443  50.846  1.00  0.00     0.035 C 
ENDROOT
BRANCH   3   7
HETATM    7  C   UNL     1      26.490  46.919  50.195  1.00  0.00     0.276 C 
BRANCH   7   8
HETATM    8  C   UNL     1      25.864  48.067  49.458  1.00  0.00     0.002 A 
HETATM    9  C   UNL     1      26.655  48.982  48.749  1.00  0.00     0.073 A 
HETATM   10  C   UNL     1      26.085  50.037  48.043  1.00  0.00     0.038 A 
HETATM   11  C   UNL     1      24.697  50.195  48.044  1.00  0.00     0.022 A 
HETATM   12  C   UNL     1      23.898  49.296  48.746  1.00  0.00     0.011 A 
HETATM   13 BR   UNL     1      22.022  49.516  48.763  1.00  0.00    -0.051 Br
HETATM   14  C   UNL     1      24.471  48.233  49.445  1.00  0.00     0.030 A 
BRANCH   9  15
HETATM   15  O   UNL     1      28.014  48.824  48.793  1.00  0.00    -0.360 OA
HETATM   16  H   UNL     1      28.217  47.915  48.489  1.00  0.00     0.217 HD
ENDBRANCH   9  15
ENDBRANCH   7   8
ENDBRANCH   3   7
BRANCH   1  17
HETATM   17  C   UNL     1      27.307  44.046  52.531  1.00  0.00     0.127 C 
BRANCH  17  18
HETATM   18  N   UNL     1      27.591  44.842  53.729  1.00  0.00    -0.376 N 
HETATM   19  H   UNL     1      26.757  45.160  54.215  1.00  0.00     0.161 HD
BRANCH  18  20
HETATM   20  C   UNL     1      28.716  44.602  54.501  1.00  0.00     0.100 A 
HETATM   21  C   UNL     1      29.506  43.448  54.400  1.00  0.00     0.048 A 
HETATM   22  C   UNL     1      30.621  43.284  55.221  1.00  0.00     0.005 A 
HETATM   23  C   UNL     1      30.956  44.277  56.130  1.00  0.00     0.017 A 
HETATM   24  C   UNL     1      30.176  45.419  56.182  1.00  0.00     0.089 A 
HETATM   25  N   UNL     1      29.110  45.545  55.376  1.00  0.00    -0.353 N 
HETATM   26  H   UNL     1      28.570  46.404  55.434  1.00  0.00     0.166 HD
ENDBRANCH  18  20
ENDBRANCH  17  18
ENDBRANCH   1  17
TORSDOF 6
ENDMDL
MODEL 7
REMARK VINA RESULT:      -7.4      3.889      7.272
REMARK  6 active torsions:
REMARK  status: ('A' for Active; 'I' for Inactive)
REMARK    1  A    between atoms: C_3  and  N_4 
REMARK    2  A    between atoms: N_4  and  C_5 
REMARK    3  A    between atoms: C_5  and  C_6 
REMARK    4  A    between atoms: N_8  and  C_10 
REMARK    5  A    between atoms: C_10  and  C_11 
REMARK    6  A    between atoms: C_12  and  O_13 
ROOT
HETATM    1  C   UNL     1      29.669  42.344  52.966  1.00  0.00     0.031 C 
HETATM    2  C   UNL     1      28.904  43.457  52.244  1.00  0.00     0.241 C 
HETATM    3  N   UNL     1      28.220  44.240  53.335  1.00  0.00    -0.067 N 
HETATM    4  H   UNL     1      28.443  45.245  53.199  1.00  0.00     0.280 HD
HETATM    5  C   UNL     1      28.815  43.833  54.661  1.00  0.00     0.235 C 
HETATM    6  C   UNL     1      30.044  43.023  54.283  1.00  0.00     0.035 C 
ENDROOT
BRANCH   3   7
HETATM    7  C   UNL     1      26.712  44.230  53.278  1.00  0.00     0.276 C 
BRANCH   7   8
HETATM    8  C   UNL     1      26.166  44.613  51.933  1.00  0.00     0.002 A 
HETATM    9  C   UNL     1      25.529  43.666  51.120  1.00  0.00     0.073 A 
HETATM   10  C   UNL     1      24.999  44.014  49.881  1.00  0.00     0.038 A 
HETATM   11  C   UNL     1      25.107  45.332  49.433  1.00  0.00     0.022 A 
HETATM   12  C   UNL     1      25.739  46.285  50.228  1.00  0.00     0.011 A 
HETATM   13 BR   UNL     1      25.901  48.066  49.618  1.00  0.00    -0.051 Br
HETATM   14  C   UNL     1      26.262  45.936  51.474  1.00  0.00     0.030 A 
BRANCH   9  15
HETATM   15  O   UNL     1      25.468  42.374  51.568  1.00  0.00    -0.360 OA
HETATM   16  H   UNL     1      25.644  42.385  52.532  1.00  0.00     0.217 HD
ENDBRANCH   9  15
ENDBRANCH   7   8
ENDBRANCH   3   7
BRANCH   1  17
HETATM   17  C   UNL     1      28.813  41.076  53.142  1.00  0.00     0.127 C 
BRANCH  17  18
HETATM   18  N   UNL     1      28.066  40.777  51.916  1.00  0.00    -0.376 N 
HETATM   19  H   UNL     1      27.485  41.547  51.595  1.00  0.00     0.161 HD
BRANCH  18  20
HETATM   20  C   UNL     1      28.584  39.933  50.948  1.00  0.00     0.100 A 
HETATM   21  C   UNL     1      28.360  40.083  49.572  1.00  0.00     0.048 A 
HETATM   22  C   UNL     1      28.916  39.182  48.664  1.00  0.00     0.005 A 
HETATM   23  C   UNL     1      29.708  38.142  49.130  1.00  0.00     0.017 A 
HETATM   24  C   UNL     1      29.938  38.040  50.491  1.00  0.00     0.089 A 
HETATM   25  N   UNL     1      29.388  38.926  51.336  1.00  0.00    -0.353 N 
HETATM   26  H   UNL     1      29.591  38.826  52.326  1.00  0.00     0.166 HD
ENDBRANCH  18  20
ENDBRANCH  17  18
ENDBRANCH   1  17
TORSDOF 6
ENDMDL
MODEL 8
REMARK VINA RESULT:      -7.3     12.079     13.368
REMARK  6 active torsions:
REMARK  status: ('A' for Active; 'I' for Inactive)
REMARK    1  A    between atoms: C_3  and  N_4 
REMARK    2  A    between atoms: N_4  and  C_5 
REMARK    3  A    between atoms: C_5  and  C_6 
REMARK    4  A    between atoms: N_8  and  C_10 
REMARK    5  A    between atoms: C_10  and  C_11 
REMARK    6  A    between atoms: C_12  and  O_13 
ROOT
HETATM    1  C   UNL     1      29.742  47.375  40.374  1.00  0.00     0.031 C 
HETATM    2  C   UNL     1      28.807  48.546  40.682  1.00  0.00     0.241 C 
HETATM    3  N   UNL     1      27.952  48.705  39.452  1.00  0.00    -0.067 N 
HETATM    4  H   UNL     1      26.957  48.726  39.751  1.00  0.00     0.280 HD
HETATM    5  C   UNL     1      28.126  47.482  38.587  1.00  0.00     0.235 C 
HETATM    6  C   UNL     1      28.866  46.499  39.479  1.00  0.00     0.035 C 
ENDROOT
BRANCH   3   7
HETATM    7  C   UNL     1      28.103  50.025  38.736  1.00  0.00     0.276 C 
BRANCH   7   8
HETATM    8  C   UNL     1      28.847  51.055  39.537  1.00  0.00     0.002 A 
HETATM    9  C   UNL     1      28.219  51.738  40.587  1.00  0.00     0.073 A 
HETATM   10  C   UNL     1      28.903  52.679  41.351  1.00  0.00     0.038 A 
HETATM   11  C   UNL     1      30.242  52.954  41.064  1.00  0.00     0.022 A 
HETATM   12  C   UNL     1      30.879  52.286  40.022  1.00  0.00     0.011 A 
HETATM   13 BR   UNL     1      32.685  52.668  39.620  1.00  0.00    -0.051 Br
HETATM   14  C   UNL     1      30.193  51.336  39.263  1.00  0.00     0.030 A 
BRANCH   9  15
HETATM   15  O   UNL     1      26.896  51.474  40.825  1.00  0.00    -0.360 OA
HETATM   16  H   UNL     1      26.388  51.780  40.046  1.00  0.00     0.217 HD
ENDBRANCH   9  15
ENDBRANCH   7   8
ENDBRANCH   3   7
BRANCH   1  17
HETATM   17  C   UNL     1      31.048  47.840  39.702  1.00  0.00     0.127 C 
BRANCH  17  18
HETATM   18  N   UNL     1      32.189  47.673  40.608  1.00  0.00    -0.376 N 
HETATM   19  H   UNL     1      32.834  46.942  40.320  1.00  0.00     0.161 HD
BRANCH  18  20
HETATM   20  C   UNL     1      32.723  48.749  41.297  1.00  0.00     0.100 A 
HETATM   21  C   UNL     1      32.016  49.507  42.240  1.00  0.00     0.048 A 
HETATM   22  C   UNL     1      32.629  50.581  42.885  1.00  0.00     0.005 A 
HETATM   23  C   UNL     1      33.952  50.886  42.600  1.00  0.00     0.017 A 
HETATM   24  C   UNL     1      34.634  50.098  41.688  1.00  0.00     0.089 A 
HETATM   25  N   UNL     1      34.012  49.072  41.087  1.00  0.00    -0.353 N 
HETATM   26  H   UNL     1      34.550  48.508  40.435  1.00  0.00     0.166 HD
ENDBRANCH  18  20
ENDBRANCH  17  18
ENDBRANCH   1  17
TORSDOF 6
ENDMDL
MODEL 9
REMARK VINA RESULT:      -7.2      3.450      7.026
REMARK  6 active torsions:
REMARK  status: ('A' for Active; 'I' for Inactive)
REMARK    1  A    between atoms: C_3  and  N_4 
REMARK    2  A    between atoms: N_4  and  C_5 
REMARK    3  A    between atoms: C_5  and  C_6 
REMARK    4  A    between atoms: N_8  and  C_10 
REMARK    5  A    between atoms: C_10  and  C_11 
REMARK    6  A    between atoms: C_12  and  O_13 
ROOT
HETATM    1  C   UNL     1      28.994  41.955  53.475  1.00  0.00     0.031 C 
HETATM    2  C   UNL     1      27.620  42.319  54.043  1.00  0.00     0.241 C 
HETATM    3  N   UNL     1      26.865  42.932  52.892  1.00  0.00    -0.067 N 
HETATM    4  H   UNL     1      25.946  42.454  52.817  1.00  0.00     0.280 HD
HETATM    5  C   UNL     1      27.618  42.641  51.617  1.00  0.00     0.235 C 
HETATM    6  C   UNL     1      28.655  41.608  52.026  1.00  0.00     0.035 C 
ENDROOT
BRANCH   3   7
HETATM    7  C   UNL     1      26.466  44.374  53.087  1.00  0.00     0.276 C 
BRANCH   7   8
HETATM    8  C   UNL     1      25.758  44.962  51.901  1.00  0.00     0.002 A 
HETATM    9  C   UNL     1      24.624  44.340  51.362  1.00  0.00     0.073 A 
HETATM   10  C   UNL     1      23.946  44.887  50.276  1.00  0.00     0.038 A 
HETATM   11  C   UNL     1      24.406  46.077  49.707  1.00  0.00     0.022 A 
HETATM   12  C   UNL     1      25.532  46.706  50.230  1.00  0.00     0.011 A 
HETATM   13 BR   UNL     1      26.166  48.306  49.453  1.00  0.00    -0.051 Br
HETATM   14  C   UNL     1      26.206  46.160  51.325  1.00  0.00     0.030 A 
BRANCH   9  15
HETATM   15  O   UNL     1      24.215  43.157  51.917  1.00  0.00    -0.360 OA
HETATM   16  H   UNL     1      23.237  43.128  51.864  1.00  0.00     0.217 HD
ENDBRANCH   9  15
ENDBRANCH   7   8
ENDBRANCH   3   7
BRANCH   1  17
HETATM   17  C   UNL     1      30.002  43.111  53.618  1.00  0.00     0.127 C 
BRANCH  17  18
HETATM   18  N   UNL     1      29.474  44.156  54.502  1.00  0.00    -0.376 N 
HETATM   19  H   UNL     1      28.468  44.277  54.433  1.00  0.00     0.161 HD
BRANCH  18  20
HETATM   20  C   UNL     1      30.058  44.420  55.730  1.00  0.00     0.100 A 
HETATM   21  C   UNL     1      29.757  45.538  56.519  1.00  0.00     0.048 A 
HETATM   22  C   UNL     1      30.398  45.730  57.743  1.00  0.00     0.005 A 
HETATM   23  C   UNL     1      31.325  44.798  58.185  1.00  0.00     0.017 A 
HETATM   24  C   UNL     1      31.576  43.687  57.399  1.00  0.00     0.089 A 
HETATM   25  N   UNL     1      30.941  43.533  56.227  1.00  0.00    -0.353 N 
HETATM   26  H   UNL     1      31.142  42.697  55.684  1.00  0.00     0.166 HD
ENDBRANCH  18  20
ENDBRANCH  17  18
ENDBRANCH   1  17
TORSDOF 6
ENDMDL
MODEL 10
REMARK VINA RESULT:      -7.0      2.152      3.073
REMARK  6 active torsions:
REMARK  status: ('A' for Active; 'I' for Inactive)
REMARK    1  A    between atoms: C_3  and  N_4 
REMARK    2  A    between atoms: N_4  and  C_5 
REMARK    3  A    between atoms: C_5  and  C_6 
REMARK    4  A    between atoms: N_8  and  C_10 
REMARK    5  A    between atoms: C_10  and  C_11 
REMARK    6  A    between atoms: C_12  and  O_13 
ROOT
HETATM    1  C   UNL     1      25.420  43.958  52.217  1.00  0.00     0.031 C 
HETATM    2  C   UNL     1      26.710  43.309  52.727  1.00  0.00     0.241 C 
HETATM    3  N   UNL     1      27.117  44.126  53.926  1.00  0.00    -0.067 N 
HETATM    4  H   UNL     1      27.289  43.474  54.717  1.00  0.00     0.280 HD
HETATM    5  C   UNL     1      25.956  45.004  54.323  1.00  0.00     0.235 C 
HETATM    6  C   UNL     1      24.789  44.464  53.513  1.00  0.00     0.035 C 
ENDROOT
BRANCH   3   7
HETATM    7  C   UNL     1      28.443  44.834  53.795  1.00  0.00     0.276 C 
BRANCH   7   8
HETATM    8  C   UNL     1      29.412  44.490  54.889  1.00  0.00     0.002 A 
HETATM    9  C   UNL     1      30.180  43.321  54.826  1.00  0.00     0.073 A 
HETATM   10  C   UNL     1      31.098  43.002  55.823  1.00  0.00     0.038 A 
HETATM   11  C   UNL     1      31.254  43.861  56.913  1.00  0.00     0.022 A 
HETATM   12  C   UNL     1      30.496  45.026  56.991  1.00  0.00     0.011 A 
HETATM   13 BR   UNL     1      30.692  46.182  58.473  1.00  0.00    -0.051 Br
HETATM   14  C   UNL     1      29.583  45.348  55.986  1.00  0.00     0.030 A 
BRANCH   9  15
HETATM   15  O   UNL     1      29.983  42.479  53.764  1.00  0.00    -0.360 OA
HETATM   16  H   UNL     1      29.022  42.297  53.704  1.00  0.00     0.217 HD
ENDBRANCH   9  15
ENDBRANCH   7   8
ENDBRANCH   3   7
BRANCH   1  17
HETATM   17  C   UNL     1      25.700  45.067  51.187  1.00  0.00     0.127 C 
BRANCH  17  18
HETATM   18  N   UNL     1      24.630  46.070  51.197  1.00  0.00    -0.376 N 
HETATM   19  H   UNL     1      24.189  46.186  52.105  1.00  0.00     0.161 HD
BRANCH  18  20
HETATM   20  C   UNL     1      24.681  47.183  50.373  1.00  0.00     0.100 A 
HETATM   21  C   UNL     1      25.869  47.767  49.914  1.00  0.00     0.048 A 
HETATM   22  C   UNL     1      25.830  48.892  49.091  1.00  0.00     0.005 A 
HETATM   23  C   UNL     1      24.605  49.422  48.714  1.00  0.00     0.017 A 
HETATM   24  C   UNL     1      23.449  48.803  49.156  1.00  0.00     0.089 A 
HETATM   25  N   UNL     1      23.523  47.721  49.947  1.00  0.00    -0.353 N 
HETATM   26  H   UNL     1      22.653  47.286  50.239  1.00  0.00     0.166 HD
ENDBRANCH  18  20
ENDBRANCH  17  18
ENDBRANCH   1  17
TORSDOF 6
ENDMDL
