MODEL 1
REMARK VINA RESULT:      -8.6      0.000      0.000
REMARK  4 active torsions:
REMARK  status: ('A' for Active; 'I' for Inactive)
REMARK    1  A    between atoms: C_3  and  C_4 
REMARK    2  A    between atoms: C_5  and  C_6 
REMARK       I    between atoms: C_6  and  N_7 
REMARK    3  A    between atoms: N_7  and  C_8 
REMARK    4  A    between atoms: C_15  and  C_16 
REMARK       I    between atoms: C_16  and  N_17 
ROOT
HETATM    1  C   UNL     1      22.503  48.903  49.175  1.00  0.00     0.035 A 
HETATM    2  C   UNL     1      23.626  48.123  49.484  1.00  0.00     0.046 A 
HETATM    3  C   UNL     1      24.910  48.565  49.095  1.00  0.00     0.030 A 
HETATM    4  C   UNL     1      25.027  49.767  48.408  1.00  0.00     0.063 A 
HETATM    5  N   UNL     1      26.363  49.924  48.175  1.00  0.00    -0.277 N 
HETATM    6  H   UNL     1      26.816  50.694  47.694  1.00  0.00     0.189 HD
HETATM    7  N   UNL     1      27.133  48.931  48.650  1.00  0.00    -0.168 NA
HETATM    8  C   UNL     1      26.248  48.081  49.221  1.00  0.00     0.156 A 
HETATM    9  C   UNL     1      23.930  50.566  48.078  1.00  0.00     0.034 A 
HETATM   10  C   UNL     1      22.668  50.107  48.478  1.00  0.00     0.032 A 
ENDROOT
BRANCH   1  11
HETATM   11  N   UNL     1      21.181  48.548  49.524  1.00  0.00    -0.327 N 
HETATM   12  C   UNL     1      20.311  47.754  48.813  1.00  0.00     0.227 C 
HETATM   13  O   UNL     1      20.537  47.153  47.773  1.00  0.00    -0.273 OA
HETATM   14  H   UNL     1      20.843  48.910  50.403  1.00  0.00     0.169 HD
BRANCH  12  15
HETATM   15  C   UNL     1      18.973  47.565  49.443  1.00  0.00     0.087 A 
HETATM   16  C   UNL     1      17.889  48.632  49.392  1.00  0.00     0.034 A 
HETATM   17  C   UNL     1      18.520  48.232  50.709  1.00  0.00     0.025 A 
BRANCH  16  18
HETATM   18  C   UNL     1      18.092  50.057  48.897  1.00  0.00    -0.031 A 
HETATM   19  C   UNL     1      18.387  51.101  49.794  1.00  0.00     0.009 A 
HETATM   20  C   UNL     1      18.583  52.418  49.365  1.00  0.00     0.001 A 
HETATM   21  C   UNL     1      18.518  52.727  48.012  1.00  0.00     0.002 A 
HETATM   22  C   UNL     1      18.269  51.716  47.090  1.00  0.00     0.024 A 
HETATM   23  C   UNL     1      18.066  50.401  47.527  1.00  0.00     0.040 A 
HETATM   24 CL   UNL     1      17.814  49.198  46.305  1.00  0.00    -0.084 Cl
ENDBRANCH  16  18
ENDBRANCH  12  15
ENDBRANCH   1  11
BRANCH   8  25
HETATM   25  C   UNL     1      26.696  46.840  49.868  1.00  0.00     0.270 C 
HETATM   26  N   UNL     1      26.323  46.727  51.180  1.00  0.00    -0.365 N 
HETATM   27  H   UNL     1      25.784  47.477  51.596  1.00  0.00     0.159 HD
HETATM   28  H   UNL     1      26.580  45.906  51.703  1.00  0.00     0.159 HD
HETATM   29  O   UNL     1      27.347  45.959  49.316  1.00  0.00    -0.266 OA
ENDBRANCH   8  25
TORSDOF 4
ENDMDL
MODEL 2
REMARK VINA RESULT:      -8.5      8.489     11.453
REMARK  4 active torsions:
REMARK  status: ('A' for Active; 'I' for Inactive)
REMARK    1  A    between atoms: C_3  and  C_4 
REMARK    2  A    between atoms: C_5  and  C_6 
REMARK       I    between atoms: C_6  and  N_7 
REMARK    3  A    between atoms: N_7  and  C_8 
REMARK    4  A    between atoms: C_15  and  C_16 
REMARK       I    between atoms: C_16  and  N_17 
ROOT
HETATM    1  C   UNL     1      26.594  43.922  52.061  1.00  0.00     0.035 A 
HETATM    2  C   UNL     1      27.359  42.799  51.719  1.00  0.00     0.046 A 
HETATM    3  C   UNL     1      26.778  41.768  50.946  1.00  0.00     0.030 A 
HETATM    4  C   UNL     1      25.453  41.893  50.549  1.00  0.00     0.063 A 
HETATM    5  N   UNL     1      25.182  40.764  49.830  1.00  0.00    -0.277 N 
HETATM    6  H   UNL     1      24.305  40.516  49.384  1.00  0.00     0.189 HD
HETATM    7  N   UNL     1      26.213  39.911  49.721  1.00  0.00    -0.168 NA
HETATM    8  C   UNL     1      27.208  40.517  50.409  1.00  0.00     0.156 A 
HETATM    9  C   UNL     1      24.659  42.994  50.877  1.00  0.00     0.034 A 
HETATM   10  C   UNL     1      25.259  44.004  51.640  1.00  0.00     0.032 A 
ENDROOT
BRANCH   1  11
HETATM   11  N   UNL     1      27.085  45.003  52.825  1.00  0.00    -0.327 N 
HETATM   12  C   UNL     1      27.052  45.147  54.193  1.00  0.00     0.227 C 
HETATM   13  O   UNL     1      26.646  44.338  55.014  1.00  0.00    -0.273 OA
HETATM   14  H   UNL     1      27.523  45.750  52.305  1.00  0.00     0.169 HD
BRANCH  12  15
HETATM   15  C   UNL     1      27.651  46.411  54.708  1.00  0.00     0.087 A 
HETATM   16  C   UNL     1      29.011  46.451  55.389  1.00  0.00     0.034 A 
HETATM   17  C   UNL     1      27.750  46.784  56.158  1.00  0.00     0.025 A 
BRANCH  16  18
HETATM   18  C   UNL     1      29.812  45.226  55.810  1.00  0.00    -0.031 A 
HETATM   19  C   UNL     1      29.994  44.143  54.929  1.00  0.00     0.009 A 
HETATM   20  C   UNL     1      30.730  43.008  55.289  1.00  0.00     0.001 A 
HETATM   21  C   UNL     1      31.332  42.935  56.539  1.00  0.00     0.002 A 
HETATM   22  C   UNL     1      31.208  44.001  57.422  1.00  0.00     0.024 A 
HETATM   23  C   UNL     1      30.465  45.132  57.059  1.00  0.00     0.040 A 
HETATM   24 CL   UNL     1      30.408  46.435  58.201  1.00  0.00    -0.084 Cl
ENDBRANCH  16  18
ENDBRANCH  12  15
ENDBRANCH   1  11
BRANCH   8  25
HETATM   25  C   UNL     1      28.534  39.894  50.533  1.00  0.00     0.270 C 
HETATM   26  N   UNL     1      29.036  39.900  51.807  1.00  0.00    -0.365 N 
HETATM   27  H   UNL     1      28.480  40.315  52.545  1.00  0.00     0.159 HD
HETATM   28  H   UNL     1      29.937  39.488  51.989  1.00  0.00     0.159 HD
HETATM   29  O   UNL     1      29.166  39.401  49.605  1.00  0.00    -0.266 OA
ENDBRANCH   8  25
TORSDOF 4
ENDMDL
MODEL 3
REMARK VINA RESULT:      -8.3      9.206     11.929
REMARK  4 active torsions:
REMARK  status: ('A' for Active; 'I' for Inactive)
REMARK    1  A    between atoms: C_3  and  C_4 
REMARK    2  A    between atoms: C_5  and  C_6 
REMARK       I    between atoms: C_6  and  N_7 
REMARK    3  A    between atoms: N_7  and  C_8 
REMARK    4  A    between atoms: C_15  and  C_16 
REMARK       I    between atoms: C_16  and  N_17 
ROOT
HETATM    1  C   UNL     1      27.918  43.052  52.363  1.00  0.00     0.035 A 
HETATM    2  C   UNL     1      26.859  42.803  51.479  1.00  0.00     0.046 A 
HETATM    3  C   UNL     1      26.750  41.537  50.860  1.00  0.00     0.030 A 
HETATM    4  C   UNL     1      27.705  40.568  51.142  1.00  0.00     0.063 A 
HETATM    5  N   UNL     1      27.338  39.475  50.410  1.00  0.00    -0.277 N 
HETATM    6  H   UNL     1      27.809  38.577  50.370  1.00  0.00     0.189 HD
HETATM    7  N   UNL     1      26.227  39.642  49.675  1.00  0.00    -0.168 NA
HETATM    8  C   UNL     1      25.852  40.915  49.941  1.00  0.00     0.156 A 
HETATM    9  C   UNL     1      28.775  40.783  52.012  1.00  0.00     0.034 A 
HETATM   10  C   UNL     1      28.859  42.045  52.615  1.00  0.00     0.032 A 
ENDROOT
BRANCH   1  11
HETATM   11  N   UNL     1      28.110  44.280  53.032  1.00  0.00    -0.327 N 
HETATM   12  C   UNL     1      27.498  44.711  54.187  1.00  0.00     0.227 C 
HETATM   13  O   UNL     1      26.717  44.086  54.889  1.00  0.00    -0.273 OA
HETATM   14  H   UNL     1      28.785  44.908  52.620  1.00  0.00     0.169 HD
BRANCH  12  15
HETATM   15  C   UNL     1      27.909  46.068  54.649  1.00  0.00     0.087 A 
HETATM   16  C   UNL     1      29.174  46.305  55.460  1.00  0.00     0.034 A 
HETATM   17  C   UNL     1      27.808  46.559  56.063  1.00  0.00     0.025 A 
BRANCH  16  18
HETATM   18  C   UNL     1      30.040  45.209  56.066  1.00  0.00    -0.031 A 
HETATM   19  C   UNL     1      30.486  44.125  55.286  1.00  0.00     0.009 A 
HETATM   20  C   UNL     1      31.287  43.108  55.817  1.00  0.00     0.001 A 
HETATM   21  C   UNL     1      31.691  43.159  57.146  1.00  0.00     0.002 A 
HETATM   22  C   UNL     1      31.303  44.234  57.938  1.00  0.00     0.024 A 
HETATM   23  C   UNL     1      30.496  45.247  57.402  1.00  0.00     0.040 A 
HETATM   24 CL   UNL     1      30.105  46.574  58.446  1.00  0.00    -0.084 Cl
ENDBRANCH  16  18
ENDBRANCH  12  15
ENDBRANCH   1  11
BRANCH   8  25
HETATM   25  C   UNL     1      24.655  41.499  49.319  1.00  0.00     0.270 C 
HETATM   26  N   UNL     1      24.125  40.742  48.309  1.00  0.00    -0.365 N 
HETATM   27  H   UNL     1      24.574  39.866  48.074  1.00  0.00     0.159 HD
HETATM   28  H   UNL     1      23.299  41.060  47.829  1.00  0.00     0.159 HD
HETATM   29  O   UNL     1      24.147  42.566  49.645  1.00  0.00    -0.266 OA
ENDBRANCH   8  25
TORSDOF 4
ENDMDL
MODEL 4
REMARK VINA RESULT:      -8.1      5.519      9.372
REMARK  4 active torsions:
REMARK  status: ('A' for Active; 'I' for Inactive)
REMARK    1  A    between atoms: C_3  and  C_4 
REMARK    2  A    between atoms: C_5  and  C_6 
REMARK       I    between atoms: C_6  and  N_7 
REMARK    3  A    between atoms: N_7  and  C_8 
REMARK    4  A    between atoms: C_15  and  C_16 
REMARK       I    between atoms: C_16  and  N_17 
ROOT
HETATM    1  C   UNL     1      24.795  43.562  50.864  1.00  0.00     0.035 A 
HETATM    2  C   UNL     1      24.646  44.942  50.673  1.00  0.00     0.046 A 
HETATM    3  C   UNL     1      23.806  45.417  49.640  1.00  0.00     0.030 A 
HETATM    4  C   UNL     1      23.150  44.496  48.833  1.00  0.00     0.063 A 
HETATM    5  N   UNL     1      22.427  45.242  47.946  1.00  0.00    -0.277 N 
HETATM    6  H   UNL     1      21.824  44.900  47.205  1.00  0.00     0.189 HD
HETATM    7  N   UNL     1      22.551  46.570  48.102  1.00  0.00    -0.168 NA
HETATM    8  C   UNL     1      23.404  46.694  49.145  1.00  0.00     0.156 A 
HETATM    9  C   UNL     1      23.279  43.115  48.991  1.00  0.00     0.034 A 
HETATM   10  C   UNL     1      24.115  42.670  50.023  1.00  0.00     0.032 A 
ENDROOT
BRANCH   1  11
HETATM   11  N   UNL     1      25.607  42.992  51.869  1.00  0.00    -0.327 N 
HETATM   12  C   UNL     1      26.982  42.963  51.921  1.00  0.00     0.227 C 
HETATM   13  O   UNL     1      27.763  43.480  51.136  1.00  0.00    -0.273 OA
HETATM   14  H   UNL     1      25.120  42.569  52.645  1.00  0.00     0.169 HD
BRANCH  12  15
HETATM   15  C   UNL     1      27.553  42.281  53.116  1.00  0.00     0.087 A 
HETATM   16  C   UNL     1      27.868  43.023  54.407  1.00  0.00     0.034 A 
HETATM   17  C   UNL     1      28.975  42.408  53.577  1.00  0.00     0.025 A 
BRANCH  16  18
HETATM   18  C   UNL     1      27.843  44.537  54.570  1.00  0.00    -0.031 A 
HETATM   19  C   UNL     1      26.694  45.282  54.243  1.00  0.00     0.009 A 
HETATM   20  C   UNL     1      26.643  46.672  54.388  1.00  0.00     0.001 A 
HETATM   21  C   UNL     1      27.738  47.361  54.896  1.00  0.00     0.002 A 
HETATM   22  C   UNL     1      28.877  46.656  55.268  1.00  0.00     0.024 A 
HETATM   23  C   UNL     1      28.925  45.264  55.114  1.00  0.00     0.040 A 
HETATM   24 CL   UNL     1      30.364  44.463  55.653  1.00  0.00    -0.084 Cl
ENDBRANCH  16  18
ENDBRANCH  12  15
ENDBRANCH   1  11
BRANCH   8  25
HETATM   25  C   UNL     1      23.808  48.018  49.641  1.00  0.00     0.270 C 
HETATM   26  N   UNL     1      22.788  48.929  49.697  1.00  0.00    -0.365 N 
HETATM   27  H   UNL     1      21.863  48.638  49.406  1.00  0.00     0.159 HD
HETATM   28  H   UNL     1      22.970  49.862  50.031  1.00  0.00     0.159 HD
HETATM   29  O   UNL     1      24.946  48.318  49.986  1.00  0.00    -0.266 OA
ENDBRANCH   8  25
TORSDOF 4
ENDMDL
MODEL 5
REMARK VINA RESULT:      -8.0      6.474     10.504
REMARK  4 active torsions:
REMARK  status: ('A' for Active; 'I' for Inactive)
REMARK    1  A    between atoms: C_3  and  C_4 
REMARK    2  A    between atoms: C_5  and  C_6 
REMARK       I    between atoms: C_6  and  N_7 
REMARK    3  A    between atoms: N_7  and  C_8 
REMARK    4  A    between atoms: C_15  and  C_16 
REMARK       I    between atoms: C_16  and  N_17 
ROOT
HETATM    1  C   UNL     1      26.608  44.852  51.369  1.00  0.00     0.035 A 
HETATM    2  C   UNL     1      25.653  44.429  50.434  1.00  0.00     0.046 A 
HETATM    3  C   UNL     1      24.643  45.325  50.015  1.00  0.00     0.030 A 
HETATM    4  C   UNL     1      24.622  46.609  50.547  1.00  0.00     0.063 A 
HETATM    5  N   UNL     1      23.554  47.226  49.960  1.00  0.00    -0.277 N 
HETATM    6  H   UNL     1      23.235  48.177  50.113  1.00  0.00     0.189 HD
HETATM    7  N   UNL     1      22.876  46.461  49.090  1.00  0.00    -0.168 NA
HETATM    8  C   UNL     1      23.537  45.280  49.114  1.00  0.00     0.156 A 
HETATM    9  C   UNL     1      25.553  47.061  51.484  1.00  0.00     0.034 A 
HETATM   10  C   UNL     1      26.545  46.155  51.881  1.00  0.00     0.032 A 
ENDROOT
BRANCH   1  11
HETATM   11  N   UNL     1      27.655  44.033  51.846  1.00  0.00    -0.327 N 
HETATM   12  C   UNL     1      27.642  43.214  52.951  1.00  0.00     0.227 C 
HETATM   13  O   UNL     1      26.700  42.992  53.698  1.00  0.00    -0.273 OA
HETATM   14  H   UNL     1      28.506  44.041  51.303  1.00  0.00     0.169 HD
BRANCH  12  15
HETATM   15  C   UNL     1      28.910  42.472  53.201  1.00  0.00     0.087 A 
HETATM   16  C   UNL     1      29.849  42.822  54.346  1.00  0.00     0.034 A 
HETATM   17  C   UNL     1      30.284  43.001  52.907  1.00  0.00     0.025 A 
BRANCH  16  18
HETATM   18  C   UNL     1      29.729  44.061  55.224  1.00  0.00    -0.031 A 
HETATM   19  C   UNL     1      28.763  45.049  54.954  1.00  0.00     0.009 A 
HETATM   20  C   UNL     1      28.628  46.193  55.747  1.00  0.00     0.001 A 
HETATM   21  C   UNL     1      29.443  46.371  56.859  1.00  0.00     0.002 A 
HETATM   22  C   UNL     1      30.382  45.398  57.181  1.00  0.00     0.024 A 
HETATM   23  C   UNL     1      30.517  44.258  56.379  1.00  0.00     0.040 A 
HETATM   24 CL   UNL     1      31.676  43.074  56.887  1.00  0.00    -0.084 Cl
ENDBRANCH  16  18
ENDBRANCH  12  15
ENDBRANCH   1  11
BRANCH   8  25
HETATM   25  C   UNL     1      23.100  44.149  48.283  1.00  0.00     0.270 C 
HETATM   26  N   UNL     1      23.962  43.838  47.266  1.00  0.00    -0.365 N 
HETATM   27  H   UNL     1      24.807  44.385  47.163  1.00  0.00     0.159 HD
HETATM   28  H   UNL     1      23.748  43.071  46.649  1.00  0.00     0.159 HD
HETATM   29  O   UNL     1      22.065  43.515  48.453  1.00  0.00    -0.266 OA
ENDBRANCH   8  25
TORSDOF 4
ENDMDL
MODEL 6
REMARK VINA RESULT:      -7.9      4.292      8.338
REMARK  4 active torsions:
REMARK  status: ('A' for Active; 'I' for Inactive)
REMARK    1  A    between atoms: C_3  and  C_4 
REMARK    2  A    between atoms: C_5  and  C_6 
REMARK       I    between atoms: C_6  and  N_7 
REMARK    3  A    between atoms: N_7  and  C_8 
REMARK    4  A    between atoms: C_15  and  C_16 
REMARK       I    between atoms: C_16  and  N_17 
ROOT
HETATM    1  C   UNL     1      25.346  46.991  50.074  1.00  0.00     0.035 A 
HETATM    2  C   UNL     1      24.129  47.386  49.500  1.00  0.00     0.046 A 
HETATM    3  C   UNL     1      24.072  48.571  48.731  1.00  0.00     0.030 A 
HETATM    4  C   UNL     1      25.231  49.321  48.568  1.00  0.00     0.063 A 
HETATM    5  N   UNL     1      24.868  50.384  47.792  1.00  0.00    -0.277 N 
HETATM    6  H   UNL     1      25.463  51.141  47.471  1.00  0.00     0.189 HD
HETATM    7  N   UNL     1      23.574  50.397  47.432  1.00  0.00    -0.168 NA
HETATM    8  C   UNL     1      23.068  49.282  48.008  1.00  0.00     0.156 A 
HETATM    9  C   UNL     1      26.457  48.960  49.130  1.00  0.00     0.034 A 
HETATM   10  C   UNL     1      26.488  47.781  49.885  1.00  0.00     0.032 A 
ENDROOT
BRANCH   1  11
HETATM   11  N   UNL     1      25.503  45.825  50.853  1.00  0.00    -0.327 N 
HETATM   12  C   UNL     1      26.491  44.872  50.749  1.00  0.00     0.227 C 
HETATM   13  O   UNL     1      27.457  44.886  49.999  1.00  0.00    -0.273 OA
HETATM   14  H   UNL     1      24.818  45.682  51.581  1.00  0.00     0.169 HD
BRANCH  12  15
HETATM   15  C   UNL     1      26.385  43.745  51.718  1.00  0.00     0.087 A 
HETATM   16  C   UNL     1      26.499  43.950  53.222  1.00  0.00     0.034 A 
HETATM   17  C   UNL     1      27.540  43.148  52.468  1.00  0.00     0.025 A 
BRANCH  16  18
HETATM   18  C   UNL     1      26.933  45.245  53.895  1.00  0.00    -0.031 A 
HETATM   19  C   UNL     1      26.063  46.349  53.968  1.00  0.00     0.009 A 
HETATM   20  C   UNL     1      26.434  47.549  54.586  1.00  0.00     0.001 A 
HETATM   21  C   UNL     1      27.686  47.670  55.178  1.00  0.00     0.002 A 
HETATM   22  C   UNL     1      28.558  46.587  55.161  1.00  0.00     0.024 A 
HETATM   23  C   UNL     1      28.183  45.392  54.536  1.00  0.00     0.040 A 
HETATM   24 CL   UNL     1      29.312  44.079  54.610  1.00  0.00    -0.084 Cl
ENDBRANCH  16  18
ENDBRANCH  12  15
ENDBRANCH   1  11
BRANCH   8  25
HETATM   25  C   UNL     1      21.651  48.924  47.853  1.00  0.00     0.270 C 
HETATM   26  N   UNL     1      20.781  49.919  48.213  1.00  0.00    -0.365 N 
HETATM   27  H   UNL     1      21.161  50.797  48.545  1.00  0.00     0.159 HD
HETATM   28  H   UNL     1      19.789  49.766  48.133  1.00  0.00     0.159 HD
HETATM   29  O   UNL     1      21.242  47.844  47.440  1.00  0.00    -0.266 OA
ENDBRANCH   8  25
TORSDOF 4
ENDMDL
MODEL 7
REMARK VINA RESULT:      -7.8      7.006      9.531
REMARK  4 active torsions:
REMARK  status: ('A' for Active; 'I' for Inactive)
REMARK    1  A    between atoms: C_3  and  C_4 
REMARK    2  A    between atoms: C_5  and  C_6 
REMARK       I    between atoms: C_6  and  N_7 
REMARK    3  A    between atoms: N_7  and  C_8 
REMARK    4  A    between atoms: C_15  and  C_16 
REMARK       I    between atoms: C_16  and  N_17 
ROOT
HETATM    1  C   UNL     1      28.874  43.491  52.900  1.00  0.00     0.035 A 
HETATM    2  C   UNL     1      28.105  44.561  53.379  1.00  0.00     0.046 A 
HETATM    3  C   UNL     1      28.418  45.140  54.630  1.00  0.00     0.030 A 
HETATM    4  C   UNL     1      29.484  44.625  55.359  1.00  0.00     0.063 A 
HETATM    5  N   UNL     1      29.539  45.376  56.498  1.00  0.00    -0.277 N 
HETATM    6  H   UNL     1      30.198  45.281  57.264  1.00  0.00     0.189 HD
HETATM    7  N   UNL     1      28.605  46.337  56.579  1.00  0.00    -0.168 NA
HETATM    8  C   UNL     1      27.902  46.202  55.431  1.00  0.00     0.156 A 
HETATM    9  C   UNL     1      30.266  43.557  54.915  1.00  0.00     0.034 A 
HETATM   10  C   UNL     1      29.937  43.004  53.671  1.00  0.00     0.032 A 
ENDROOT
BRANCH   1  11
HETATM   11  N   UNL     1      28.641  42.851  51.663  1.00  0.00    -0.327 N 
HETATM   12  C   UNL     1      27.851  41.750  51.424  1.00  0.00     0.227 C 
HETATM   13  O   UNL     1      27.150  41.152  52.227  1.00  0.00    -0.273 OA
HETATM   14  H   UNL     1      29.098  43.258  50.861  1.00  0.00     0.169 HD
BRANCH  12  15
HETATM   15  C   UNL     1      27.809  41.302  50.003  1.00  0.00     0.087 A 
HETATM   16  C   UNL     1      26.753  41.794  49.023  1.00  0.00     0.034 A 
HETATM   17  C   UNL     1      26.807  40.338  49.438  1.00  0.00     0.025 A 
BRANCH  16  18
HETATM   18  C   UNL     1      25.524  42.608  49.403  1.00  0.00    -0.031 A 
HETATM   19  C   UNL     1      24.267  41.994  49.557  1.00  0.00     0.009 A 
HETATM   20  C   UNL     1      23.124  42.718  49.910  1.00  0.00     0.001 A 
HETATM   21  C   UNL     1      23.210  44.084  50.149  1.00  0.00     0.002 A 
HETATM   22  C   UNL     1      24.442  44.721  50.046  1.00  0.00     0.024 A 
HETATM   23  C   UNL     1      25.582  43.991  49.686  1.00  0.00     0.040 A 
HETATM   24 CL   UNL     1      27.083  44.855  49.634  1.00  0.00    -0.084 Cl
ENDBRANCH  16  18
ENDBRANCH  12  15
ENDBRANCH   1  11
BRANCH   8  25
HETATM   25  C   UNL     1      26.765  47.084  55.129  1.00  0.00     0.270 C 
HETATM   26  N   UNL     1      26.973  48.396  55.461  1.00  0.00    -0.365 N 
HETATM   27  H   UNL     1      27.861  48.657  55.872  1.00  0.00     0.159 HD
HETATM   28  H   UNL     1      26.251  49.076  55.283  1.00  0.00     0.159 HD
HETATM   29  O   UNL     1      25.710  46.718  54.624  1.00  0.00    -0.266 OA
ENDBRANCH   8  25
TORSDOF 4
ENDMDL
MODEL 8
REMARK VINA RESULT:      -7.6      2.151      3.314
REMARK  4 active torsions:
REMARK  status: ('A' for Active; 'I' for Inactive)
REMARK    1  A    between atoms: C_3  and  C_4 
REMARK    2  A    between atoms: C_5  and  C_6 
REMARK       I    between atoms: C_6  and  N_7 
REMARK    3  A    between atoms: N_7  and  C_8 
REMARK    4  A    between atoms: C_15  and  C_16 
REMARK       I    between atoms: C_16  and  N_17 
ROOT
HETATM    1  C   UNL     1      23.105  49.964  48.811  1.00  0.00     0.035 A 
HETATM    2  C   UNL     1      23.374  48.787  49.525  1.00  0.00     0.046 A 
HETATM    3  C   UNL     1      24.687  48.266  49.540  1.00  0.00     0.030 A 
HETATM    4  C   UNL     1      25.683  48.934  48.838  1.00  0.00     0.063 A 
HETATM    5  N   UNL     1      26.820  48.205  49.039  1.00  0.00    -0.277 N 
HETATM    6  H   UNL     1      27.746  48.399  48.674  1.00  0.00     0.189 HD
HETATM    7  N   UNL     1      26.657  47.118  49.812  1.00  0.00    -0.168 NA
HETATM    8  C   UNL     1      25.341  47.141  50.128  1.00  0.00     0.156 A 
HETATM    9  C   UNL     1      25.450  50.104  48.112  1.00  0.00     0.034 A 
HETATM   10  C   UNL     1      24.140  50.602  48.115  1.00  0.00     0.032 A 
ENDROOT
BRANCH   1  11
HETATM   11  N   UNL     1      21.829  50.563  48.739  1.00  0.00    -0.327 N 
HETATM   12  C   UNL     1      21.067  51.043  49.780  1.00  0.00     0.227 C 
HETATM   13  O   UNL     1      21.376  51.097  50.961  1.00  0.00    -0.273 OA
HETATM   14  H   UNL     1      21.438  50.663  47.814  1.00  0.00     0.169 HD
BRANCH  12  15
HETATM   15  C   UNL     1      19.751  51.620  49.383  1.00  0.00     0.087 A 
HETATM   16  C   UNL     1      18.644  50.779  48.765  1.00  0.00     0.034 A 
HETATM   17  C   UNL     1      19.319  51.877  47.969  1.00  0.00     0.025 A 
BRANCH  16  18
HETATM   18  C   UNL     1      18.803  49.341  48.291  1.00  0.00    -0.031 A 
HETATM   19  C   UNL     1      19.028  49.046  46.933  1.00  0.00     0.009 A 
HETATM   20  C   UNL     1      19.183  47.734  46.473  1.00  0.00     0.001 A 
HETATM   21  C   UNL     1      19.146  46.672  47.369  1.00  0.00     0.002 A 
HETATM   22  C   UNL     1      18.965  46.925  48.724  1.00  0.00     0.024 A 
HETATM   23  C   UNL     1      18.804  48.241  49.178  1.00  0.00     0.040 A 
HETATM   24 CL   UNL     1      18.637  48.467  50.888  1.00  0.00    -0.084 Cl
ENDBRANCH  16  18
ENDBRANCH  12  15
ENDBRANCH   1  11
BRANCH   8  25
HETATM   25  C   UNL     1      24.747  46.099  50.977  1.00  0.00     0.270 C 
HETATM   26  N   UNL     1      23.800  45.337  50.346  1.00  0.00    -0.365 N 
HETATM   27  H   UNL     1      23.586  45.537  49.377  1.00  0.00     0.159 HD
HETATM   28  H   UNL     1      23.343  44.593  50.848  1.00  0.00     0.159 HD
HETATM   29  O   UNL     1      25.045  45.896  52.149  1.00  0.00    -0.266 OA
ENDBRANCH   8  25
TORSDOF 4
ENDMDL
MODEL 9
REMARK VINA RESULT:      -7.6      5.350      9.172
REMARK  4 active torsions:
REMARK  status: ('A' for Active; 'I' for Inactive)
REMARK    1  A    between atoms: C_3  and  C_4 
REMARK    2  A    between atoms: C_5  and  C_6 
REMARK       I    between atoms: C_6  and  N_7 
REMARK    3  A    between atoms: N_7  and  C_8 
REMARK    4  A    between atoms: C_15  and  C_16 
REMARK       I    between atoms: C_16  and  N_17 
ROOT
HETATM    1  C   UNL     1      24.688  45.231  50.587  1.00  0.00     0.035 A 
HETATM    2  C   UNL     1      23.792  44.927  49.553  1.00  0.00     0.046 A 
HETATM    3  C   UNL     1      23.187  45.976  48.823  1.00  0.00     0.030 A 
HETATM    4  C   UNL     1      23.495  47.289  49.156  1.00  0.00     0.063 A 
HETATM    5  N   UNL     1      22.772  48.061  48.291  1.00  0.00    -0.277 N 
HETATM    6  H   UNL     1      22.751  49.074  48.244  1.00  0.00     0.189 HD
HETATM    7  N   UNL     1      22.019  47.369  47.421  1.00  0.00    -0.168 NA
HETATM    8  C   UNL     1      22.264  46.076  47.739  1.00  0.00     0.156 A 
HETATM    9  C   UNL     1      24.377  47.628  50.183  1.00  0.00     0.034 A 
HETATM   10  C   UNL     1      24.965  46.571  50.889  1.00  0.00     0.032 A 
ENDROOT
BRANCH   1  11
HETATM   11  N   UNL     1      25.343  44.256  51.369  1.00  0.00    -0.327 N 
HETATM   12  C   UNL     1      26.668  43.889  51.316  1.00  0.00     0.227 C 
HETATM   13  O   UNL     1      27.546  44.382  50.622  1.00  0.00    -0.273 OA
HETATM   14  H   UNL     1      24.774  43.784  52.057  1.00  0.00     0.169 HD
BRANCH  12  15
HETATM   15  C   UNL     1      27.065  42.818  52.274  1.00  0.00     0.087 A 
HETATM   16  C   UNL     1      27.490  43.119  53.704  1.00  0.00     0.034 A 
HETATM   17  C   UNL     1      28.473  42.536  52.709  1.00  0.00     0.025 A 
BRANCH  16  18
HETATM   18  C   UNL     1      27.762  44.511  54.258  1.00  0.00    -0.031 A 
HETATM   19  C   UNL     1      26.791  45.526  54.172  1.00  0.00     0.009 A 
HETATM   20  C   UNL     1      27.014  46.812  54.678  1.00  0.00     0.001 A 
HETATM   21  C   UNL     1      28.212  47.113  55.314  1.00  0.00     0.002 A 
HETATM   22  C   UNL     1      29.181  46.125  55.453  1.00  0.00     0.024 A 
HETATM   23  C   UNL     1      28.954  44.842  54.939  1.00  0.00     0.040 A 
HETATM   24 CL   UNL     1      30.194  43.660  55.205  1.00  0.00    -0.084 Cl
ENDBRANCH  16  18
ENDBRANCH  12  15
ENDBRANCH   1  11
BRANCH   8  25
HETATM   25  C   UNL     1      21.616  44.979  47.006  1.00  0.00     0.270 C 
HETATM   26  N   UNL     1      21.753  45.058  45.646  1.00  0.00    -0.365 N 
HETATM   27  H   UNL     1      22.273  45.835  45.256  1.00  0.00     0.159 HD
HETATM   28  H   UNL     1      21.348  44.345  45.061  1.00  0.00     0.159 HD
HETATM   29  O   UNL     1      21.000  44.056  47.527  1.00  0.00    -0.266 OA
ENDBRANCH   8  25
TORSDOF 4
ENDMDL
MODEL 10
REMARK VINA RESULT:      -7.4      7.761     10.380
REMARK  4 active torsions:
REMARK  status: ('A' for Active; 'I' for Inactive)
REMARK    1  A    between atoms: C_3  and  C_4 
REMARK    2  A    between atoms: C_5  and  C_6 
REMARK       I    between atoms: C_6  and  N_7 
REMARK    3  A    between atoms: N_7  and  C_8 
REMARK    4  A    between atoms: C_15  and  C_16 
REMARK       I    between atoms: C_16  and  N_17 
ROOT
HETATM    1  C   UNL     1      25.249  43.153  51.065  1.00  0.00     0.035 A 
HETATM    2  C   UNL     1      26.230  42.220  50.699  1.00  0.00     0.046 A 
HETATM    3  C   UNL     1      25.954  41.280  49.681  1.00  0.00     0.030 A 
HETATM    4  C   UNL     1      24.707  41.301  49.069  1.00  0.00     0.063 A 
HETATM    5  N   UNL     1      24.741  40.296  48.145  1.00  0.00    -0.277 N 
HETATM    6  H   UNL     1      23.999  40.021  47.510  1.00  0.00     0.189 HD
HETATM    7  N   UNL     1      25.900  39.619  48.097  1.00  0.00    -0.168 NA
HETATM    8  C   UNL     1      26.661  40.216  49.044  1.00  0.00     0.156 A 
HETATM    9  C   UNL     1      23.705  42.211  49.411  1.00  0.00     0.034 A 
HETATM   10  C   UNL     1      24.004  43.134  50.421  1.00  0.00     0.032 A 
ENDROOT
BRANCH   1  11
HETATM   11  N   UNL     1      25.430  44.131  52.066  1.00  0.00    -0.327 N 
HETATM   12  C   UNL     1      26.109  45.324  51.961  1.00  0.00     0.227 C 
HETATM   13  O   UNL     1      26.634  45.792  50.960  1.00  0.00    -0.273 OA
HETATM   14  H   UNL     1      24.999  43.938  52.958  1.00  0.00     0.169 HD
BRANCH  12  15
HETATM   15  C   UNL     1      26.130  46.149  53.202  1.00  0.00     0.087 A 
HETATM   16  C   UNL     1      27.246  46.048  54.230  1.00  0.00     0.034 A 
HETATM   17  C   UNL     1      25.833  45.632  54.579  1.00  0.00     0.025 A 
BRANCH  16  18
HETATM   18  C   UNL     1      28.335  44.982  54.234  1.00  0.00    -0.031 A 
HETATM   19  C   UNL     1      28.535  44.149  53.117  1.00  0.00     0.009 A 
HETATM   20  C   UNL     1      29.531  43.166  53.093  1.00  0.00     0.001 A 
HETATM   21  C   UNL     1      30.380  43.006  54.181  1.00  0.00     0.002 A 
HETATM   22  C   UNL     1      30.239  43.837  55.287  1.00  0.00     0.024 A 
HETATM   23  C   UNL     1      29.236  44.815  55.308  1.00  0.00     0.040 A 
HETATM   24 CL   UNL     1      29.167  45.839  56.705  1.00  0.00    -0.084 Cl
ENDBRANCH  16  18
ENDBRANCH  12  15
ENDBRANCH   1  11
BRANCH   8  25
HETATM   25  C   UNL     1      28.032  39.759  49.314  1.00  0.00     0.270 C 
HETATM   26  N   UNL     1      28.186  39.141  50.526  1.00  0.00    -0.365 N 
HETATM   27  H   UNL     1      27.376  39.044  51.126  1.00  0.00     0.159 HD
HETATM   28  H   UNL     1      29.091  38.789  50.794  1.00  0.00     0.159 HD
HETATM   29  O   UNL     1      28.980  39.899  48.549  1.00  0.00    -0.266 OA
ENDBRANCH   8  25
TORSDOF 4
ENDMDL
