MODEL 1
REMARK VINA RESULT:      -9.8      0.000      0.000
REMARK  5 active torsions:
REMARK  status: ('A' for Active; 'I' for Inactive)
REMARK    1  A    between atoms: C_2  and  N_3 
REMARK       I    between atoms: N_3  and  C_4 
REMARK       I    between atoms: C_4  and  N_5 
REMARK    2  A    between atoms: N_5  and  C_6 
REMARK    3  A    between atoms: C_9  and  C_10 
REMARK    4  A    between atoms: C_10  and  C_11 
REMARK       I    between atoms: C_11  and  N_12 
REMARK    5  A    between atoms: N_12  and  C_13 
ROOT
HETATM    1  C   UNL     1      26.363  43.679  50.317  1.00  0.00     0.174 A 
HETATM    2  S   UNL     1      25.633  42.694  49.132  1.00  0.00    -0.062 SA
HETATM    3  C   UNL     1      26.661  41.401  49.603  1.00  0.00     0.081 A 
HETATM    4  C   UNL     1      27.479  41.801  50.646  1.00  0.00     0.052 A 
HETATM    5  N   UNL     1      27.291  43.117  51.049  1.00  0.00    -0.228 NA
ENDROOT
BRANCH   1   6
HETATM    6  N   UNL     1      25.870  44.949  50.388  1.00  0.00    -0.287 N 
HETATM    7  C   UNL     1      24.655  45.217  50.940  1.00  0.00     0.326 C 
HETATM    8  N   UNL     1      24.218  46.512  50.860  1.00  0.00    -0.309 N 
HETATM    9  O   UNL     1      23.965  44.421  51.574  1.00  0.00    -0.247 OA
HETATM   10  H   UNL     1      23.463  46.684  51.514  1.00  0.00     0.170 HD
HETATM   11  H   UNL     1      26.521  45.706  50.255  1.00  0.00     0.172 HD
BRANCH   8  12
HETATM   12  C   UNL     1      24.529  47.555  49.971  1.00  0.00     0.036 A 
HETATM   13  C   UNL     1      23.574  48.291  49.262  1.00  0.00     0.032 A 
HETATM   14  C   UNL     1      23.970  49.344  48.431  1.00  0.00     0.044 A 
HETATM   15  C   UNL     1      25.318  49.667  48.320  1.00  0.00     0.116 A 
HETATM   16  C   UNL     1      26.277  48.963  49.034  1.00  0.00     0.044 A 
HETATM   17  F   UNL     1      25.692  50.680  47.529  1.00  0.00    -0.206 F 
HETATM   18  C   UNL     1      25.882  47.914  49.867  1.00  0.00     0.032 A 
ENDBRANCH   8  12
ENDBRANCH   1   6
BRANCH   4  19
HETATM   19  C   UNL     1      28.468  40.963  51.387  1.00  0.00     0.163 C 
BRANCH  19  20
HETATM   20  C   UNL     1      28.753  41.433  52.807  1.00  0.00     0.227 C 
HETATM   21  N   UNL     1      29.435  42.633  52.893  1.00  0.00    -0.327 N 
HETATM   22  H   UNL     1      29.848  42.974  52.019  1.00  0.00     0.169 HD
HETATM   23  O   UNL     1      28.315  40.790  53.760  1.00  0.00    -0.273 OA
BRANCH  21  24
HETATM   24  C   UNL     1      29.698  43.397  54.047  1.00  0.00     0.036 A 
HETATM   25  C   UNL     1      30.695  43.094  54.976  1.00  0.00     0.055 A 
HETATM   26  C   UNL     1      30.873  43.890  56.116  1.00  0.00     0.058 A 
HETATM   27 CL   UNL     1      32.115  43.437  57.231  1.00  0.00    -0.082 Cl
HETATM   28  C   UNL     1      30.053  45.004  56.330  1.00  0.00     0.055 A 
HETATM   29 CL   UNL     1      30.214  46.029  57.712  1.00  0.00    -0.083 Cl
HETATM   30  C   UNL     1      29.057  45.312  55.405  1.00  0.00     0.028 A 
HETATM   31  C   UNL     1      28.879  44.510  54.274  1.00  0.00     0.031 A 
ENDBRANCH  21  24
ENDBRANCH  19  20
ENDBRANCH   4  19
TORSDOF 5
ENDMDL
MODEL 2
REMARK VINA RESULT:      -9.6      3.253      4.549
REMARK  5 active torsions:
REMARK  status: ('A' for Active; 'I' for Inactive)
REMARK    1  A    between atoms: C_2  and  N_3 
REMARK       I    between atoms: N_3  and  C_4 
REMARK       I    between atoms: C_4  and  N_5 
REMARK    2  A    between atoms: N_5  and  C_6 
REMARK    3  A    between atoms: C_9  and  C_10 
REMARK    4  A    between atoms: C_10  and  C_11 
REMARK       I    between atoms: C_11  and  N_12 
REMARK    5  A    between atoms: N_12  and  C_13 
ROOT
HETATM    1  C   UNL     1      23.808  46.941  49.496  1.00  0.00     0.174 A 
HETATM    2  S   UNL     1      25.125  48.023  49.556  1.00  0.00    -0.062 SA
HETATM    3  C   UNL     1      26.166  46.704  49.912  1.00  0.00     0.081 A 
HETATM    4  C   UNL     1      25.443  45.523  49.941  1.00  0.00     0.052 A 
HETATM    5  N   UNL     1      24.084  45.677  49.695  1.00  0.00    -0.228 NA
ENDROOT
BRANCH   1   6
HETATM    6  N   UNL     1      22.605  47.519  49.214  1.00  0.00    -0.287 N 
HETATM    7  C   UNL     1      22.028  47.412  47.985  1.00  0.00     0.326 C 
HETATM    8  N   UNL     1      20.874  48.121  47.787  1.00  0.00    -0.309 N 
HETATM    9  O   UNL     1      22.405  46.671  47.079  1.00  0.00    -0.247 OA
HETATM   10  H   UNL     1      20.373  47.783  46.973  1.00  0.00     0.170 HD
HETATM   11  H   UNL     1      22.038  47.810  49.993  1.00  0.00     0.172 HD
BRANCH   8  12
HETATM   12  C   UNL     1      20.360  49.273  48.407  1.00  0.00     0.036 A 
HETATM   13  C   UNL     1      20.747  50.576  48.080  1.00  0.00     0.032 A 
HETATM   14  C   UNL     1      20.151  51.669  48.719  1.00  0.00     0.044 A 
HETATM   15  C   UNL     1      19.163  51.456  49.673  1.00  0.00     0.116 A 
HETATM   16  C   UNL     1      18.751  50.170  49.994  1.00  0.00     0.044 A 
HETATM   17  F   UNL     1      18.590  52.505  50.277  1.00  0.00    -0.206 F 
HETATM   18  C   UNL     1      19.343  49.080  49.354  1.00  0.00     0.032 A 
ENDBRANCH   8  12
ENDBRANCH   1   6
BRANCH   4  19
HETATM   19  C   UNL     1      25.977  44.145  50.151  1.00  0.00     0.163 C 
BRANCH  19  20
HETATM   20  C   UNL     1      26.491  43.876  51.559  1.00  0.00     0.227 C 
HETATM   21  N   UNL     1      27.867  43.910  51.688  1.00  0.00    -0.327 N 
HETATM   22  H   UNL     1      28.397  43.909  50.810  1.00  0.00     0.169 HD
HETATM   23  O   UNL     1      25.690  43.727  52.481  1.00  0.00    -0.273 OA
BRANCH  21  24
HETATM   24  C   UNL     1      28.626  43.862  52.874  1.00  0.00     0.036 A 
HETATM   25  C   UNL     1      28.431  44.714  53.963  1.00  0.00     0.055 A 
HETATM   26  C   UNL     1      29.251  44.620  55.096  1.00  0.00     0.058 A 
HETATM   27 CL   UNL     1      28.961  45.725  56.395  1.00  0.00    -0.082 Cl
HETATM   28  C   UNL     1      30.271  43.664  55.148  1.00  0.00     0.055 A 
HETATM   29 CL   UNL     1      31.320  43.492  56.510  1.00  0.00    -0.083 Cl
HETATM   30  C   UNL     1      30.469  42.810  54.064  1.00  0.00     0.028 A 
HETATM   31  C   UNL     1      29.654  42.914  52.934  1.00  0.00     0.031 A 
ENDBRANCH  21  24
ENDBRANCH  19  20
ENDBRANCH   4  19
TORSDOF 5
ENDMDL
MODEL 3
REMARK VINA RESULT:      -9.6      5.799     10.124
REMARK  5 active torsions:
REMARK  status: ('A' for Active; 'I' for Inactive)
REMARK    1  A    between atoms: C_2  and  N_3 
REMARK       I    between atoms: N_3  and  C_4 
REMARK       I    between atoms: C_4  and  N_5 
REMARK    2  A    between atoms: N_5  and  C_6 
REMARK    3  A    between atoms: C_9  and  C_10 
REMARK    4  A    between atoms: C_10  and  C_11 
REMARK       I    between atoms: C_11  and  N_12 
REMARK    5  A    between atoms: N_12  and  C_13 
ROOT
HETATM    1  C   UNL     1      25.565  46.546  51.633  1.00  0.00     0.174 A 
HETATM    2  S   UNL     1      24.637  45.369  50.822  1.00  0.00    -0.062 SA
HETATM    3  C   UNL     1      24.284  46.520  49.597  1.00  0.00     0.081 A 
HETATM    4  C   UNL     1      24.915  47.720  49.878  1.00  0.00     0.052 A 
HETATM    5  N   UNL     1      25.654  47.717  51.055  1.00  0.00    -0.228 NA
ENDROOT
BRANCH   1   6
HETATM    6  N   UNL     1      26.143  46.120  52.794  1.00  0.00    -0.287 N 
HETATM    7  C   UNL     1      26.148  46.889  53.916  1.00  0.00     0.326 C 
HETATM    8  N   UNL     1      26.848  46.404  54.988  1.00  0.00    -0.309 N 
HETATM    9  O   UNL     1      25.512  47.929  54.075  1.00  0.00    -0.247 OA
HETATM   10  H   UNL     1      26.584  46.879  55.843  1.00  0.00     0.170 HD
HETATM   11  H   UNL     1      26.340  45.136  52.878  1.00  0.00     0.172 HD
BRANCH   8  12
HETATM   12  C   UNL     1      27.919  45.498  55.078  1.00  0.00     0.036 A 
HETATM   13  C   UNL     1      27.955  44.261  54.427  1.00  0.00     0.032 A 
HETATM   14  C   UNL     1      29.081  43.439  54.537  1.00  0.00     0.044 A 
HETATM   15  C   UNL     1      30.173  43.861  55.287  1.00  0.00     0.116 A 
HETATM   16  C   UNL     1      30.164  45.095  55.921  1.00  0.00     0.044 A 
HETATM   17  F   UNL     1      31.252  43.074  55.383  1.00  0.00    -0.206 F 
HETATM   18  C   UNL     1      29.041  45.917  55.808  1.00  0.00     0.032 A 
ENDBRANCH   8  12
ENDBRANCH   1   6
BRANCH   4  19
HETATM   19  C   UNL     1      24.920  48.955  49.038  1.00  0.00     0.163 C 
BRANCH  19  20
HETATM   20  C   UNL     1      23.555  49.350  48.492  1.00  0.00     0.227 C 
HETATM   21  N   UNL     1      22.538  49.362  49.429  1.00  0.00    -0.327 N 
HETATM   22  H   UNL     1      22.756  48.918  50.328  1.00  0.00     0.169 HD
HETATM   23  O   UNL     1      23.447  49.697  47.316  1.00  0.00    -0.273 OA
BRANCH  21  24
HETATM   24  C   UNL     1      21.221  49.833  49.270  1.00  0.00     0.036 A 
HETATM   25  C   UNL     1      20.092  49.011  49.251  1.00  0.00     0.055 A 
HETATM   26  C   UNL     1      18.816  49.558  49.056  1.00  0.00     0.058 A 
HETATM   27 CL   UNL     1      17.469  48.473  49.024  1.00  0.00    -0.082 Cl
HETATM   28  C   UNL     1      18.662  50.938  48.886  1.00  0.00     0.055 A 
HETATM   29 CL   UNL     1      17.121  51.681  48.641  1.00  0.00    -0.083 Cl
HETATM   30  C   UNL     1      19.784  51.764  48.905  1.00  0.00     0.028 A 
HETATM   31  C   UNL     1      21.055  51.212  49.091  1.00  0.00     0.031 A 
ENDBRANCH  21  24
ENDBRANCH  19  20
ENDBRANCH   4  19
TORSDOF 5
ENDMDL
MODEL 4
REMARK VINA RESULT:      -9.2      5.382      9.716
REMARK  5 active torsions:
REMARK  status: ('A' for Active; 'I' for Inactive)
REMARK    1  A    between atoms: C_2  and  N_3 
REMARK       I    between atoms: N_3  and  C_4 
REMARK       I    between atoms: C_4  and  N_5 
REMARK    2  A    between atoms: N_5  and  C_6 
REMARK    3  A    between atoms: C_9  and  C_10 
REMARK    4  A    between atoms: C_10  and  C_11 
REMARK       I    between atoms: C_11  and  N_12 
REMARK    5  A    between atoms: N_12  and  C_13 
ROOT
HETATM    1  C   UNL     1      26.903  44.757  52.456  1.00  0.00     0.174 A 
HETATM    2  S   UNL     1      25.523  44.035  53.149  1.00  0.00    -0.062 SA
HETATM    3  C   UNL     1      24.580  44.636  51.845  1.00  0.00     0.081 A 
HETATM    4  C   UNL     1      25.385  45.330  50.958  1.00  0.00     0.052 A 
HETATM    5  N   UNL     1      26.724  45.387  51.324  1.00  0.00    -0.228 NA
ENDROOT
BRANCH   1   6
HETATM    6  N   UNL     1      28.060  44.568  53.156  1.00  0.00    -0.287 N 
HETATM    7  C   UNL     1      28.801  43.435  53.022  1.00  0.00     0.326 C 
HETATM    8  N   UNL     1      29.883  43.309  53.852  1.00  0.00    -0.309 N 
HETATM    9  O   UNL     1      28.634  42.565  52.169  1.00  0.00    -0.247 OA
HETATM   10  H   UNL     1      30.522  42.599  53.515  1.00  0.00     0.170 HD
HETATM   11  H   UNL     1      28.482  45.378  53.578  1.00  0.00     0.172 HD
BRANCH   8  12
HETATM   12  C   UNL     1      30.176  43.873  55.106  1.00  0.00     0.036 A 
HETATM   13  C   UNL     1      29.599  45.053  55.587  1.00  0.00     0.032 A 
HETATM   14  C   UNL     1      29.915  45.520  56.867  1.00  0.00     0.044 A 
HETATM   15  C   UNL     1      30.797  44.803  57.666  1.00  0.00     0.116 A 
HETATM   16  C   UNL     1      31.362  43.619  57.213  1.00  0.00     0.044 A 
HETATM   17  F   UNL     1      31.092  45.250  58.893  1.00  0.00    -0.206 F 
HETATM   18  C   UNL     1      31.043  43.149  55.937  1.00  0.00     0.032 A 
ENDBRANCH   8  12
ENDBRANCH   1   6
BRANCH   4  19
HETATM   19  C   UNL     1      24.972  45.954  49.666  1.00  0.00     0.163 C 
BRANCH  19  20
HETATM   20  C   UNL     1      24.277  47.300  49.809  1.00  0.00     0.227 C 
HETATM   21  N   UNL     1      23.313  47.559  48.852  1.00  0.00    -0.327 N 
HETATM   22  H   UNL     1      23.307  46.926  48.045  1.00  0.00     0.169 HD
HETATM   23  O   UNL     1      24.541  48.022  50.770  1.00  0.00    -0.273 OA
BRANCH  21  24
HETATM   24  C   UNL     1      22.399  48.629  48.812  1.00  0.00     0.036 A 
HETATM   25  C   UNL     1      21.043  48.514  49.126  1.00  0.00     0.055 A 
HETATM   26  C   UNL     1      20.192  49.624  49.032  1.00  0.00     0.058 A 
HETATM   27 CL   UNL     1      18.522  49.395  49.417  1.00  0.00    -0.082 Cl
HETATM   28  C   UNL     1      20.698  50.864  48.627  1.00  0.00     0.055 A 
HETATM   29 CL   UNL     1      19.710  52.274  48.486  1.00  0.00    -0.083 Cl
HETATM   30  C   UNL     1      22.051  50.986  48.313  1.00  0.00     0.028 A 
HETATM   31  C   UNL     1      22.893  49.873  48.401  1.00  0.00     0.031 A 
ENDBRANCH  21  24
ENDBRANCH  19  20
ENDBRANCH   4  19
TORSDOF 5
ENDMDL
MODEL 5
REMARK VINA RESULT:      -9.0      1.688      2.106
REMARK  5 active torsions:
REMARK  status: ('A' for Active; 'I' for Inactive)
REMARK    1  A    between atoms: C_2  and  N_3 
REMARK       I    between atoms: N_3  and  C_4 
REMARK       I    between atoms: C_4  and  N_5 
REMARK    2  A    between atoms: N_5  and  C_6 
REMARK    3  A    between atoms: C_9  and  C_10 
REMARK    4  A    between atoms: C_10  and  C_11 
REMARK       I    between atoms: C_11  and  N_12 
REMARK    5  A    between atoms: N_12  and  C_13 
ROOT
HETATM    1  C   UNL     1      25.513  44.870  50.147  1.00  0.00     0.174 A 
HETATM    2  S   UNL     1      24.132  43.973  50.591  1.00  0.00    -0.062 SA
HETATM    3  C   UNL     1      25.153  42.675  51.063  1.00  0.00     0.081 A 
HETATM    4  C   UNL     1      26.480  43.020  50.870  1.00  0.00     0.052 A 
HETATM    5  N   UNL     1      26.670  44.292  50.344  1.00  0.00    -0.228 NA
ENDROOT
BRANCH   1   6
HETATM    6  N   UNL     1      25.252  46.117  49.657  1.00  0.00    -0.287 N 
HETATM    7  C   UNL     1      25.797  47.234  50.212  1.00  0.00     0.326 C 
HETATM    8  N   UNL     1      25.381  48.435  49.706  1.00  0.00    -0.309 N 
HETATM    9  O   UNL     1      26.687  47.251  51.061  1.00  0.00    -0.247 OA
HETATM   10  H   UNL     1      26.014  49.182  49.968  1.00  0.00     0.170 HD
HETATM   11  H   UNL     1      24.855  46.177  48.734  1.00  0.00     0.172 HD
BRANCH   8  12
HETATM   12  C   UNL     1      24.207  48.815  49.033  1.00  0.00     0.036 A 
HETATM   13  C   UNL     1      22.998  48.115  49.111  1.00  0.00     0.032 A 
HETATM   14  C   UNL     1      21.865  48.589  48.443  1.00  0.00     0.044 A 
HETATM   15  C   UNL     1      21.939  49.767  47.708  1.00  0.00     0.116 A 
HETATM   16  C   UNL     1      23.123  50.487  47.639  1.00  0.00     0.044 A 
HETATM   17  F   UNL     1      20.850  50.221  47.076  1.00  0.00    -0.206 F 
HETATM   18  C   UNL     1      24.254  50.015  48.309  1.00  0.00     0.032 A 
ENDBRANCH   8  12
ENDBRANCH   1   6
BRANCH   4  19
HETATM   19  C   UNL     1      27.683  42.204  51.212  1.00  0.00     0.163 C 
BRANCH  19  20
HETATM   20  C   UNL     1      28.170  42.371  52.644  1.00  0.00     0.227 C 
HETATM   21  N   UNL     1      28.890  43.528  52.878  1.00  0.00    -0.327 N 
HETATM   22  H   UNL     1      29.191  44.042  52.043  1.00  0.00     0.169 HD
HETATM   23  O   UNL     1      27.848  41.544  53.497  1.00  0.00    -0.273 OA
BRANCH  21  24
HETATM   24  C   UNL     1      29.329  44.037  54.116  1.00  0.00     0.036 A 
HETATM   25  C   UNL     1      30.342  43.461  54.885  1.00  0.00     0.055 A 
HETATM   26  C   UNL     1      30.699  44.014  56.123  1.00  0.00     0.058 A 
HETATM   27 CL   UNL     1      31.949  43.230  57.027  1.00  0.00    -0.082 Cl
HETATM   28  C   UNL     1      30.045  45.157  56.596  1.00  0.00     0.055 A 
HETATM   29 CL   UNL     1      30.431  45.892  58.112  1.00  0.00    -0.083 Cl
HETATM   30  C   UNL     1      29.034  45.737  55.832  1.00  0.00     0.028 A 
HETATM   31  C   UNL     1      28.677  45.176  54.603  1.00  0.00     0.031 A 
ENDBRANCH  21  24
ENDBRANCH  19  20
ENDBRANCH   4  19
TORSDOF 5
ENDMDL
MODEL 6
REMARK VINA RESULT:      -8.9      4.466      8.295
REMARK  5 active torsions:
REMARK  status: ('A' for Active; 'I' for Inactive)
REMARK    1  A    between atoms: C_2  and  N_3 
REMARK       I    between atoms: N_3  and  C_4 
REMARK       I    between atoms: C_4  and  N_5 
REMARK    2  A    between atoms: N_5  and  C_6 
REMARK    3  A    between atoms: C_9  and  C_10 
REMARK    4  A    between atoms: C_10  and  C_11 
REMARK       I    between atoms: C_11  and  N_12 
REMARK    5  A    between atoms: N_12  and  C_13 
ROOT
HETATM    1  C   UNL     1      26.478  43.487  52.586  1.00  0.00     0.174 A 
HETATM    2  S   UNL     1      27.337  42.324  51.682  1.00  0.00    -0.062 SA
HETATM    3  C   UNL     1      25.963  42.128  50.668  1.00  0.00     0.081 A 
HETATM    4  C   UNL     1      24.948  42.978  51.075  1.00  0.00     0.052 A 
HETATM    5  N   UNL     1      25.263  43.758  52.180  1.00  0.00    -0.228 NA
ENDROOT
BRANCH   1   6
HETATM    6  N   UNL     1      27.174  44.032  53.625  1.00  0.00    -0.287 N 
HETATM    7  C   UNL     1      27.309  45.379  53.769  1.00  0.00     0.326 C 
HETATM    8  N   UNL     1      28.118  45.807  54.787  1.00  0.00    -0.309 N 
HETATM    9  O   UNL     1      26.705  46.233  53.124  1.00  0.00    -0.247 OA
HETATM   10  H   UNL     1      27.953  46.785  54.999  1.00  0.00     0.170 HD
HETATM   11  H   UNL     1      27.370  43.437  54.413  1.00  0.00     0.172 HD
BRANCH   8  12
HETATM   12  C   UNL     1      29.183  45.189  55.465  1.00  0.00     0.036 A 
HETATM   13  C   UNL     1      29.690  45.629  56.692  1.00  0.00     0.032 A 
HETATM   14  C   UNL     1      30.725  44.927  57.318  1.00  0.00     0.044 A 
HETATM   15  C   UNL     1      31.243  43.783  56.723  1.00  0.00     0.116 A 
HETATM   16  C   UNL     1      30.737  43.319  55.517  1.00  0.00     0.044 A 
HETATM   17  F   UNL     1      32.229  43.110  57.330  1.00  0.00    -0.206 F 
HETATM   18  C   UNL     1      29.701  44.017  54.893  1.00  0.00     0.032 A 
ENDBRANCH   8  12
ENDBRANCH   1   6
BRANCH   4  19
HETATM   19  C   UNL     1      23.616  43.165  50.427  1.00  0.00     0.163 C 
BRANCH  19  20
HETATM   20  C   UNL     1      23.516  44.397  49.538  1.00  0.00     0.227 C 
HETATM   21  N   UNL     1      23.747  45.597  50.185  1.00  0.00    -0.327 N 
HETATM   22  H   UNL     1      23.759  45.555  51.210  1.00  0.00     0.169 HD
HETATM   23  O   UNL     1      23.321  44.262  48.331  1.00  0.00    -0.273 OA
BRANCH  21  24
HETATM   24  C   UNL     1      23.883  46.876  49.612  1.00  0.00     0.036 A 
HETATM   25  C   UNL     1      25.093  47.566  49.516  1.00  0.00     0.055 A 
HETATM   26  C   UNL     1      25.138  48.851  48.958  1.00  0.00     0.058 A 
HETATM   27 CL   UNL     1      26.672  49.650  48.893  1.00  0.00    -0.082 Cl
HETATM   28  C   UNL     1      23.967  49.453  48.484  1.00  0.00     0.055 A 
HETATM   29 CL   UNL     1      23.947  51.033  47.785  1.00  0.00    -0.083 Cl
HETATM   30  C   UNL     1      22.757  48.768  48.576  1.00  0.00     0.028 A 
HETATM   31  C   UNL     1      22.717  47.490  49.142  1.00  0.00     0.031 A 
ENDBRANCH  21  24
ENDBRANCH  19  20
ENDBRANCH   4  19
TORSDOF 5
ENDMDL
MODEL 7
REMARK VINA RESULT:      -8.8      5.863     10.358
REMARK  5 active torsions:
REMARK  status: ('A' for Active; 'I' for Inactive)
REMARK    1  A    between atoms: C_2  and  N_3 
REMARK       I    between atoms: N_3  and  C_4 
REMARK       I    between atoms: C_4  and  N_5 
REMARK    2  A    between atoms: N_5  and  C_6 
REMARK    3  A    between atoms: C_9  and  C_10 
REMARK    4  A    between atoms: C_10  and  C_11 
REMARK       I    between atoms: C_11  and  N_12 
REMARK    5  A    between atoms: N_12  and  C_13 
ROOT
HETATM    1  C   UNL     1      25.927  47.868  49.718  1.00  0.00     0.174 A 
HETATM    2  S   UNL     1      27.465  48.383  49.192  1.00  0.00    -0.062 SA
HETATM    3  C   UNL     1      26.729  49.737  48.433  1.00  0.00     0.081 A 
HETATM    4  C   UNL     1      25.362  49.716  48.648  1.00  0.00     0.052 A 
HETATM    5  N   UNL     1      24.916  48.633  49.395  1.00  0.00    -0.228 NA
ENDROOT
BRANCH   1   6
HETATM    6  N   UNL     1      25.929  46.717  50.450  1.00  0.00    -0.287 N 
HETATM    7  C   UNL     1      25.648  46.714  51.782  1.00  0.00     0.326 C 
HETATM    8  N   UNL     1      25.784  45.518  52.434  1.00  0.00    -0.309 N 
HETATM    9  O   UNL     1      25.203  47.665  52.422  1.00  0.00    -0.247 OA
HETATM   10  H   UNL     1      25.307  45.532  53.328  1.00  0.00     0.170 HD
HETATM   11  H   UNL     1      25.894  45.847  49.945  1.00  0.00     0.172 HD
BRANCH   8  12
HETATM   12  C   UNL     1      26.553  44.376  52.151  1.00  0.00     0.036 A 
HETATM   13  C   UNL     1      27.881  44.207  52.555  1.00  0.00     0.032 A 
HETATM   14  C   UNL     1      28.558  43.017  52.268  1.00  0.00     0.044 A 
HETATM   15  C   UNL     1      27.903  41.996  51.589  1.00  0.00     0.116 A 
HETATM   16  C   UNL     1      26.579  42.137  51.202  1.00  0.00     0.044 A 
HETATM   17  F   UNL     1      28.554  40.856  51.323  1.00  0.00    -0.206 F 
HETATM   18  C   UNL     1      25.901  43.323  51.491  1.00  0.00     0.032 A 
ENDBRANCH   8  12
ENDBRANCH   1   6
BRANCH   4  19
HETATM   19  C   UNL     1      24.366  50.740  48.213  1.00  0.00     0.163 C 
BRANCH  19  20
HETATM   20  C   UNL     1      22.934  50.230  48.127  1.00  0.00     0.227 C 
HETATM   21  N   UNL     1      22.020  50.940  48.883  1.00  0.00    -0.327 N 
HETATM   22  H   UNL     1      22.419  51.592  49.567  1.00  0.00     0.169 HD
HETATM   23  O   UNL     1      22.664  49.303  47.364  1.00  0.00    -0.273 OA
BRANCH  21  24
HETATM   24  C   UNL     1      20.617  50.816  48.886  1.00  0.00     0.036 A 
HETATM   25  C   UNL     1      19.936  49.641  49.209  1.00  0.00     0.055 A 
HETATM   26  C   UNL     1      18.536  49.591  49.157  1.00  0.00     0.058 A 
HETATM   27 CL   UNL     1      17.766  48.093  49.552  1.00  0.00    -0.082 Cl
HETATM   28  C   UNL     1      17.807  50.726  48.787  1.00  0.00     0.055 A 
HETATM   29 CL   UNL     1      16.081  50.739  48.700  1.00  0.00    -0.083 Cl
HETATM   30  C   UNL     1      18.481  51.903  48.465  1.00  0.00     0.028 A 
HETATM   31  C   UNL     1      19.878  51.943  48.509  1.00  0.00     0.031 A 
ENDBRANCH  21  24
ENDBRANCH  19  20
ENDBRANCH   4  19
TORSDOF 5
ENDMDL
MODEL 8
REMARK VINA RESULT:      -8.8      3.060      4.260
REMARK  5 active torsions:
REMARK  status: ('A' for Active; 'I' for Inactive)
REMARK    1  A    between atoms: C_2  and  N_3 
REMARK       I    between atoms: N_3  and  C_4 
REMARK       I    between atoms: C_4  and  N_5 
REMARK    2  A    between atoms: N_5  and  C_6 
REMARK    3  A    between atoms: C_9  and  C_10 
REMARK    4  A    between atoms: C_10  and  C_11 
REMARK       I    between atoms: C_11  and  N_12 
REMARK    5  A    between atoms: N_12  and  C_13 
ROOT
HETATM    1  C   UNL     1      23.194  45.536  49.180  1.00  0.00     0.174 A 
HETATM    2  S   UNL     1      22.597  43.989  49.579  1.00  0.00    -0.062 SA
HETATM    3  C   UNL     1      24.208  43.465  49.868  1.00  0.00     0.081 A 
HETATM    4  C   UNL     1      25.091  44.510  49.659  1.00  0.00     0.052 A 
HETATM    5  N   UNL     1      24.490  45.699  49.267  1.00  0.00    -0.228 NA
ENDROOT
BRANCH   1   6
HETATM    6  N   UNL     1      22.238  46.447  48.838  1.00  0.00    -0.287 N 
HETATM    7  C   UNL     1      21.921  46.701  47.539  1.00  0.00     0.326 C 
HETATM    8  N   UNL     1      21.024  47.711  47.314  1.00  0.00    -0.309 N 
HETATM    9  O   UNL     1      22.302  46.050  46.568  1.00  0.00    -0.247 OA
HETATM   10  H   UNL     1      20.640  47.657  46.377  1.00  0.00     0.170 HD
HETATM   11  H   UNL     1      21.601  46.742  49.560  1.00  0.00     0.172 HD
BRANCH   8  12
HETATM   12  C   UNL     1      20.665  48.836  48.075  1.00  0.00     0.036 A 
HETATM   13  C   UNL     1      21.247  50.099  47.927  1.00  0.00     0.032 A 
HETATM   14  C   UNL     1      20.797  51.176  48.698  1.00  0.00     0.044 A 
HETATM   15  C   UNL     1      19.761  50.991  49.605  1.00  0.00     0.116 A 
HETATM   16  C   UNL     1      19.156  49.751  49.748  1.00  0.00     0.044 A 
HETATM   17  F   UNL     1      19.329  52.027  50.335  1.00  0.00    -0.206 F 
HETATM   18  C   UNL     1      19.602  48.676  48.976  1.00  0.00     0.032 A 
ENDBRANCH   8  12
ENDBRANCH   1   6
BRANCH   4  19
HETATM   19  C   UNL     1      26.571  44.494  49.862  1.00  0.00     0.163 C 
BRANCH  19  20
HETATM   20  C   UNL     1      27.009  44.652  51.312  1.00  0.00     0.227 C 
HETATM   21  N   UNL     1      28.001  43.777  51.714  1.00  0.00    -0.327 N 
HETATM   22  H   UNL     1      28.193  42.997  51.077  1.00  0.00     0.169 HD
HETATM   23  O   UNL     1      26.535  45.559  51.995  1.00  0.00    -0.273 OA
BRANCH  21  24
HETATM   24  C   UNL     1      28.719  43.783  52.926  1.00  0.00     0.036 A 
HETATM   25  C   UNL     1      28.472  44.666  53.979  1.00  0.00     0.055 A 
HETATM   26  C   UNL     1      29.254  44.626  55.142  1.00  0.00     0.058 A 
HETATM   27 CL   UNL     1      28.900  45.767  56.392  1.00  0.00    -0.082 Cl
HETATM   28  C   UNL     1      30.288  43.691  55.261  1.00  0.00     0.055 A 
HETATM   29 CL   UNL     1      31.292  43.583  56.663  1.00  0.00    -0.083 Cl
HETATM   30  C   UNL     1      30.538  42.805  54.214  1.00  0.00     0.028 A 
HETATM   31  C   UNL     1      29.761  42.856  53.053  1.00  0.00     0.031 A 
ENDBRANCH  21  24
ENDBRANCH  19  20
ENDBRANCH   4  19
TORSDOF 5
ENDMDL
MODEL 9
REMARK VINA RESULT:      -8.7      6.138     10.478
REMARK  5 active torsions:
REMARK  status: ('A' for Active; 'I' for Inactive)
REMARK    1  A    between atoms: C_2  and  N_3 
REMARK       I    between atoms: N_3  and  C_4 
REMARK       I    between atoms: C_4  and  N_5 
REMARK    2  A    between atoms: N_5  and  C_6 
REMARK    3  A    between atoms: C_9  and  C_10 
REMARK    4  A    between atoms: C_10  and  C_11 
REMARK       I    between atoms: C_11  and  N_12 
REMARK    5  A    between atoms: N_12  and  C_13 
ROOT
HETATM    1  C   UNL     1      26.074  48.257  49.957  1.00  0.00     0.174 A 
HETATM    2  S   UNL     1      27.421  48.798  49.064  1.00  0.00    -0.062 SA
HETATM    3  C   UNL     1      26.374  49.771  48.113  1.00  0.00     0.081 A 
HETATM    4  C   UNL     1      25.068  49.634  48.553  1.00  0.00     0.052 A 
HETATM    5  N   UNL     1      24.913  48.759  49.621  1.00  0.00    -0.228 NA
ENDROOT
BRANCH   1   6
HETATM    6  N   UNL     1      26.366  47.371  50.953  1.00  0.00    -0.287 N 
HETATM    7  C   UNL     1      25.476  46.421  51.351  1.00  0.00     0.326 C 
HETATM    8  N   UNL     1      25.836  45.658  52.430  1.00  0.00    -0.309 N 
HETATM    9  O   UNL     1      24.428  46.135  50.776  1.00  0.00    -0.247 OA
HETATM   10  H   UNL     1      25.270  44.820  52.490  1.00  0.00     0.170 HD
HETATM   11  H   UNL     1      27.333  47.270  51.213  1.00  0.00     0.172 HD
BRANCH   8  12
HETATM   12  C   UNL     1      26.722  45.896  53.495  1.00  0.00     0.036 A 
HETATM   13  C   UNL     1      26.717  47.059  54.272  1.00  0.00     0.032 A 
HETATM   14  C   UNL     1      27.606  47.194  55.343  1.00  0.00     0.044 A 
HETATM   15  C   UNL     1      28.489  46.163  55.642  1.00  0.00     0.116 A 
HETATM   16  C   UNL     1      28.493  44.993  54.896  1.00  0.00     0.044 A 
HETATM   17  F   UNL     1      29.334  46.294  56.672  1.00  0.00    -0.206 F 
HETATM   18  C   UNL     1      27.602  44.856  53.829  1.00  0.00     0.032 A 
ENDBRANCH   8  12
ENDBRANCH   1   6
BRANCH   4  19
HETATM   19  C   UNL     1      23.864  50.354  48.042  1.00  0.00     0.163 C 
BRANCH  19  20
HETATM   20  C   UNL     1      22.609  49.497  47.951  1.00  0.00     0.227 C 
HETATM   21  N   UNL     1      21.459  50.105  48.420  1.00  0.00    -0.327 N 
HETATM   22  H   UNL     1      21.598  50.968  48.955  1.00  0.00     0.169 HD
HETATM   23  O   UNL     1      22.666  48.390  47.418  1.00  0.00    -0.273 OA
BRANCH  21  24
HETATM   24  C   UNL     1      20.134  49.639  48.322  1.00  0.00     0.036 A 
HETATM   25  C   UNL     1      19.251  49.995  47.301  1.00  0.00     0.055 A 
HETATM   26  C   UNL     1      17.936  49.510  47.293  1.00  0.00     0.058 A 
HETATM   27 CL   UNL     1      16.897  50.014  46.005  1.00  0.00    -0.082 Cl
HETATM   28  C   UNL     1      17.497  48.656  48.310  1.00  0.00     0.055 A 
HETATM   29 CL   UNL     1      15.891  48.021  48.367  1.00  0.00    -0.083 Cl
HETATM   30  C   UNL     1      18.373  48.295  49.332  1.00  0.00     0.028 A 
HETATM   31  C   UNL     1      19.681  48.789  49.339  1.00  0.00     0.031 A 
ENDBRANCH  21  24
ENDBRANCH  19  20
ENDBRANCH   4  19
TORSDOF 5
ENDMDL
MODEL 10
REMARK VINA RESULT:      -8.5      3.628      4.715
REMARK  5 active torsions:
REMARK  status: ('A' for Active; 'I' for Inactive)
REMARK    1  A    between atoms: C_2  and  N_3 
REMARK       I    between atoms: N_3  and  C_4 
REMARK       I    between atoms: C_4  and  N_5 
REMARK    2  A    between atoms: N_5  and  C_6 
REMARK    3  A    between atoms: C_9  and  C_10 
REMARK    4  A    between atoms: C_10  and  C_11 
REMARK       I    between atoms: C_11  and  N_12 
REMARK    5  A    between atoms: N_12  and  C_13 
ROOT
HETATM    1  C   UNL     1      22.047  44.776  48.941  1.00  0.00     0.174 A 
HETATM    2  S   UNL     1      22.305  44.268  47.333  1.00  0.00    -0.062 SA
HETATM    3  C   UNL     1      23.450  43.121  47.902  1.00  0.00     0.081 A 
HETATM    4  C   UNL     1      23.544  43.188  49.282  1.00  0.00     0.052 A 
HETATM    5  N   UNL     1      22.725  44.146  49.866  1.00  0.00    -0.228 NA
ENDROOT
BRANCH   1   6
HETATM    6  N   UNL     1      21.129  45.775  49.084  1.00  0.00    -0.287 N 
HETATM    7  C   UNL     1      19.819  45.598  48.758  1.00  0.00     0.326 C 
HETATM    8  N   UNL     1      19.013  46.700  48.842  1.00  0.00    -0.309 N 
HETATM    9  O   UNL     1      19.289  44.524  48.480  1.00  0.00    -0.247 OA
HETATM   10  H   UNL     1      18.034  46.438  48.853  1.00  0.00     0.170 HD
HETATM   11  H   UNL     1      21.383  46.556  49.666  1.00  0.00     0.172 HD
BRANCH   8  12
HETATM   12  C   UNL     1      19.292  48.077  48.780  1.00  0.00     0.036 A 
HETATM   13  C   UNL     1      19.541  48.772  47.592  1.00  0.00     0.032 A 
HETATM   14  C   UNL     1      19.767  50.151  47.617  1.00  0.00     0.044 A 
HETATM   15  C   UNL     1      19.732  50.835  48.827  1.00  0.00     0.116 A 
HETATM   16  C   UNL     1      19.464  50.165  50.013  1.00  0.00     0.044 A 
HETATM   17  F   UNL     1      19.942  52.157  48.846  1.00  0.00    -0.206 F 
HETATM   18  C   UNL     1      19.235  48.788  49.987  1.00  0.00     0.032 A 
ENDBRANCH   8  12
ENDBRANCH   1   6
BRANCH   4  19
HETATM   19  C   UNL     1      24.374  42.322  50.171  1.00  0.00     0.163 C 
BRANCH  19  20
HETATM   20  C   UNL     1      25.592  43.014  50.766  1.00  0.00     0.227 C 
HETATM   21  N   UNL     1      25.657  42.986  52.147  1.00  0.00    -0.327 N 
HETATM   22  H   UNL     1      24.799  42.692  52.627  1.00  0.00     0.169 HD
HETATM   23  O   UNL     1      26.456  43.472  50.019  1.00  0.00    -0.273 OA
BRANCH  21  24
HETATM   24  C   UNL     1      26.724  43.391  52.971  1.00  0.00     0.036 A 
HETATM   25  C   UNL     1      26.858  44.674  53.506  1.00  0.00     0.055 A 
HETATM   26  C   UNL     1      27.969  45.006  54.294  1.00  0.00     0.058 A 
HETATM   27 CL   UNL     1      28.073  46.622  54.903  1.00  0.00    -0.082 Cl
HETATM   28  C   UNL     1      28.954  44.048  54.557  1.00  0.00     0.055 A 
HETATM   29 CL   UNL     1      30.350  44.386  55.518  1.00  0.00    -0.083 Cl
HETATM   30  C   UNL     1      28.826  42.765  54.027  1.00  0.00     0.028 A 
HETATM   31  C   UNL     1      27.720  42.443  53.235  1.00  0.00     0.031 A 
ENDBRANCH  21  24
ENDBRANCH  19  20
ENDBRANCH   4  19
TORSDOF 5
ENDMDL
