MODEL 1
REMARK VINA RESULT:      -8.1      0.000      0.000
REMARK  4 active torsions:
REMARK  status: ('A' for Active; 'I' for Inactive)
REMARK    1  A    between atoms: S_2  and  N_3 
REMARK    2  A    between atoms: N_3  and  N_4 
REMARK    3  A    between atoms: C_10  and  C_11 
REMARK    4  A    between atoms: C_13  and  O_14 
ROOT
HETATM    1  N   UNL     1      26.623  44.781  52.439  1.00  0.00    -0.241 N 
HETATM    2  C   UNL     1      27.148  45.349  53.598  1.00  0.00     0.272 C 
HETATM    3  O   UNL     1      26.738  46.388  54.112  1.00  0.00    -0.266 OA
HETATM    4  C   UNL     1      28.328  44.649  54.165  1.00  0.00     0.054 A 
HETATM    5  C   UNL     1      28.847  43.541  53.476  1.00  0.00     0.026 A 
HETATM    6  N   UNL     1      28.255  43.079  52.282  1.00  0.00    -0.265 NA
HETATM    7  C   UNL     1      26.818  43.348  52.236  1.00  0.00     0.217 C 
HETATM    8  C   UNL     1      28.938  45.122  55.334  1.00  0.00     0.019 A 
HETATM    9  C   UNL     1      30.106  44.517  55.794  1.00  0.00     0.001 A 
HETATM   10  C   UNL     1      30.672  43.465  55.076  1.00  0.00     0.002 A 
HETATM   11  C   UNL     1      30.053  42.987  53.917  1.00  0.00     0.024 A 
HETATM   12  H   UNL     1      28.462  42.099  52.108  1.00  0.00     0.130 HD
ENDROOT
BRANCH   7  13
HETATM   13  C   UNL     1      26.240  42.811  50.938  1.00  0.00    -0.017 A 
HETATM   14  C   UNL     1      27.091  42.597  49.837  1.00  0.00     0.047 A 
HETATM   15  C   UNL     1      26.583  42.067  48.656  1.00  0.00     0.066 A 
HETATM   16  C   UNL     1      25.235  41.755  48.538  1.00  0.00     0.036 A 
HETATM   17  C   UNL     1      24.381  41.955  49.621  1.00  0.00     0.003 A 
HETATM   18  C   UNL     1      24.881  42.472  50.817  1.00  0.00     0.011 A 
BRANCH  15  19
HETATM   19  O   UNL     1      27.389  41.830  47.583  1.00  0.00    -0.361 OA
HETATM   20  H   UNL     1      27.710  42.681  47.240  1.00  0.00     0.217 HD
ENDBRANCH  15  19
ENDBRANCH   7  13
BRANCH   1  21
HETATM   21  N   UNL     1      25.361  45.375  51.890  1.00  0.00    -0.123 NA
HETATM   22  H   UNL     1      24.781  45.857  52.589  1.00  0.00     0.165 HD
BRANCH  21  23
HETATM   23  S   UNL     1      25.519  46.441  50.570  1.00  0.00     0.222 S 
HETATM   24  C   UNL     1      24.140  45.983  49.539  1.00  0.00     0.181 C 
HETATM   25  O   UNL     1      26.775  46.169  49.901  1.00  0.00    -0.210 OA
HETATM   26  O   UNL     1      25.263  47.754  51.124  1.00  0.00    -0.210 OA
ENDBRANCH  21  23
ENDBRANCH   1  21
TORSDOF 4
ENDMDL
MODEL 2
REMARK VINA RESULT:      -7.9      3.100      5.773
REMARK  4 active torsions:
REMARK  status: ('A' for Active; 'I' for Inactive)
REMARK    1  A    between atoms: S_2  and  N_3 
REMARK    2  A    between atoms: N_3  and  N_4 
REMARK    3  A    between atoms: C_10  and  C_11 
REMARK    4  A    between atoms: C_13  and  O_14 
ROOT
HETATM    1  N   UNL     1      24.575  46.089  50.553  1.00  0.00    -0.241 N 
HETATM    2  C   UNL     1      24.066  47.080  49.717  1.00  0.00     0.272 C 
HETATM    3  O   UNL     1      22.928  47.080  49.249  1.00  0.00    -0.266 OA
HETATM    4  C   UNL     1      25.030  48.145  49.340  1.00  0.00     0.054 A 
HETATM    5  C   UNL     1      26.356  48.040  49.789  1.00  0.00     0.026 A 
HETATM    6  N   UNL     1      26.770  46.964  50.600  1.00  0.00    -0.265 NA
HETATM    7  C   UNL     1      25.684  46.447  51.433  1.00  0.00     0.217 C 
HETATM    8  C   UNL     1      24.631  49.199  48.509  1.00  0.00     0.019 A 
HETATM    9  C   UNL     1      25.573  50.132  48.080  1.00  0.00     0.001 A 
HETATM   10  C   UNL     1      26.908  49.995  48.458  1.00  0.00     0.002 A 
HETATM   11  C   UNL     1      27.299  48.947  49.298  1.00  0.00     0.024 A 
HETATM   12  H   UNL     1      27.592  47.196  51.151  1.00  0.00     0.130 HD
ENDROOT
BRANCH   7  13
HETATM   13  C   UNL     1      26.200  45.306  52.293  1.00  0.00    -0.017 A 
HETATM   14  C   UNL     1      27.155  44.418  51.766  1.00  0.00     0.047 A 
HETATM   15  C   UNL     1      27.667  43.394  52.556  1.00  0.00     0.066 A 
HETATM   16  C   UNL     1      27.236  43.222  53.865  1.00  0.00     0.036 A 
HETATM   17  C   UNL     1      26.295  44.098  54.404  1.00  0.00     0.003 A 
HETATM   18  C   UNL     1      25.785  45.139  53.627  1.00  0.00     0.011 A 
BRANCH  15  19
HETATM   19  O   UNL     1      28.607  42.533  52.076  1.00  0.00    -0.361 OA
HETATM   20  H   UNL     1      28.245  41.631  52.095  1.00  0.00     0.217 HD
ENDBRANCH  15  19
ENDBRANCH   7  13
BRANCH   1  21
HETATM   21  N   UNL     1      23.616  45.056  51.062  1.00  0.00    -0.123 NA
HETATM   22  H   UNL     1      22.642  45.377  51.126  1.00  0.00     0.165 HD
BRANCH  21  23
HETATM   23  S   UNL     1      23.583  43.562  50.242  1.00  0.00     0.222 S 
HETATM   24  C   UNL     1      24.805  43.796  48.968  1.00  0.00     0.181 C 
HETATM   25  O   UNL     1      22.266  43.378  49.667  1.00  0.00    -0.210 OA
HETATM   26  O   UNL     1      24.095  42.605  51.200  1.00  0.00    -0.210 OA
ENDBRANCH  21  23
ENDBRANCH   1  21
TORSDOF 4
ENDMDL
MODEL 3
REMARK VINA RESULT:      -7.6      1.944      2.265
REMARK  4 active torsions:
REMARK  status: ('A' for Active; 'I' for Inactive)
REMARK    1  A    between atoms: S_2  and  N_3 
REMARK    2  A    between atoms: N_3  and  N_4 
REMARK    3  A    between atoms: C_10  and  C_11 
REMARK    4  A    between atoms: C_13  and  O_14 
ROOT
HETATM    1  N   UNL     1      26.516  42.744  51.629  1.00  0.00    -0.241 N 
HETATM    2  C   UNL     1      26.643  43.438  52.831  1.00  0.00     0.272 C 
HETATM    3  O   UNL     1      25.761  44.136  53.329  1.00  0.00    -0.266 OA
HETATM    4  C   UNL     1      27.980  43.353  53.471  1.00  0.00     0.054 A 
HETATM    5  C   UNL     1      29.000  42.655  52.805  1.00  0.00     0.026 A 
HETATM    6  N   UNL     1      28.766  42.023  51.566  1.00  0.00    -0.265 NA
HETATM    7  C   UNL     1      27.378  41.583  51.422  1.00  0.00     0.217 C 
HETATM    8  C   UNL     1      28.225  44.004  54.686  1.00  0.00     0.019 A 
HETATM    9  C   UNL     1      29.512  44.002  55.220  1.00  0.00     0.001 A 
HETATM   10  C   UNL     1      30.549  43.376  54.530  1.00  0.00     0.002 A 
HETATM   11  C   UNL     1      30.297  42.717  53.323  1.00  0.00     0.024 A 
HETATM   12  H   UNL     1      29.422  41.267  51.394  1.00  0.00     0.130 HD
ENDROOT
BRANCH   7  13
HETATM   13  C   UNL     1      27.198  40.897  50.078  1.00  0.00    -0.017 A 
HETATM   14  C   UNL     1      27.644  41.539  48.908  1.00  0.00     0.047 A 
HETATM   15  C   UNL     1      27.523  40.905  47.675  1.00  0.00     0.066 A 
HETATM   16  C   UNL     1      26.953  39.643  47.578  1.00  0.00     0.036 A 
HETATM   17  C   UNL     1      26.513  38.991  48.729  1.00  0.00     0.003 A 
HETATM   18  C   UNL     1      26.642  39.610  49.974  1.00  0.00     0.011 A 
BRANCH  15  19
HETATM   19  O   UNL     1      27.964  41.496  46.530  1.00  0.00    -0.361 OA
HETATM   20  H   UNL     1      28.405  42.331  46.758  1.00  0.00     0.217 HD
ENDBRANCH  15  19
ENDBRANCH   7  13
BRANCH   1  21
HETATM   21  N   UNL     1      25.157  42.696  51.000  1.00  0.00    -0.123 NA
HETATM   22  H   UNL     1      24.379  42.675  51.673  1.00  0.00     0.165 HD
BRANCH  21  23
HETATM   23  S   UNL     1      24.786  43.912  49.866  1.00  0.00     0.222 S 
HETATM   24  C   UNL     1      24.247  42.969  48.454  1.00  0.00     0.181 C 
HETATM   25  O   UNL     1      25.997  44.647  49.562  1.00  0.00    -0.210 OA
HETATM   26  O   UNL     1      23.642  44.601  50.424  1.00  0.00    -0.210 OA
ENDBRANCH  21  23
ENDBRANCH   1  21
TORSDOF 4
ENDMDL
MODEL 4
REMARK VINA RESULT:      -7.6      2.809      4.194
REMARK  4 active torsions:
REMARK  status: ('A' for Active; 'I' for Inactive)
REMARK    1  A    between atoms: S_2  and  N_3 
REMARK    2  A    between atoms: N_3  and  N_4 
REMARK    3  A    between atoms: C_10  and  C_11 
REMARK    4  A    between atoms: C_13  and  O_14 
ROOT
HETATM    1  N   UNL     1      28.854  43.548  53.619  1.00  0.00    -0.241 N 
HETATM    2  C   UNL     1      29.920  43.524  54.516  1.00  0.00     0.272 C 
HETATM    3  O   UNL     1      30.857  42.729  54.464  1.00  0.00    -0.266 OA
HETATM    4  C   UNL     1      29.826  44.498  55.633  1.00  0.00     0.054 A 
HETATM    5  C   UNL     1      28.677  45.299  55.731  1.00  0.00     0.026 A 
HETATM    6  N   UNL     1      27.637  45.206  54.783  1.00  0.00    -0.265 NA
HETATM    7  C   UNL     1      28.125  44.804  53.464  1.00  0.00     0.217 C 
HETATM    8  C   UNL     1      30.842  44.573  56.594  1.00  0.00     0.019 A 
HETATM    9  C   UNL     1      30.690  45.417  57.692  1.00  0.00     0.001 A 
HETATM   10  C   UNL     1      29.519  46.161  57.839  1.00  0.00     0.002 A 
HETATM   11  C   UNL     1      28.513  46.092  56.871  1.00  0.00     0.024 A 
HETATM   12  H   UNL     1      27.085  46.058  54.739  1.00  0.00     0.130 HD
ENDROOT
BRANCH   7  13
HETATM   13  C   UNL     1      26.962  44.741  52.488  1.00  0.00    -0.017 A 
HETATM   14  C   UNL     1      27.204  44.895  51.110  1.00  0.00     0.047 A 
HETATM   15  C   UNL     1      26.155  44.798  50.202  1.00  0.00     0.066 A 
HETATM   16  C   UNL     1      24.858  44.562  50.637  1.00  0.00     0.036 A 
HETATM   17  C   UNL     1      24.603  44.400  51.998  1.00  0.00     0.003 A 
HETATM   18  C   UNL     1      25.649  44.480  52.918  1.00  0.00     0.011 A 
BRANCH  15  19
HETATM   19  O   UNL     1      26.366  44.924  48.862  1.00  0.00    -0.361 OA
HETATM   20  H   UNL     1      26.067  45.804  48.579  1.00  0.00     0.217 HD
ENDBRANCH  15  19
ENDBRANCH   7  13
BRANCH   1  21
HETATM   21  N   UNL     1      28.952  42.670  52.408  1.00  0.00    -0.123 NA
HETATM   22  H   UNL     1      29.913  42.509  52.079  1.00  0.00     0.165 HD
BRANCH  21  23
HETATM   23  S   UNL     1      28.205  41.142  52.497  1.00  0.00     0.222 S 
HETATM   24  C   UNL     1      26.985  41.235  51.202  1.00  0.00     0.181 C 
HETATM   25  O   UNL     1      27.571  41.011  53.794  1.00  0.00    -0.210 OA
HETATM   26  O   UNL     1      29.232  40.205  52.096  1.00  0.00    -0.210 OA
ENDBRANCH  21  23
ENDBRANCH   1  21
TORSDOF 4
ENDMDL
MODEL 5
REMARK VINA RESULT:      -7.4     12.216     14.381
REMARK  4 active torsions:
REMARK  status: ('A' for Active; 'I' for Inactive)
REMARK    1  A    between atoms: S_2  and  N_3 
REMARK    2  A    between atoms: N_3  and  N_4 
REMARK    3  A    between atoms: C_10  and  C_11 
REMARK    4  A    between atoms: C_13  and  O_14 
ROOT
HETATM    1  N   UNL     1      30.068  50.798  39.752  1.00  0.00    -0.241 N 
HETATM    2  C   UNL     1      29.091  50.327  38.877  1.00  0.00     0.272 C 
HETATM    3  O   UNL     1      28.530  51.013  38.024  1.00  0.00    -0.266 OA
HETATM    4  C   UNL     1      28.690  48.912  39.082  1.00  0.00     0.054 A 
HETATM    5  C   UNL     1      29.260  48.200  40.150  1.00  0.00     0.026 A 
HETATM    6  N   UNL     1      30.212  48.797  41.001  1.00  0.00    -0.265 NA
HETATM    7  C   UNL     1      30.998  49.826  40.319  1.00  0.00     0.217 C 
HETATM    8  C   UNL     1      27.722  48.324  38.258  1.00  0.00     0.019 A 
HETATM    9  C   UNL     1      27.280  47.031  38.530  1.00  0.00     0.001 A 
HETATM   10  C   UNL     1      27.785  46.342  39.632  1.00  0.00     0.002 A 
HETATM   11  C   UNL     1      28.759  46.928  40.445  1.00  0.00     0.024 A 
HETATM   12  H   UNL     1      30.805  48.107  41.454  1.00  0.00     0.130 HD
ENDROOT
BRANCH   7  13
HETATM   13  C   UNL     1      32.014  50.414  41.284  1.00  0.00    -0.017 A 
HETATM   14  C   UNL     1      31.639  50.665  42.617  1.00  0.00     0.047 A 
HETATM   15  C   UNL     1      32.571  51.165  43.521  1.00  0.00     0.066 A 
HETATM   16  C   UNL     1      33.873  51.436  43.124  1.00  0.00     0.036 A 
HETATM   17  C   UNL     1      34.262  51.185  41.808  1.00  0.00     0.003 A 
HETATM   18  C   UNL     1      33.341  50.670  40.895  1.00  0.00     0.011 A 
BRANCH  15  19
HETATM   19  O   UNL     1      32.239  51.398  44.821  1.00  0.00    -0.361 OA
HETATM   20  H   UNL     1      32.057  50.547  45.255  1.00  0.00     0.217 HD
ENDBRANCH  15  19
ENDBRANCH   7  13
BRANCH   1  21
HETATM   21  N   UNL     1      30.597  52.180  39.515  1.00  0.00    -0.123 NA
HETATM   22  H   UNL     1      30.489  52.516  38.549  1.00  0.00     0.165 HD
BRANCH  21  23
HETATM   23  S   UNL     1      30.009  53.418  40.529  1.00  0.00     0.222 S 
HETATM   24  C   UNL     1      28.876  52.540  41.588  1.00  0.00     0.181 C 
HETATM   25  O   UNL     1      29.307  54.389  39.716  1.00  0.00    -0.210 OA
HETATM   26  O   UNL     1      31.154  53.824  41.316  1.00  0.00    -0.210 OA
ENDBRANCH  21  23
ENDBRANCH   1  21
TORSDOF 4
ENDMDL
MODEL 6
REMARK VINA RESULT:      -7.4      5.661      9.368
REMARK  4 active torsions:
REMARK  status: ('A' for Active; 'I' for Inactive)
REMARK    1  A    between atoms: S_2  and  N_3 
REMARK    2  A    between atoms: N_3  and  N_4 
REMARK    3  A    between atoms: C_10  and  C_11 
REMARK    4  A    between atoms: C_13  and  O_14 
ROOT
HETATM    1  N   UNL     1      21.336  48.033  48.918  1.00  0.00    -0.241 N 
HETATM    2  C   UNL     1      19.956  48.228  48.940  1.00  0.00     0.272 C 
HETATM    3  O   UNL     1      19.124  47.322  48.942  1.00  0.00    -0.266 OA
HETATM    4  C   UNL     1      19.519  49.646  48.879  1.00  0.00     0.054 A 
HETATM    5  C   UNL     1      20.496  50.645  48.745  1.00  0.00     0.026 A 
HETATM    6  N   UNL     1      21.868  50.324  48.691  1.00  0.00    -0.265 NA
HETATM    7  C   UNL     1      22.182  49.105  49.436  1.00  0.00     0.217 C 
HETATM    8  C   UNL     1      18.156  49.968  48.902  1.00  0.00     0.019 A 
HETATM    9  C   UNL     1      17.759  51.293  48.739  1.00  0.00     0.001 A 
HETATM   10  C   UNL     1      18.718  52.284  48.529  1.00  0.00     0.002 A 
HETATM   11  C   UNL     1      20.078  51.960  48.520  1.00  0.00     0.024 A 
HETATM   12  H   UNL     1      22.454  51.103  48.978  1.00  0.00     0.130 HD
ENDROOT
BRANCH   7  13
HETATM   13  C   UNL     1      23.673  48.826  49.353  1.00  0.00    -0.017 A 
HETATM   14  C   UNL     1      24.483  49.627  48.527  1.00  0.00     0.047 A 
HETATM   15  C   UNL     1      25.856  49.409  48.473  1.00  0.00     0.066 A 
HETATM   16  C   UNL     1      26.445  48.397  49.218  1.00  0.00     0.036 A 
HETATM   17  C   UNL     1      25.657  47.599  50.047  1.00  0.00     0.003 A 
HETATM   18  C   UNL     1      24.280  47.817  50.122  1.00  0.00     0.011 A 
BRANCH  15  19
HETATM   19  O   UNL     1      26.664  50.183  47.697  1.00  0.00    -0.361 OA
HETATM   20  H   UNL     1      26.991  50.927  48.230  1.00  0.00     0.217 HD
ENDBRANCH  15  19
ENDBRANCH   7  13
BRANCH   1  21
HETATM   21  N   UNL     1      21.837  46.631  49.097  1.00  0.00    -0.123 NA
HETATM   22  H   UNL     1      21.300  46.073  49.773  1.00  0.00     0.165 HD
BRANCH  21  23
HETATM   23  S   UNL     1      21.989  45.679  47.691  1.00  0.00     0.222 S 
HETATM   24  C   UNL     1      23.466  44.740  48.022  1.00  0.00     0.181 C 
HETATM   25  O   UNL     1      22.180  46.558  46.555  1.00  0.00    -0.210 OA
HETATM   26  O   UNL     1      20.854  44.781  47.730  1.00  0.00    -0.210 OA
ENDBRANCH  21  23
ENDBRANCH   1  21
TORSDOF 4
ENDMDL
MODEL 7
REMARK VINA RESULT:      -7.2      3.374      6.937
REMARK  4 active torsions:
REMARK  status: ('A' for Active; 'I' for Inactive)
REMARK    1  A    between atoms: S_2  and  N_3 
REMARK    2  A    between atoms: N_3  and  N_4 
REMARK    3  A    between atoms: C_10  and  C_11 
REMARK    4  A    between atoms: C_13  and  O_14 
ROOT
HETATM    1  N   UNL     1      23.360  46.030  49.410  1.00  0.00    -0.241 N 
HETATM    2  C   UNL     1      22.432  46.870  48.799  1.00  0.00     0.272 C 
HETATM    3  O   UNL     1      21.326  46.511  48.396  1.00  0.00    -0.266 OA
HETATM    4  C   UNL     1      22.891  48.264  48.578  1.00  0.00     0.054 A 
HETATM    5  C   UNL     1      24.207  48.602  48.933  1.00  0.00     0.026 A 
HETATM    6  N   UNL     1      25.076  47.652  49.509  1.00  0.00    -0.265 NA
HETATM    7  C   UNL     1      24.357  46.641  50.285  1.00  0.00     0.217 C 
HETATM    8  C   UNL     1      22.042  49.203  47.980  1.00  0.00     0.019 A 
HETATM    9  C   UNL     1      22.524  50.477  47.684  1.00  0.00     0.001 A 
HETATM   10  C   UNL     1      23.851  50.799  47.963  1.00  0.00     0.002 A 
HETATM   11  C   UNL     1      24.692  49.863  48.573  1.00  0.00     0.024 A 
HETATM   12  H   UNL     1      25.815  48.090  50.052  1.00  0.00     0.130 HD
ENDROOT
BRANCH   7  13
HETATM   13  C   UNL     1      25.349  45.663  50.890  1.00  0.00    -0.017 A 
HETATM   14  C   UNL     1      25.086  45.105  52.156  1.00  0.00     0.047 A 
HETATM   15  C   UNL     1      25.965  44.176  52.704  1.00  0.00     0.066 A 
HETATM   16  C   UNL     1      27.114  43.796  52.024  1.00  0.00     0.036 A 
HETATM   17  C   UNL     1      27.384  44.334  50.767  1.00  0.00     0.003 A 
HETATM   18  C   UNL     1      26.503  45.256  50.198  1.00  0.00     0.011 A 
BRANCH  15  19
HETATM   19  O   UNL     1      25.724  43.606  53.918  1.00  0.00    -0.361 OA
HETATM   20  H   UNL     1      25.296  44.263  54.493  1.00  0.00     0.217 HD
ENDBRANCH  15  19
ENDBRANCH   7  13
BRANCH   1  21
HETATM   21  N   UNL     1      22.909  44.645  49.765  1.00  0.00    -0.123 NA
HETATM   22  H   UNL     1      21.909  44.570  49.990  1.00  0.00     0.165 HD
BRANCH  21  23
HETATM   23  S   UNL     1      23.249  43.409  48.642  1.00  0.00     0.222 S 
HETATM   24  C   UNL     1      24.258  42.292  49.595  1.00  0.00     0.181 C 
HETATM   25  O   UNL     1      24.005  43.976  47.543  1.00  0.00    -0.210 OA
HETATM   26  O   UNL     1      21.971  42.777  48.392  1.00  0.00    -0.210 OA
ENDBRANCH  21  23
ENDBRANCH   1  21
TORSDOF 4
ENDMDL
MODEL 8
REMARK VINA RESULT:      -7.0      2.540      5.726
REMARK  4 active torsions:
REMARK  status: ('A' for Active; 'I' for Inactive)
REMARK    1  A    between atoms: S_2  and  N_3 
REMARK    2  A    between atoms: N_3  and  N_4 
REMARK    3  A    between atoms: C_10  and  C_11 
REMARK    4  A    between atoms: C_13  and  O_14 
ROOT
HETATM    1  N   UNL     1      25.699  45.899  51.705  1.00  0.00    -0.241 N 
HETATM    2  C   UNL     1      24.854  46.627  50.870  1.00  0.00     0.272 C 
HETATM    3  O   UNL     1      24.686  47.843  50.937  1.00  0.00    -0.266 OA
HETATM    4  C   UNL     1      24.074  45.816  49.901  1.00  0.00     0.054 A 
HETATM    5  C   UNL     1      24.196  44.418  49.943  1.00  0.00     0.026 A 
HETATM    6  N   UNL     1      25.056  43.786  50.865  1.00  0.00    -0.265 NA
HETATM    7  C   UNL     1      26.206  44.621  51.213  1.00  0.00     0.217 C 
HETATM    8  C   UNL     1      23.197  46.437  49.003  1.00  0.00     0.019 A 
HETATM    9  C   UNL     1      22.395  45.656  48.173  1.00  0.00     0.001 A 
HETATM   10  C   UNL     1      22.453  44.266  48.259  1.00  0.00     0.002 A 
HETATM   11  C   UNL     1      23.339  43.650  49.148  1.00  0.00     0.024 A 
HETATM   12  H   UNL     1      25.340  42.863  50.550  1.00  0.00     0.130 HD
ENDROOT
BRANCH   7  13
HETATM   13  C   UNL     1      27.098  43.878  52.192  1.00  0.00    -0.017 A 
HETATM   14  C   UNL     1      28.471  43.747  51.916  1.00  0.00     0.047 A 
HETATM   15  C   UNL     1      29.307  43.104  52.824  1.00  0.00     0.066 A 
HETATM   16  C   UNL     1      28.803  42.574  54.003  1.00  0.00     0.036 A 
HETATM   17  C   UNL     1      27.445  42.702  54.294  1.00  0.00     0.003 A 
HETATM   18  C   UNL     1      26.598  43.357  53.399  1.00  0.00     0.011 A 
BRANCH  15  19
HETATM   19  O   UNL     1      30.644  42.982  52.590  1.00  0.00    -0.361 OA
HETATM   20  H   UNL     1      31.127  43.256  53.387  1.00  0.00     0.217 HD
ENDBRANCH  15  19
ENDBRANCH   7  13
BRANCH   1  21
HETATM   21  N   UNL     1      26.598  46.674  52.621  1.00  0.00    -0.123 NA
HETATM   22  H   UNL     1      26.845  47.612  52.278  1.00  0.00     0.165 HD
BRANCH  21  23
HETATM   23  S   UNL     1      26.081  46.865  54.233  1.00  0.00     0.222 S 
HETATM   24  C   UNL     1      27.607  46.733  55.143  1.00  0.00     0.181 C 
HETATM   25  O   UNL     1      25.187  45.775  54.565  1.00  0.00    -0.210 OA
HETATM   26  O   UNL     1      25.615  48.233  54.311  1.00  0.00    -0.210 OA
ENDBRANCH  21  23
ENDBRANCH   1  21
TORSDOF 4
ENDMDL
MODEL 9
REMARK VINA RESULT:      -6.9     12.035     12.907
REMARK  4 active torsions:
REMARK  status: ('A' for Active; 'I' for Inactive)
REMARK    1  A    between atoms: S_2  and  N_3 
REMARK    2  A    between atoms: N_3  and  N_4 
REMARK    3  A    between atoms: C_10  and  C_11 
REMARK    4  A    between atoms: C_13  and  O_14 
ROOT
HETATM    1  N   UNL     1      30.692  50.471  41.611  1.00  0.00    -0.241 N 
HETATM    2  C   UNL     1      31.517  51.298  42.372  1.00  0.00     0.272 C 
HETATM    3  O   UNL     1      31.130  52.285  42.995  1.00  0.00    -0.266 OA
HETATM    4  C   UNL     1      32.962  50.958  42.331  1.00  0.00     0.054 A 
HETATM    5  C   UNL     1      33.381  49.903  41.504  1.00  0.00     0.026 A 
HETATM    6  N   UNL     1      32.456  49.160  40.742  1.00  0.00    -0.265 NA
HETATM    7  C   UNL     1      31.137  49.101  41.373  1.00  0.00     0.217 C 
HETATM    8  C   UNL     1      33.887  51.712  43.063  1.00  0.00     0.019 A 
HETATM    9  C   UNL     1      35.249  51.447  42.931  1.00  0.00     0.001 A 
HETATM   10  C   UNL     1      35.681  50.451  42.055  1.00  0.00     0.002 A 
HETATM   11  C   UNL     1      34.753  49.693  41.336  1.00  0.00     0.024 A 
HETATM   12  H   UNL     1      32.807  48.234  40.513  1.00  0.00     0.130 HD
ENDROOT
BRANCH   7  13
HETATM   13  C   UNL     1      30.197  48.274  40.513  1.00  0.00    -0.017 A 
HETATM   14  C   UNL     1      29.109  47.614  41.114  1.00  0.00     0.047 A 
HETATM   15  C   UNL     1      28.216  46.887  40.333  1.00  0.00     0.066 A 
HETATM   16  C   UNL     1      28.389  46.789  38.959  1.00  0.00     0.036 A 
HETATM   17  C   UNL     1      29.459  47.443  38.348  1.00  0.00     0.003 A 
HETATM   18  C   UNL     1      30.353  48.188  39.118  1.00  0.00     0.011 A 
BRANCH  15  19
HETATM   19  O   UNL     1      27.143  46.256  40.887  1.00  0.00    -0.361 OA
HETATM   20  H   UNL     1      27.002  46.607  41.782  1.00  0.00     0.217 HD
ENDBRANCH  15  19
ENDBRANCH   7  13
BRANCH   1  21
HETATM   21  N   UNL     1      29.213  50.694  41.709  1.00  0.00    -0.123 NA
HETATM   22  H   UNL     1      28.897  51.041  42.623  1.00  0.00     0.165 HD
BRANCH  21  23
HETATM   23  S   UNL     1      28.503  51.702  40.533  1.00  0.00     0.222 S 
HETATM   24  C   UNL     1      27.332  50.611  39.749  1.00  0.00     0.181 C 
HETATM   25  O   UNL     1      29.529  52.116  39.597  1.00  0.00    -0.210 OA
HETATM   26  O   UNL     1      27.772  52.694  41.291  1.00  0.00    -0.210 OA
ENDBRANCH  21  23
ENDBRANCH   1  21
TORSDOF 4
ENDMDL
MODEL 10
REMARK VINA RESULT:      -6.9      4.502      7.763
REMARK  4 active torsions:
REMARK  status: ('A' for Active; 'I' for Inactive)
REMARK    1  A    between atoms: S_2  and  N_3 
REMARK    2  A    between atoms: N_3  and  N_4 
REMARK    3  A    between atoms: C_10  and  C_11 
REMARK    4  A    between atoms: C_13  and  O_14 
ROOT
HETATM    1  N   UNL     1      23.119  48.129  49.045  1.00  0.00    -0.241 N 
HETATM    2  C   UNL     1      22.836  49.484  49.202  1.00  0.00     0.272 C 
HETATM    3  O   UNL     1      23.687  50.369  49.280  1.00  0.00    -0.266 OA
HETATM    4  C   UNL     1      21.397  49.816  49.355  1.00  0.00     0.054 A 
HETATM    5  C   UNL     1      20.466  48.765  49.391  1.00  0.00     0.026 A 
HETATM    6  N   UNL     1      20.875  47.421  49.264  1.00  0.00    -0.265 NA
HETATM    7  C   UNL     1      22.084  47.284  48.453  1.00  0.00     0.217 C 
HETATM    8  C   UNL     1      20.990  51.146  49.512  1.00  0.00     0.019 A 
HETATM    9  C   UNL     1      19.648  51.431  49.759  1.00  0.00     0.001 A 
HETATM   10  C   UNL     1      18.727  50.390  49.873  1.00  0.00     0.002 A 
HETATM   11  C   UNL     1      19.136  49.064  49.702  1.00  0.00     0.024 A 
HETATM   12  H   UNL     1      20.124  46.825  48.926  1.00  0.00     0.130 HD
ENDROOT
BRANCH   7  13
HETATM   13  C   UNL     1      22.459  45.816  48.340  1.00  0.00    -0.017 A 
HETATM   14  C   UNL     1      22.500  45.020  49.500  1.00  0.00     0.047 A 
HETATM   15  C   UNL     1      22.801  43.665  49.405  1.00  0.00     0.066 A 
HETATM   16  C   UNL     1      23.077  43.082  48.176  1.00  0.00     0.036 A 
HETATM   17  C   UNL     1      23.033  43.856  47.018  1.00  0.00     0.003 A 
HETATM   18  C   UNL     1      22.718  45.213  47.096  1.00  0.00     0.011 A 
BRANCH  15  19
HETATM   19  O   UNL     1      22.827  42.869  50.510  1.00  0.00    -0.361 OA
HETATM   20  H   UNL     1      23.692  42.963  50.943  1.00  0.00     0.217 HD
ENDBRANCH  15  19
ENDBRANCH   7  13
BRANCH   1  21
HETATM   21  N   UNL     1      24.542  47.749  48.767  1.00  0.00    -0.123 NA
HETATM   22  H   UNL     1      25.056  48.425  48.188  1.00  0.00     0.165 HD
BRANCH  21  23
HETATM   23  S   UNL     1      25.528  47.411  50.115  1.00  0.00     0.222 S 
HETATM   24  C   UNL     1      26.096  45.758  49.771  1.00  0.00     0.181 C 
HETATM   25  O   UNL     1      24.708  47.437  51.308  1.00  0.00    -0.210 OA
HETATM   26  O   UNL     1      26.649  48.318  49.987  1.00  0.00    -0.210 OA
ENDBRANCH  21  23
ENDBRANCH   1  21
TORSDOF 4
ENDMDL
