MODEL 1
REMARK VINA RESULT:      -9.4      0.000      0.000
REMARK  4 active torsions:
REMARK  status: ('A' for Active; 'I' for Inactive)
REMARK    1  A    between atoms: C_2  and  C_3 
REMARK    2  A    between atoms: C_7  and  N_8 
REMARK       I    between atoms: N_8  and  C_9 
REMARK    3  A    between atoms: C_9  and  C_10 
REMARK    4  A    between atoms: C_12  and  C_13 
ROOT
HETATM    1  C   UNL     1      26.681  45.589  52.904  1.00  0.00     0.149 A 
HETATM    2  N   UNL     1      27.680  45.845  53.839  1.00  0.00    -0.223 NA
HETATM    3  C   UNL     1      28.229  44.679  54.132  1.00  0.00     0.139 A 
HETATM    4  N   UNL     1      27.621  43.682  53.404  1.00  0.00    -0.342 N 
HETATM    5  H   UNL     1      27.838  42.698  53.465  1.00  0.00     0.167 HD
HETATM    6  C   UNL     1      26.638  44.236  52.625  1.00  0.00     0.041 A 
HETATM    7  C   UNL     1      25.774  43.441  51.723  1.00  0.00     0.071 C 
ENDROOT
BRANCH   1   8
HETATM    8  C   UNL     1      25.824  46.650  52.351  1.00  0.00     0.278 C 
HETATM    9  N   UNL     1      25.722  46.513  50.986  1.00  0.00    -0.304 N 
HETATM   10  H   UNL     1      26.199  45.712  50.593  1.00  0.00     0.171 HD
HETATM   11  O   UNL     1      25.304  47.493  53.070  1.00  0.00    -0.265 OA
BRANCH   9  12
HETATM   12  C   UNL     1      25.074  47.371  50.130  1.00  0.00     0.158 A 
HETATM   13  N   UNL     1      23.766  47.342  49.879  1.00  0.00    -0.156 NA
HETATM   14  N   UNL     1      23.552  48.362  49.046  1.00  0.00    -0.280 N 
HETATM   15  C   UNL     1      24.684  49.059  48.730  1.00  0.00     0.037 A 
HETATM   16  H   UNL     1      22.602  48.529  48.735  1.00  0.00     0.189 HD
HETATM   17  C   UNL     1      25.711  48.425  49.409  1.00  0.00     0.010 A 
HETATM   18  C   UNL     1      27.150  48.789  49.391  1.00  0.00     0.054 C 
BRANCH  15  19
HETATM   19  C   UNL     1      24.654  50.241  47.827  1.00  0.00     0.055 C 
HETATM   20  C   UNL     1      23.339  50.998  47.941  1.00  0.00     0.011 C 
ENDBRANCH  15  19
ENDBRANCH   9  12
ENDBRANCH   1   8
BRANCH   3  21
HETATM   21  C   UNL     1      29.292  44.450  55.115  1.00  0.00     0.012 A 
HETATM   22  C   UNL     1      29.495  45.392  56.134  1.00  0.00     0.039 A 
HETATM   23  C   UNL     1      30.485  45.192  57.095  1.00  0.00     0.035 A 
HETATM   24 CL   UNL     1      30.711  46.353  58.346  1.00  0.00    -0.084 Cl
HETATM   25  C   UNL     1      31.293  44.058  57.054  1.00  0.00     0.024 A 
HETATM   26  C   UNL     1      31.111  43.120  56.040  1.00  0.00     0.003 A 
HETATM   27  C   UNL     1      30.117  43.314  55.075  1.00  0.00     0.015 A 
ENDBRANCH   3  21
TORSDOF 4
ENDMDL
MODEL 2
REMARK VINA RESULT:      -9.2      4.638      7.297
REMARK  4 active torsions:
REMARK  status: ('A' for Active; 'I' for Inactive)
REMARK    1  A    between atoms: C_2  and  C_3 
REMARK    2  A    between atoms: C_7  and  N_8 
REMARK       I    between atoms: N_8  and  C_9 
REMARK    3  A    between atoms: C_9  and  C_10 
REMARK    4  A    between atoms: C_12  and  C_13 
ROOT
HETATM    1  C   UNL     1      27.794  42.272  51.829  1.00  0.00     0.149 A 
HETATM    2  N   UNL     1      28.425  42.349  53.068  1.00  0.00    -0.223 NA
HETATM    3  C   UNL     1      28.501  43.633  53.371  1.00  0.00     0.139 A 
HETATM    4  N   UNL     1      27.927  44.384  52.369  1.00  0.00    -0.342 N 
HETATM    5  H   UNL     1      27.882  45.392  52.347  1.00  0.00     0.167 HD
HETATM    6  C   UNL     1      27.478  43.542  51.385  1.00  0.00     0.041 A 
HETATM    7  C   UNL     1      26.817  44.019  50.149  1.00  0.00     0.071 C 
ENDROOT
BRANCH   1   8
HETATM    8  C   UNL     1      27.549  40.992  51.145  1.00  0.00     0.278 C 
HETATM    9  N   UNL     1      28.723  40.502  50.622  1.00  0.00    -0.304 N 
HETATM   10  H   UNL     1      29.548  41.054  50.815  1.00  0.00     0.171 HD
HETATM   11  O   UNL     1      26.431  40.494  51.099  1.00  0.00    -0.265 OA
BRANCH   9  12
HETATM   12  C   UNL     1      28.858  39.375  49.847  1.00  0.00     0.158 A 
HETATM   13  N   UNL     1      29.200  38.175  50.314  1.00  0.00    -0.156 NA
HETATM   14  N   UNL     1      29.166  37.369  49.251  1.00  0.00    -0.280 N 
HETATM   15  C   UNL     1      28.821  38.004  48.091  1.00  0.00     0.037 A 
HETATM   16  H   UNL     1      29.386  36.389  49.391  1.00  0.00     0.189 HD
HETATM   17  C   UNL     1      28.629  39.331  48.439  1.00  0.00     0.010 A 
HETATM   18  C   UNL     1      28.251  40.445  47.533  1.00  0.00     0.054 C 
BRANCH  15  19
HETATM   19  C   UNL     1      28.712  37.277  46.798  1.00  0.00     0.055 C 
HETATM   20  C   UNL     1      27.400  36.514  46.695  1.00  0.00     0.011 C 
ENDBRANCH  15  19
ENDBRANCH   9  12
ENDBRANCH   1   8
BRANCH   3  21
HETATM   21  C   UNL     1      29.139  44.201  54.562  1.00  0.00     0.012 A 
HETATM   22  C   UNL     1      30.173  43.490  55.189  1.00  0.00     0.039 A 
HETATM   23  C   UNL     1      30.812  44.012  56.313  1.00  0.00     0.035 A 
HETATM   24 CL   UNL     1      32.087  43.130  57.060  1.00  0.00    -0.084 Cl
HETATM   25  C   UNL     1      30.428  45.245  56.835  1.00  0.00     0.024 A 
HETATM   26  C   UNL     1      29.395  45.957  56.231  1.00  0.00     0.003 A 
HETATM   27  C   UNL     1      28.753  45.439  55.102  1.00  0.00     0.015 A 
ENDBRANCH   3  21
TORSDOF 4
ENDMDL
MODEL 3
REMARK VINA RESULT:      -9.1      1.481      1.833
REMARK  4 active torsions:
REMARK  status: ('A' for Active; 'I' for Inactive)
REMARK    1  A    between atoms: C_2  and  C_3 
REMARK    2  A    between atoms: C_7  and  N_8 
REMARK       I    between atoms: N_8  and  C_9 
REMARK    3  A    between atoms: C_9  and  C_10 
REMARK    4  A    between atoms: C_12  and  C_13 
ROOT
HETATM    1  C   UNL     1      27.160  44.412  51.921  1.00  0.00     0.149 A 
HETATM    2  N   UNL     1      27.726  45.170  52.941  1.00  0.00    -0.223 NA
HETATM    3  C   UNL     1      28.334  44.319  53.749  1.00  0.00     0.139 A 
HETATM    4  N   UNL     1      28.187  43.037  53.271  1.00  0.00    -0.342 N 
HETATM    5  H   UNL     1      28.535  42.202  53.719  1.00  0.00     0.167 HD
HETATM    6  C   UNL     1      27.445  43.074  52.119  1.00  0.00     0.041 A 
HETATM    7  C   UNL     1      27.085  41.864  51.347  1.00  0.00     0.071 C 
ENDROOT
BRANCH   1   8
HETATM    8  C   UNL     1      26.372  45.013  50.833  1.00  0.00     0.278 C 
HETATM    9  N   UNL     1      26.237  46.367  51.037  1.00  0.00    -0.304 N 
HETATM   10  H   UNL     1      26.715  46.733  51.850  1.00  0.00     0.171 HD
HETATM   11  O   UNL     1      25.941  44.339  49.906  1.00  0.00    -0.265 OA
BRANCH   9  12
HETATM   12  C   UNL     1      25.496  47.233  50.270  1.00  0.00     0.158 A 
HETATM   13  N   UNL     1      24.167  47.214  50.180  1.00  0.00    -0.156 NA
HETATM   14  N   UNL     1      23.860  48.240  49.384  1.00  0.00    -0.280 N 
HETATM   15  C   UNL     1      24.949  48.933  48.937  1.00  0.00     0.037 A 
HETATM   16  H   UNL     1      22.880  48.414  49.192  1.00  0.00     0.189 HD
HETATM   17  C   UNL     1      26.047  48.289  49.484  1.00  0.00     0.010 A 
HETATM   18  C   UNL     1      27.476  48.645  49.293  1.00  0.00     0.054 C 
BRANCH  15  19
HETATM   19  C   UNL     1      24.818  50.121  48.051  1.00  0.00     0.055 C 
HETATM   20  C   UNL     1      23.359  50.490  47.826  1.00  0.00     0.011 C 
ENDBRANCH  15  19
ENDBRANCH   9  12
ENDBRANCH   1   8
BRANCH   3  21
HETATM   21  C   UNL     1      29.026  44.658  54.996  1.00  0.00     0.012 A 
HETATM   22  C   UNL     1      30.132  43.893  55.394  1.00  0.00     0.039 A 
HETATM   23  C   UNL     1      30.822  44.202  56.566  1.00  0.00     0.035 A 
HETATM   24 CL   UNL     1      32.185  43.259  57.031  1.00  0.00    -0.084 Cl
HETATM   25  C   UNL     1      30.419  45.271  57.363  1.00  0.00     0.024 A 
HETATM   26  C   UNL     1      29.314  46.032  56.987  1.00  0.00     0.003 A 
HETATM   27  C   UNL     1      28.621  45.727  55.812  1.00  0.00     0.015 A 
ENDBRANCH   3  21
TORSDOF 4
ENDMDL
MODEL 4
REMARK VINA RESULT:      -9.0      3.227      8.579
REMARK  4 active torsions:
REMARK  status: ('A' for Active; 'I' for Inactive)
REMARK    1  A    between atoms: C_2  and  C_3 
REMARK    2  A    between atoms: C_7  and  N_8 
REMARK       I    between atoms: N_8  and  C_9 
REMARK    3  A    between atoms: C_9  and  C_10 
REMARK    4  A    between atoms: C_12  and  C_13 
ROOT
HETATM    1  C   UNL     1      25.207  45.789  51.991  1.00  0.00     0.149 A 
HETATM    2  N   UNL     1      25.180  47.110  51.554  1.00  0.00    -0.223 NA
HETATM    3  C   UNL     1      24.490  47.119  50.427  1.00  0.00     0.139 A 
HETATM    4  N   UNL     1      24.061  45.845  50.132  1.00  0.00    -0.342 N 
HETATM    5  H   UNL     1      23.538  45.579  49.311  1.00  0.00     0.167 HD
HETATM    6  C   UNL     1      24.507  44.990  51.107  1.00  0.00     0.041 A 
HETATM    7  C   UNL     1      24.237  43.534  51.094  1.00  0.00     0.071 C 
ENDROOT
BRANCH   1   8
HETATM    8  C   UNL     1      25.911  45.375  53.215  1.00  0.00     0.278 C 
HETATM    9  N   UNL     1      27.219  45.062  52.926  1.00  0.00    -0.304 N 
HETATM   10  H   UNL     1      27.495  45.197  51.963  1.00  0.00     0.171 HD
HETATM   11  O   UNL     1      25.346  45.348  54.301  1.00  0.00    -0.265 OA
BRANCH   9  12
HETATM   12  C   UNL     1      28.147  44.557  53.806  1.00  0.00     0.158 A 
HETATM   13  N   UNL     1      28.575  43.296  53.811  1.00  0.00    -0.156 NA
HETATM   14  N   UNL     1      29.493  43.248  54.777  1.00  0.00    -0.280 N 
HETATM   15  C   UNL     1      29.678  44.439  55.419  1.00  0.00     0.037 A 
HETATM   16  H   UNL     1      29.962  42.363  54.942  1.00  0.00     0.189 HD
HETATM   17  C   UNL     1      28.796  45.323  54.821  1.00  0.00     0.010 A 
HETATM   18  C   UNL     1      28.595  46.753  55.165  1.00  0.00     0.054 C 
BRANCH  15  19
HETATM   19  C   UNL     1      30.669  44.596  56.518  1.00  0.00     0.055 C 
HETATM   20  C   UNL     1      31.404  43.293  56.797  1.00  0.00     0.011 C 
ENDBRANCH  15  19
ENDBRANCH   9  12
ENDBRANCH   1   8
BRANCH   3  21
HETATM   21  C   UNL     1      24.245  48.287  49.575  1.00  0.00     0.012 A 
HETATM   22  C   UNL     1      22.933  48.759  49.422  1.00  0.00     0.039 A 
HETATM   23  C   UNL     1      22.671  49.879  48.634  1.00  0.00     0.035 A 
HETATM   24 CL   UNL     1      21.055  50.450  48.468  1.00  0.00    -0.084 Cl
HETATM   25  C   UNL     1      23.706  50.542  47.980  1.00  0.00     0.024 A 
HETATM   26  C   UNL     1      25.013  50.078  48.113  1.00  0.00     0.003 A 
HETATM   27  C   UNL     1      25.282  48.957  48.904  1.00  0.00     0.015 A 
ENDBRANCH   3  21
TORSDOF 4
ENDMDL
MODEL 5
REMARK VINA RESULT:      -8.8      1.744      2.021
REMARK  4 active torsions:
REMARK  status: ('A' for Active; 'I' for Inactive)
REMARK    1  A    between atoms: C_2  and  C_3 
REMARK    2  A    between atoms: C_7  and  N_8 
REMARK       I    between atoms: N_8  and  C_9 
REMARK    3  A    between atoms: C_9  and  C_10 
REMARK    4  A    between atoms: C_12  and  C_13 
ROOT
HETATM    1  C   UNL     1      26.613  44.171  52.509  1.00  0.00     0.149 A 
HETATM    2  N   UNL     1      27.327  44.686  53.587  1.00  0.00    -0.223 NA
HETATM    3  C   UNL     1      28.363  43.886  53.768  1.00  0.00     0.139 A 
HETATM    4  N   UNL     1      28.344  42.879  52.829  1.00  0.00    -0.342 N 
HETATM    5  H   UNL     1      29.011  42.124  52.769  1.00  0.00     0.167 HD
HETATM    6  C   UNL     1      27.244  43.040  52.027  1.00  0.00     0.041 A 
HETATM    7  C   UNL     1      26.909  42.119  50.917  1.00  0.00     0.071 C 
ENDROOT
BRANCH   1   8
HETATM    8  C   UNL     1      25.367  44.784  52.020  1.00  0.00     0.278 C 
HETATM    9  N   UNL     1      25.648  45.715  51.047  1.00  0.00    -0.304 N 
HETATM   10  H   UNL     1      26.624  45.803  50.799  1.00  0.00     0.171 HD
HETATM   11  O   UNL     1      24.274  44.452  52.460  1.00  0.00    -0.265 OA
BRANCH   9  12
HETATM   12  C   UNL     1      24.740  46.540  50.428  1.00  0.00     0.158 A 
HETATM   13  N   UNL     1      24.557  47.824  50.732  1.00  0.00    -0.156 NA
HETATM   14  N   UNL     1      23.635  48.255  49.869  1.00  0.00    -0.280 N 
HETATM   15  C   UNL     1      23.194  47.290  49.009  1.00  0.00     0.037 A 
HETATM   16  H   UNL     1      23.355  49.228  49.921  1.00  0.00     0.189 HD
HETATM   17  C   UNL     1      23.885  46.141  49.357  1.00  0.00     0.010 A 
HETATM   18  C   UNL     1      23.760  44.800  48.731  1.00  0.00     0.054 C 
BRANCH  15  19
HETATM   19  C   UNL     1      22.177  47.573  47.961  1.00  0.00     0.055 C 
HETATM   20  C   UNL     1      21.137  48.571  48.449  1.00  0.00     0.011 C 
ENDBRANCH  15  19
ENDBRANCH   9  12
ENDBRANCH   1   8
BRANCH   3  21
HETATM   21  C   UNL     1      29.368  44.003  54.828  1.00  0.00     0.012 A 
HETATM   22  C   UNL     1      29.232  45.016  55.790  1.00  0.00     0.039 A 
HETATM   23  C   UNL     1      30.161  45.141  56.822  1.00  0.00     0.035 A 
HETATM   24 CL   UNL     1      29.970  46.382  58.000  1.00  0.00    -0.084 Cl
HETATM   25  C   UNL     1      31.243  44.269  56.910  1.00  0.00     0.024 A 
HETATM   26  C   UNL     1      31.398  43.266  55.955  1.00  0.00     0.003 A 
HETATM   27  C   UNL     1      30.468  43.135  54.919  1.00  0.00     0.015 A 
ENDBRANCH   3  21
TORSDOF 4
ENDMDL
MODEL 6
REMARK VINA RESULT:      -8.8      4.243      9.654
REMARK  4 active torsions:
REMARK  status: ('A' for Active; 'I' for Inactive)
REMARK    1  A    between atoms: C_2  and  C_3 
REMARK    2  A    between atoms: C_7  and  N_8 
REMARK       I    between atoms: N_8  and  C_9 
REMARK    3  A    between atoms: C_9  and  C_10 
REMARK    4  A    between atoms: C_12  and  C_13 
ROOT
HETATM    1  C   UNL     1      24.550  48.242  49.379  1.00  0.00     0.149 A 
HETATM    2  N   UNL     1      23.174  48.437  49.450  1.00  0.00    -0.223 NA
HETATM    3  C   UNL     1      22.932  49.614  48.901  1.00  0.00     0.139 A 
HETATM    4  N   UNL     1      24.111  50.177  48.466  1.00  0.00    -0.342 N 
HETATM    5  H   UNL     1      24.202  51.085  48.036  1.00  0.00     0.167 HD
HETATM    6  C   UNL     1      25.145  49.327  48.762  1.00  0.00     0.041 A 
HETATM    7  C   UNL     1      26.559  49.628  48.444  1.00  0.00     0.071 C 
ENDROOT
BRANCH   1   8
HETATM    8  C   UNL     1      25.208  47.041  49.917  1.00  0.00     0.278 C 
HETATM    9  N   UNL     1      24.580  46.633  51.071  1.00  0.00    -0.304 N 
HETATM   10  H   UNL     1      23.770  47.176  51.339  1.00  0.00     0.171 HD
HETATM   11  O   UNL     1      26.168  46.530  49.355  1.00  0.00    -0.265 OA
BRANCH   9  12
HETATM   12  C   UNL     1      24.973  45.600  51.888  1.00  0.00     0.158 A 
HETATM   13  N   UNL     1      24.613  44.328  51.723  1.00  0.00    -0.156 NA
HETATM   14  N   UNL     1      25.247  43.663  52.690  1.00  0.00    -0.280 N 
HETATM   15  C   UNL     1      26.009  44.459  53.497  1.00  0.00     0.037 A 
HETATM   16  H   UNL     1      25.118  42.658  52.738  1.00  0.00     0.189 HD
HETATM   17  C   UNL     1      25.840  45.746  53.013  1.00  0.00     0.010 A 
HETATM   18  C   UNL     1      26.448  46.988  53.550  1.00  0.00     0.054 C 
BRANCH  15  19
HETATM   19  C   UNL     1      26.806  43.906  54.624  1.00  0.00     0.055 C 
HETATM   20  C   UNL     1      28.281  43.797  54.265  1.00  0.00     0.011 C 
ENDBRANCH  15  19
ENDBRANCH   9  12
ENDBRANCH   1   8
BRANCH   3  21
HETATM   21  C   UNL     1      21.623  50.266  48.800  1.00  0.00     0.012 A 
HETATM   22  C   UNL     1      20.930  50.223  47.582  1.00  0.00     0.039 A 
HETATM   23  C   UNL     1      19.674  50.817  47.461  1.00  0.00     0.035 A 
HETATM   24 CL   UNL     1      18.833  50.742  45.961  1.00  0.00    -0.084 Cl
HETATM   25  C   UNL     1      19.093  51.470  48.545  1.00  0.00     0.024 A 
HETATM   26  C   UNL     1      19.775  51.532  49.758  1.00  0.00     0.003 A 
HETATM   27  C   UNL     1      21.033  50.935  49.885  1.00  0.00     0.015 A 
ENDBRANCH   3  21
TORSDOF 4
ENDMDL
MODEL 7
REMARK VINA RESULT:      -8.5      3.547      5.992
REMARK  4 active torsions:
REMARK  status: ('A' for Active; 'I' for Inactive)
REMARK    1  A    between atoms: C_2  and  C_3 
REMARK    2  A    between atoms: C_7  and  N_8 
REMARK       I    between atoms: N_8  and  C_9 
REMARK    3  A    between atoms: C_9  and  C_10 
REMARK    4  A    between atoms: C_12  and  C_13 
ROOT
HETATM    1  C   UNL     1      23.738  48.087  49.107  1.00  0.00     0.149 A 
HETATM    2  N   UNL     1      24.041  46.970  49.880  1.00  0.00    -0.223 NA
HETATM    3  C   UNL     1      25.333  47.039  50.150  1.00  0.00     0.139 A 
HETATM    4  N   UNL     1      25.867  48.174  49.584  1.00  0.00    -0.342 N 
HETATM    5  H   UNL     1      26.839  48.444  49.621  1.00  0.00     0.167 HD
HETATM    6  C   UNL     1      24.876  48.847  48.918  1.00  0.00     0.041 A 
HETATM    7  C   UNL     1      25.108  50.110  48.181  1.00  0.00     0.071 C 
ENDROOT
BRANCH   1   8
HETATM    8  C   UNL     1      22.385  48.346  48.588  1.00  0.00     0.278 C 
HETATM    9  N   UNL     1      21.582  48.846  49.586  1.00  0.00    -0.304 N 
HETATM   10  H   UNL     1      22.037  48.990  50.477  1.00  0.00     0.171 HD
HETATM   11  O   UNL     1      22.096  48.130  47.418  1.00  0.00    -0.265 OA
BRANCH   9  12
HETATM   12  C   UNL     1      20.240  49.122  49.486  1.00  0.00     0.158 A 
HETATM   13  N   UNL     1      19.268  48.283  49.839  1.00  0.00    -0.156 NA
HETATM   14  N   UNL     1      18.136  48.957  49.629  1.00  0.00    -0.280 N 
HETATM   15  C   UNL     1      18.331  50.217  49.137  1.00  0.00     0.037 A 
HETATM   16  H   UNL     1      17.261  48.496  49.851  1.00  0.00     0.189 HD
HETATM   17  C   UNL     1      19.703  50.356  49.011  1.00  0.00     0.010 A 
HETATM   18  C   UNL     1      20.435  51.544  48.505  1.00  0.00     0.054 C 
BRANCH  15  19
HETATM   19  C   UNL     1      17.195  51.134  48.850  1.00  0.00     0.055 C 
HETATM   20  C   UNL     1      17.084  52.230  49.901  1.00  0.00     0.011 C 
ENDBRANCH  15  19
ENDBRANCH   9  12
ENDBRANCH   1   8
BRANCH   3  21
HETATM   21  C   UNL     1      26.112  46.045  50.895  1.00  0.00     0.012 A 
HETATM   22  C   UNL     1      26.116  46.091  52.297  1.00  0.00     0.039 A 
HETATM   23  C   UNL     1      26.832  45.149  53.034  1.00  0.00     0.035 A 
HETATM   24 CL   UNL     1      26.814  45.214  54.754  1.00  0.00    -0.084 Cl
HETATM   25  C   UNL     1      27.562  44.153  52.389  1.00  0.00     0.024 A 
HETATM   26  C   UNL     1      27.578  44.102  50.997  1.00  0.00     0.003 A 
HETATM   27  C   UNL     1      26.859  45.043  50.253  1.00  0.00     0.015 A 
ENDBRANCH   3  21
TORSDOF 4
ENDMDL
MODEL 8
REMARK VINA RESULT:      -8.4      3.289      4.992
REMARK  4 active torsions:
REMARK  status: ('A' for Active; 'I' for Inactive)
REMARK    1  A    between atoms: C_2  and  C_3 
REMARK    2  A    between atoms: C_7  and  N_8 
REMARK       I    between atoms: N_8  and  C_9 
REMARK    3  A    between atoms: C_9  and  C_10 
REMARK    4  A    between atoms: C_12  and  C_13 
ROOT
HETATM    1  C   UNL     1      27.261  44.680  52.517  1.00  0.00     0.149 A 
HETATM    2  N   UNL     1      28.203  44.305  53.472  1.00  0.00    -0.223 NA
HETATM    3  C   UNL     1      28.109  45.180  54.457  1.00  0.00     0.139 A 
HETATM    4  N   UNL     1      27.125  46.100  54.171  1.00  0.00    -0.342 N 
HETATM    5  H   UNL     1      26.876  46.888  54.750  1.00  0.00     0.167 HD
HETATM    6  C   UNL     1      26.581  45.803  52.949  1.00  0.00     0.041 A 
HETATM    7  C   UNL     1      25.502  46.603  52.326  1.00  0.00     0.071 C 
ENDROOT
BRANCH   1   8
HETATM    8  C   UNL     1      27.084  43.951  51.252  1.00  0.00     0.278 C 
HETATM    9  N   UNL     1      26.114  42.986  51.392  1.00  0.00    -0.304 N 
HETATM   10  H   UNL     1      25.661  42.954  52.296  1.00  0.00     0.171 HD
HETATM   11  O   UNL     1      27.739  44.229  50.255  1.00  0.00    -0.265 OA
BRANCH   9  12
HETATM   12  C   UNL     1      25.744  42.062  50.445  1.00  0.00     0.158 A 
HETATM   13  N   UNL     1      26.064  40.770  50.485  1.00  0.00    -0.156 NA
HETATM   14  N   UNL     1      25.471  40.234  49.417  1.00  0.00    -0.280 N 
HETATM   15  C   UNL     1      24.776  41.137  48.664  1.00  0.00     0.037 A 
HETATM   16  H   UNL     1      25.580  39.237  49.264  1.00  0.00     0.189 HD
HETATM   17  C   UNL     1      24.947  42.356  49.298  1.00  0.00     0.010 A 
HETATM   18  C   UNL     1      24.399  43.668  48.870  1.00  0.00     0.054 C 
BRANCH  15  19
HETATM   19  C   UNL     1      24.031  40.735  47.440  1.00  0.00     0.055 C 
HETATM   20  C   UNL     1      22.531  40.684  47.690  1.00  0.00     0.011 C 
ENDBRANCH  15  19
ENDBRANCH   9  12
ENDBRANCH   1   8
BRANCH   3  21
HETATM   21  C   UNL     1      28.945  45.217  55.661  1.00  0.00     0.012 A 
HETATM   22  C   UNL     1      30.040  44.345  55.758  1.00  0.00     0.039 A 
HETATM   23  C   UNL     1      30.865  44.369  56.882  1.00  0.00     0.035 A 
HETATM   24 CL   UNL     1      32.212  43.301  56.978  1.00  0.00    -0.084 Cl
HETATM   25  C   UNL     1      30.611  45.253  57.928  1.00  0.00     0.024 A 
HETATM   26  C   UNL     1      29.520  46.116  57.850  1.00  0.00     0.003 A 
HETATM   27  C   UNL     1      28.691  46.097  56.724  1.00  0.00     0.015 A 
ENDBRANCH   3  21
TORSDOF 4
ENDMDL
MODEL 9
REMARK VINA RESULT:      -8.3      3.280      5.250
REMARK  4 active torsions:
REMARK  status: ('A' for Active; 'I' for Inactive)
REMARK    1  A    between atoms: C_2  and  C_3 
REMARK    2  A    between atoms: C_7  and  N_8 
REMARK       I    between atoms: N_8  and  C_9 
REMARK    3  A    between atoms: C_9  and  C_10 
REMARK    4  A    between atoms: C_12  and  C_13 
ROOT
HETATM    1  C   UNL     1      26.863  44.790  53.343  1.00  0.00     0.149 A 
HETATM    2  N   UNL     1      27.770  44.292  54.273  1.00  0.00    -0.223 NA
HETATM    3  C   UNL     1      28.098  45.303  55.058  1.00  0.00     0.139 A 
HETATM    4  N   UNL     1      27.418  46.435  54.668  1.00  0.00    -0.342 N 
HETATM    5  H   UNL     1      27.513  47.348  55.088  1.00  0.00     0.167 HD
HETATM    6  C   UNL     1      26.636  46.132  53.584  1.00  0.00     0.041 A 
HETATM    7  C   UNL     1      25.779  47.127  52.899  1.00  0.00     0.071 C 
ENDROOT
BRANCH   1   8
HETATM    8  C   UNL     1      26.285  43.957  52.277  1.00  0.00     0.278 C 
HETATM    9  N   UNL     1      27.275  43.515  51.430  1.00  0.00    -0.304 N 
HETATM   10  H   UNL     1      28.216  43.787  51.684  1.00  0.00     0.171 HD
HETATM   11  O   UNL     1      25.083  43.727  52.224  1.00  0.00    -0.265 OA
BRANCH   9  12
HETATM   12  C   UNL     1      27.095  42.787  50.279  1.00  0.00     0.158 A 
HETATM   13  N   UNL     1      26.503  43.249  49.179  1.00  0.00    -0.156 NA
HETATM   14  N   UNL     1      26.583  42.249  48.299  1.00  0.00    -0.280 N 
HETATM   15  C   UNL     1      27.203  41.135  48.789  1.00  0.00     0.037 A 
HETATM   16  H   UNL     1      26.196  42.399  47.374  1.00  0.00     0.189 HD
HETATM   17  C   UNL     1      27.538  41.442  50.097  1.00  0.00     0.010 A 
HETATM   18  C   UNL     1      28.222  40.559  51.074  1.00  0.00     0.054 C 
BRANCH  15  19
HETATM   19  C   UNL     1      27.405  39.916  47.959  1.00  0.00     0.055 C 
HETATM   20  C   UNL     1      26.180  39.610  47.109  1.00  0.00     0.011 C 
ENDBRANCH  15  19
ENDBRANCH   9  12
ENDBRANCH   1   8
BRANCH   3  21
HETATM   21  C   UNL     1      29.071  45.264  56.154  1.00  0.00     0.012 A 
HETATM   22  C   UNL     1      30.113  44.326  56.109  1.00  0.00     0.039 A 
HETATM   23  C   UNL     1      31.065  44.277  57.127  1.00  0.00     0.035 A 
HETATM   24 CL   UNL     1      32.343  43.127  57.049  1.00  0.00    -0.084 Cl
HETATM   25  C   UNL     1      30.991  45.153  58.208  1.00  0.00     0.024 A 
HETATM   26  C   UNL     1      29.955  46.082  58.271  1.00  0.00     0.003 A 
HETATM   27  C   UNL     1      28.999  46.137  57.252  1.00  0.00     0.015 A 
ENDBRANCH   3  21
TORSDOF 4
ENDMDL
MODEL 10
REMARK VINA RESULT:      -8.3      4.151      9.526
REMARK  4 active torsions:
REMARK  status: ('A' for Active; 'I' for Inactive)
REMARK    1  A    between atoms: C_2  and  C_3 
REMARK    2  A    between atoms: C_7  and  N_8 
REMARK       I    between atoms: N_8  and  C_9 
REMARK    3  A    between atoms: C_9  and  C_10 
REMARK    4  A    between atoms: C_12  and  C_13 
ROOT
HETATM    1  C   UNL     1      24.264  47.524  50.058  1.00  0.00     0.149 A 
HETATM    2  N   UNL     1      23.574  48.721  49.890  1.00  0.00    -0.223 NA
HETATM    3  C   UNL     1      22.535  48.452  49.119  1.00  0.00     0.139 A 
HETATM    4  N   UNL     1      22.530  47.114  48.795  1.00  0.00    -0.342 N 
HETATM    5  H   UNL     1      21.857  46.661  48.194  1.00  0.00     0.167 HD
HETATM    6  C   UNL     1      23.615  46.512  49.375  1.00  0.00     0.041 A 
HETATM    7  C   UNL     1      23.923  45.072  49.220  1.00  0.00     0.071 C 
ENDROOT
BRANCH   1   8
HETATM    8  C   UNL     1      25.503  47.429  50.844  1.00  0.00     0.278 C 
HETATM    9  N   UNL     1      25.243  46.871  52.074  1.00  0.00    -0.304 N 
HETATM   10  H   UNL     1      24.284  46.587  52.227  1.00  0.00     0.171 HD
HETATM   11  O   UNL     1      26.578  47.806  50.394  1.00  0.00    -0.265 OA
BRANCH   9  12
HETATM   12  C   UNL     1      26.143  46.707  53.099  1.00  0.00     0.158 A 
HETATM   13  N   UNL     1      26.325  47.577  54.091  1.00  0.00    -0.156 NA
HETATM   14  N   UNL     1      27.240  47.013  54.881  1.00  0.00    -0.280 N 
HETATM   15  C   UNL     1      27.677  45.799  54.435  1.00  0.00     0.037 A 
HETATM   16  H   UNL     1      27.518  47.514  55.718  1.00  0.00     0.189 HD
HETATM   17  C   UNL     1      26.993  45.570  53.253  1.00  0.00     0.010 A 
HETATM   18  C   UNL     1      27.117  44.388  52.364  1.00  0.00     0.054 C 
BRANCH  15  19
HETATM   19  C   UNL     1      28.687  45.002  55.183  1.00  0.00     0.055 C 
HETATM   20  C   UNL     1      29.416  45.851  56.215  1.00  0.00     0.011 C 
ENDBRANCH  15  19
ENDBRANCH   9  12
ENDBRANCH   1   8
BRANCH   3  21
HETATM   21  C   UNL     1      21.551  49.422  48.628  1.00  0.00     0.012 A 
HETATM   22  C   UNL     1      20.649  49.033  47.627  1.00  0.00     0.039 A 
HETATM   23  C   UNL     1      19.689  49.927  47.153  1.00  0.00     0.035 A 
HETATM   24 CL   UNL     1      18.582  49.427  45.933  1.00  0.00    -0.084 Cl
HETATM   25  C   UNL     1      19.617  51.222  47.660  1.00  0.00     0.024 A 
HETATM   26  C   UNL     1      20.515  51.626  48.646  1.00  0.00     0.003 A 
HETATM   27  C   UNL     1      21.477  50.733  49.126  1.00  0.00     0.015 A 
ENDBRANCH   3  21
TORSDOF 4
ENDMDL
