MODEL 1
REMARK VINA RESULT:      -9.3      0.000      0.000
REMARK  6 active torsions:
REMARK  status: ('A' for Active; 'I' for Inactive)
REMARK    1  A    between atoms: C_2  and  N_3 
REMARK    2  A    between atoms: C_2  and  C_19 
REMARK       I    between atoms: N_3  and  C_4 
REMARK    3  A    between atoms: C_4  and  C_5 
REMARK    4  A    between atoms: C_9  and  C_10 
REMARK    5  A    between atoms: C_13  and  O_14 
REMARK    6  A    between atoms: C_19  and  C_20 
ROOT
HETATM    1  N   UNL     1      28.288  43.794  52.562  1.00  0.00    -0.347 N 
HETATM    2  C   UNL     1      27.039  43.755  51.986  1.00  0.00     0.270 C 
HETATM    3  O   UNL     1      26.397  42.724  51.824  1.00  0.00    -0.266 OA
HETATM    4  H   UNL     1      28.621  44.706  52.839  1.00  0.00     0.163 HD
ENDROOT
BRANCH   2   5
HETATM    5  C   UNL     1      26.506  45.043  51.628  1.00  0.00     0.120 A 
HETATM    6  N   UNL     1      26.409  46.062  52.533  1.00  0.00    -0.272 N 
HETATM    7  H   UNL     1      26.668  46.030  53.515  1.00  0.00     0.189 HD
HETATM    8  N   UNL     1      25.940  47.211  52.022  1.00  0.00    -0.174 NA
HETATM    9  C   UNL     1      25.693  46.935  50.731  1.00  0.00     0.089 A 
HETATM   10  C   UNL     1      26.021  45.579  50.452  1.00  0.00     0.071 A 
BRANCH   9  11
HETATM   11  C   UNL     1      25.177  47.949  49.803  1.00  0.00    -0.005 A 
HETATM   12  C   UNL     1      23.797  48.066  49.568  1.00  0.00     0.016 A 
HETATM   13  C   UNL     1      23.292  49.043  48.704  1.00  0.00     0.037 A 
HETATM   14  C   UNL     1      24.171  49.909  48.065  1.00  0.00     0.065 A 
HETATM   15  C   UNL     1      25.539  49.811  48.274  1.00  0.00     0.037 A 
HETATM   16  C   UNL     1      26.042  48.835  49.140  1.00  0.00     0.016 A 
BRANCH  14  17
HETATM   17  O   UNL     1      23.727  50.880  47.219  1.00  0.00    -0.361 OA
HETATM   18  H   UNL     1      22.903  50.575  46.805  1.00  0.00     0.217 HD
ENDBRANCH  14  17
ENDBRANCH   9  11
ENDBRANCH   2   5
BRANCH   1  19
HETATM   19  C   UNL     1      28.955  42.654  53.216  1.00  0.00     0.030 C 
HETATM   20  C   UNL     1      28.111  42.125  54.394  1.00  0.00     0.038 C 
HETATM   21  C   UNL     1      29.039  41.512  52.180  1.00  0.00     0.038 C 
BRANCH  19  22
HETATM   22  C   UNL     1      30.376  43.029  53.741  1.00  0.00     0.069 C 
BRANCH  22  23
HETATM   23  C   UNL     1      30.416  43.763  55.067  1.00  0.00    -0.056 A 
HETATM   24  C   UNL     1      31.189  43.264  56.129  1.00  0.00     0.010 A 
HETATM   25  C   UNL     1      31.215  43.923  57.358  1.00  0.00     0.043 A 
HETATM   26  C   UNL     1      30.477  45.086  57.526  1.00  0.00     0.116 A 
HETATM   27  F   UNL     1      30.501  45.719  58.707  1.00  0.00    -0.206 F 
HETATM   28  C   UNL     1      29.717  45.607  56.486  1.00  0.00     0.043 A 
HETATM   29  C   UNL     1      29.688  44.949  55.256  1.00  0.00     0.010 A 
ENDBRANCH  22  23
ENDBRANCH  19  22
ENDBRANCH   1  19
TORSDOF 6
ENDMDL
MODEL 2
REMARK VINA RESULT:      -9.2      3.261      8.585
REMARK  6 active torsions:
REMARK  status: ('A' for Active; 'I' for Inactive)
REMARK    1  A    between atoms: C_2  and  N_3 
REMARK    2  A    between atoms: C_2  and  C_19 
REMARK       I    between atoms: N_3  and  C_4 
REMARK    3  A    between atoms: C_4  and  C_5 
REMARK    4  A    between atoms: C_9  and  C_10 
REMARK    5  A    between atoms: C_13  and  O_14 
REMARK    6  A    between atoms: C_19  and  C_20 
ROOT
HETATM    1  N   UNL     1      25.920  44.455  51.518  1.00  0.00    -0.347 N 
HETATM    2  C   UNL     1      27.022  43.695  51.197  1.00  0.00     0.270 C 
HETATM    3  O   UNL     1      27.203  43.193  50.094  1.00  0.00    -0.266 OA
HETATM    4  H   UNL     1      25.984  44.989  52.372  1.00  0.00     0.163 HD
ENDROOT
BRANCH   2   5
HETATM    5  C   UNL     1      27.992  43.573  52.253  1.00  0.00     0.120 A 
HETATM    6  N   UNL     1      29.055  42.719  52.163  1.00  0.00    -0.272 N 
HETATM    7  H   UNL     1      29.266  42.090  51.393  1.00  0.00     0.189 HD
HETATM    8  N   UNL     1      29.892  42.767  53.211  1.00  0.00    -0.174 NA
HETATM    9  C   UNL     1      29.348  43.672  54.041  1.00  0.00     0.089 A 
HETATM   10  C   UNL     1      28.146  44.186  53.479  1.00  0.00     0.071 A 
BRANCH   9  11
HETATM   11  C   UNL     1      29.977  44.035  55.316  1.00  0.00    -0.005 A 
HETATM   12  C   UNL     1      29.630  45.230  55.969  1.00  0.00     0.016 A 
HETATM   13  C   UNL     1      30.206  45.576  57.196  1.00  0.00     0.037 A 
HETATM   14  C   UNL     1      31.140  44.726  57.775  1.00  0.00     0.065 A 
HETATM   15  C   UNL     1      31.506  43.543  57.149  1.00  0.00     0.037 A 
HETATM   16  C   UNL     1      30.928  43.198  55.923  1.00  0.00     0.016 A 
BRANCH  14  17
HETATM   17  O   UNL     1      31.723  45.017  58.971  1.00  0.00    -0.361 OA
HETATM   18  H   UNL     1      31.972  45.956  58.972  1.00  0.00     0.217 HD
ENDBRANCH  14  17
ENDBRANCH   9  11
ENDBRANCH   2   5
BRANCH   1  19
HETATM   19  C   UNL     1      24.901  44.917  50.560  1.00  0.00     0.030 C 
HETATM   20  C   UNL     1      25.446  44.878  49.116  1.00  0.00     0.038 C 
HETATM   21  C   UNL     1      23.725  43.919  50.619  1.00  0.00     0.038 C 
BRANCH  19  22
HETATM   22  C   UNL     1      24.414  46.365  50.875  1.00  0.00     0.069 C 
BRANCH  22  23
HETATM   23  C   UNL     1      25.087  47.473  50.090  1.00  0.00    -0.056 A 
HETATM   24  C   UNL     1      26.480  47.648  50.166  1.00  0.00     0.010 A 
HETATM   25  C   UNL     1      27.105  48.679  49.463  1.00  0.00     0.043 A 
HETATM   26  C   UNL     1      26.342  49.529  48.675  1.00  0.00     0.116 A 
HETATM   27  F   UNL     1      26.941  50.519  47.999  1.00  0.00    -0.206 F 
HETATM   28  C   UNL     1      24.966  49.367  48.572  1.00  0.00     0.043 A 
HETATM   29  C   UNL     1      24.339  48.337  49.276  1.00  0.00     0.010 A 
ENDBRANCH  22  23
ENDBRANCH  19  22
ENDBRANCH   1  19
TORSDOF 6
ENDMDL
MODEL 3
REMARK VINA RESULT:      -9.0      4.791     10.619
REMARK  6 active torsions:
REMARK  status: ('A' for Active; 'I' for Inactive)
REMARK    1  A    between atoms: C_2  and  N_3 
REMARK    2  A    between atoms: C_2  and  C_19 
REMARK       I    between atoms: N_3  and  C_4 
REMARK    3  A    between atoms: C_4  and  C_5 
REMARK    4  A    between atoms: C_9  and  C_10 
REMARK    5  A    between atoms: C_13  and  O_14 
REMARK    6  A    between atoms: C_19  and  C_20 
ROOT
HETATM    1  N   UNL     1      22.844  48.120  49.495  1.00  0.00    -0.347 N 
HETATM    2  C   UNL     1      24.192  48.236  49.747  1.00  0.00     0.270 C 
HETATM    3  O   UNL     1      24.882  49.161  49.336  1.00  0.00    -0.266 OA
HETATM    4  H   UNL     1      22.344  47.447  50.058  1.00  0.00     0.163 HD
ENDROOT
BRANCH   2   5
HETATM    5  C   UNL     1      24.734  47.202  50.589  1.00  0.00     0.120 A 
HETATM    6  N   UNL     1      24.091  46.011  50.777  1.00  0.00    -0.272 N 
HETATM    7  H   UNL     1      23.196  45.735  50.384  1.00  0.00     0.189 HD
HETATM    8  N   UNL     1      24.759  45.139  51.548  1.00  0.00    -0.174 NA
HETATM    9  C   UNL     1      25.879  45.788  51.906  1.00  0.00     0.089 A 
HETATM   10  C   UNL     1      25.889  47.092  51.335  1.00  0.00     0.071 A 
BRANCH   9  11
HETATM   11  C   UNL     1      26.904  45.163  52.751  1.00  0.00    -0.005 A 
HETATM   12  C   UNL     1      27.678  44.096  52.264  1.00  0.00     0.016 A 
HETATM   13  C   UNL     1      28.673  43.508  53.051  1.00  0.00     0.037 A 
HETATM   14  C   UNL     1      28.896  43.984  54.336  1.00  0.00     0.065 A 
HETATM   15  C   UNL     1      28.143  45.033  54.845  1.00  0.00     0.037 A 
HETATM   16  C   UNL     1      27.149  45.621  54.056  1.00  0.00     0.016 A 
BRANCH  14  17
HETATM   17  O   UNL     1      29.858  43.448  55.138  1.00  0.00    -0.361 OA
HETATM   18  H   UNL     1      30.120  42.587  54.772  1.00  0.00     0.217 HD
ENDBRANCH  14  17
ENDBRANCH   9  11
ENDBRANCH   2   5
BRANCH   1  19
HETATM   19  C   UNL     1      22.009  49.152  48.858  1.00  0.00     0.030 C 
HETATM   20  C   UNL     1      22.764  49.831  47.696  1.00  0.00     0.038 C 
HETATM   21  C   UNL     1      20.786  48.441  48.239  1.00  0.00     0.038 C 
BRANCH  19  22
HETATM   22  C   UNL     1      21.556  50.248  49.872  1.00  0.00     0.069 C 
BRANCH  22  23
HETATM   23  C   UNL     1      20.233  50.924  49.566  1.00  0.00    -0.056 A 
HETATM   24  C   UNL     1      19.071  50.552  50.263  1.00  0.00     0.010 A 
HETATM   25  C   UNL     1      17.847  51.155  49.972  1.00  0.00     0.043 A 
HETATM   26  C   UNL     1      17.782  52.136  48.993  1.00  0.00     0.116 A 
HETATM   27  F   UNL     1      16.607  52.714  48.713  1.00  0.00    -0.206 F 
HETATM   28  C   UNL     1      18.921  52.530  48.300  1.00  0.00     0.043 A 
HETATM   29  C   UNL     1      20.147  51.928  48.589  1.00  0.00     0.010 A 
ENDBRANCH  22  23
ENDBRANCH  19  22
ENDBRANCH   1  19
TORSDOF 6
ENDMDL
MODEL 4
REMARK VINA RESULT:      -8.8      1.799      2.776
REMARK  6 active torsions:
REMARK  status: ('A' for Active; 'I' for Inactive)
REMARK    1  A    between atoms: C_2  and  N_3 
REMARK    2  A    between atoms: C_2  and  C_19 
REMARK       I    between atoms: N_3  and  C_4 
REMARK    3  A    between atoms: C_4  and  C_5 
REMARK    4  A    between atoms: C_9  and  C_10 
REMARK    5  A    between atoms: C_13  and  O_14 
REMARK    6  A    between atoms: C_19  and  C_20 
ROOT
HETATM    1  N   UNL     1      26.479  45.106  51.845  1.00  0.00    -0.347 N 
HETATM    2  C   UNL     1      26.655  45.469  50.529  1.00  0.00     0.270 C 
HETATM    3  O   UNL     1      27.348  44.842  49.738  1.00  0.00    -0.266 OA
HETATM    4  H   UNL     1      25.724  45.565  52.335  1.00  0.00     0.163 HD
ENDROOT
BRANCH   2   5
HETATM    5  C   UNL     1      25.908  46.632  50.125  1.00  0.00     0.120 A 
HETATM    6  N   UNL     1      26.519  47.823  49.849  1.00  0.00    -0.272 N 
HETATM    7  H   UNL     1      27.512  48.025  49.910  1.00  0.00     0.189 HD
HETATM    8  N   UNL     1      25.683  48.788  49.436  1.00  0.00    -0.174 NA
HETATM    9  C   UNL     1      24.466  48.221  49.464  1.00  0.00     0.089 A 
HETATM   10  C   UNL     1      24.567  46.873  49.907  1.00  0.00     0.071 A 
BRANCH   9  11
HETATM   11  C   UNL     1      23.258  48.951  49.059  1.00  0.00    -0.005 A 
HETATM   12  C   UNL     1      23.291  50.344  48.880  1.00  0.00     0.016 A 
HETATM   13  C   UNL     1      22.153  51.047  48.473  1.00  0.00     0.037 A 
HETATM   14  C   UNL     1      20.969  50.356  48.246  1.00  0.00     0.065 A 
HETATM   15  C   UNL     1      20.906  48.981  48.422  1.00  0.00     0.037 A 
HETATM   16  C   UNL     1      22.046  48.279  48.827  1.00  0.00     0.016 A 
BRANCH  14  17
HETATM   17  O   UNL     1      19.836  50.996  47.843  1.00  0.00    -0.361 OA
HETATM   18  H   UNL     1      19.070  50.529  48.214  1.00  0.00     0.217 HD
ENDBRANCH  14  17
ENDBRANCH   9  11
ENDBRANCH   2   5
BRANCH   1  19
HETATM   19  C   UNL     1      26.944  43.843  52.445  1.00  0.00     0.030 C 
HETATM   20  C   UNL     1      26.420  43.694  53.889  1.00  0.00     0.038 C 
HETATM   21  C   UNL     1      26.328  42.689  51.626  1.00  0.00     0.038 C 
BRANCH  19  22
HETATM   22  C   UNL     1      28.501  43.740  52.460  1.00  0.00     0.069 C 
BRANCH  22  23
HETATM   23  C   UNL     1      29.164  43.981  53.802  1.00  0.00    -0.056 A 
HETATM   24  C   UNL     1      28.857  45.133  54.545  1.00  0.00     0.010 A 
HETATM   25  C   UNL     1      29.479  45.373  55.772  1.00  0.00     0.043 A 
HETATM   26  C   UNL     1      30.400  44.458  56.261  1.00  0.00     0.116 A 
HETATM   27  F   UNL     1      30.998  44.687  57.438  1.00  0.00    -0.206 F 
HETATM   28  C   UNL     1      30.709  43.304  55.550  1.00  0.00     0.043 A 
HETATM   29  C   UNL     1      30.090  43.064  54.323  1.00  0.00     0.010 A 
ENDBRANCH  22  23
ENDBRANCH  19  22
ENDBRANCH   1  19
TORSDOF 6
ENDMDL
MODEL 5
REMARK VINA RESULT:      -8.8      1.532      1.950
REMARK  6 active torsions:
REMARK  status: ('A' for Active; 'I' for Inactive)
REMARK    1  A    between atoms: C_2  and  N_3 
REMARK    2  A    between atoms: C_2  and  C_19 
REMARK       I    between atoms: N_3  and  C_4 
REMARK    3  A    between atoms: C_4  and  C_5 
REMARK    4  A    between atoms: C_9  and  C_10 
REMARK    5  A    between atoms: C_13  and  O_14 
REMARK    6  A    between atoms: C_19  and  C_20 
ROOT
HETATM    1  N   UNL     1      27.035  44.156  52.472  1.00  0.00    -0.347 N 
HETATM    2  C   UNL     1      26.681  45.470  52.678  1.00  0.00     0.270 C 
HETATM    3  O   UNL     1      26.869  46.067  53.731  1.00  0.00    -0.266 OA
HETATM    4  H   UNL     1      27.034  43.841  51.513  1.00  0.00     0.163 HD
ENDROOT
BRANCH   2   5
HETATM    5  C   UNL     1      26.113  46.123  51.528  1.00  0.00     0.120 A 
HETATM    6  N   UNL     1      26.581  45.900  50.264  1.00  0.00    -0.272 N 
HETATM    7  H   UNL     1      27.355  45.296  50.001  1.00  0.00     0.189 HD
HETATM    8  N   UNL     1      25.905  46.547  49.303  1.00  0.00    -0.174 NA
HETATM    9  C   UNL     1      24.966  47.248  49.959  1.00  0.00     0.089 A 
HETATM   10  C   UNL     1      25.076  47.018  51.358  1.00  0.00     0.071 A 
BRANCH   9  11
HETATM   11  C   UNL     1      23.990  48.090  49.255  1.00  0.00    -0.005 A 
HETATM   12  C   UNL     1      22.663  47.660  49.091  1.00  0.00     0.016 A 
HETATM   13  C   UNL     1      21.719  48.462  48.443  1.00  0.00     0.037 A 
HETATM   14  C   UNL     1      22.102  49.704  47.951  1.00  0.00     0.065 A 
HETATM   15  C   UNL     1      23.408  50.151  48.093  1.00  0.00     0.037 A 
HETATM   16  C   UNL     1      24.350  49.347  48.743  1.00  0.00     0.016 A 
BRANCH  14  17
HETATM   17  O   UNL     1      21.217  50.524  47.318  1.00  0.00    -0.361 OA
HETATM   18  H   UNL     1      20.418  50.012  47.108  1.00  0.00     0.217 HD
ENDBRANCH  14  17
ENDBRANCH   9  11
ENDBRANCH   2   5
BRANCH   1  19
HETATM   19  C   UNL     1      27.832  43.337  53.402  1.00  0.00     0.030 C 
HETATM   20  C   UNL     1      27.239  43.387  54.826  1.00  0.00     0.038 C 
HETATM   21  C   UNL     1      27.732  41.871  52.930  1.00  0.00     0.038 C 
BRANCH  19  22
HETATM   22  C   UNL     1      29.321  43.798  53.461  1.00  0.00     0.069 C 
BRANCH  22  23
HETATM   23  C   UNL     1      29.885  44.033  54.848  1.00  0.00    -0.056 A 
HETATM   24  C   UNL     1      29.609  45.230  55.531  1.00  0.00     0.010 A 
HETATM   25  C   UNL     1      30.140  45.463  56.800  1.00  0.00     0.043 A 
HETATM   26  C   UNL     1      30.940  44.496  57.393  1.00  0.00     0.116 A 
HETATM   27  F   UNL     1      31.452  44.719  58.611  1.00  0.00    -0.206 F 
HETATM   28  C   UNL     1      31.216  43.299  56.744  1.00  0.00     0.043 A 
HETATM   29  C   UNL     1      30.686  43.065  55.474  1.00  0.00     0.010 A 
ENDBRANCH  22  23
ENDBRANCH  19  22
ENDBRANCH   1  19
TORSDOF 6
ENDMDL
MODEL 6
REMARK VINA RESULT:      -8.8      3.852      7.395
REMARK  6 active torsions:
REMARK  status: ('A' for Active; 'I' for Inactive)
REMARK    1  A    between atoms: C_2  and  N_3 
REMARK    2  A    between atoms: C_2  and  C_19 
REMARK       I    between atoms: N_3  and  C_4 
REMARK    3  A    between atoms: C_4  and  C_5 
REMARK    4  A    between atoms: C_9  and  C_10 
REMARK    5  A    between atoms: C_13  and  O_14 
REMARK    6  A    between atoms: C_19  and  C_20 
ROOT
HETATM    1  N   UNL     1      26.740  43.007  52.837  1.00  0.00    -0.347 N 
HETATM    2  C   UNL     1      27.233  43.056  51.553  1.00  0.00     0.270 C 
HETATM    3  O   UNL     1      27.387  44.096  50.923  1.00  0.00    -0.266 OA
HETATM    4  H   UNL     1      26.862  42.132  53.325  1.00  0.00     0.163 HD
ENDROOT
BRANCH   2   5
HETATM    5  C   UNL     1      27.613  41.779  51.009  1.00  0.00     0.120 A 
HETATM    6  N   UNL     1      28.634  41.042  51.540  1.00  0.00    -0.272 N 
HETATM    7  H   UNL     1      29.226  41.300  52.324  1.00  0.00     0.189 HD
HETATM    8  N   UNL     1      28.821  39.853  50.947  1.00  0.00    -0.174 NA
HETATM    9  C   UNL     1      27.904  39.811  49.967  1.00  0.00     0.089 A 
HETATM   10  C   UNL     1      27.138  41.010  49.966  1.00  0.00     0.071 A 
BRANCH   9  11
HETATM   11  C   UNL     1      27.764  38.648  49.081  1.00  0.00    -0.005 A 
HETATM   12  C   UNL     1      28.544  38.540  47.918  1.00  0.00     0.016 A 
HETATM   13  C   UNL     1      28.436  37.426  47.078  1.00  0.00     0.037 A 
HETATM   14  C   UNL     1      27.539  36.414  47.399  1.00  0.00     0.065 A 
HETATM   15  C   UNL     1      26.753  36.499  48.539  1.00  0.00     0.037 A 
HETATM   16  C   UNL     1      26.863  37.612  49.378  1.00  0.00     0.016 A 
BRANCH  14  17
HETATM   17  O   UNL     1      27.403  35.308  46.615  1.00  0.00    -0.361 OA
HETATM   18  H   UNL     1      27.046  34.587  47.160  1.00  0.00     0.217 HD
ENDBRANCH  14  17
ENDBRANCH   9  11
ENDBRANCH   2   5
BRANCH   1  19
HETATM   19  C   UNL     1      26.493  44.179  53.694  1.00  0.00     0.030 C 
HETATM   20  C   UNL     1      25.269  44.977  53.197  1.00  0.00     0.038 C 
HETATM   21  C   UNL     1      26.140  43.655  55.103  1.00  0.00     0.038 C 
BRANCH  19  22
HETATM   22  C   UNL     1      27.726  45.133  53.753  1.00  0.00     0.069 C 
BRANCH  22  23
HETATM   23  C   UNL     1      28.873  44.675  54.633  1.00  0.00    -0.056 A 
HETATM   24  C   UNL     1      29.249  45.431  55.756  1.00  0.00     0.010 A 
HETATM   25  C   UNL     1      30.316  45.027  56.559  1.00  0.00     0.043 A 
HETATM   26  C   UNL     1      31.003  43.862  56.248  1.00  0.00     0.116 A 
HETATM   27  F   UNL     1      32.028  43.474  57.018  1.00  0.00    -0.206 F 
HETATM   28  C   UNL     1      30.640  43.089  55.151  1.00  0.00     0.043 A 
HETATM   29  C   UNL     1      29.573  43.493  54.346  1.00  0.00     0.010 A 
ENDBRANCH  22  23
ENDBRANCH  19  22
ENDBRANCH   1  19
TORSDOF 6
ENDMDL
MODEL 7
REMARK VINA RESULT:      -8.7      3.611      5.713
REMARK  6 active torsions:
REMARK  status: ('A' for Active; 'I' for Inactive)
REMARK    1  A    between atoms: C_2  and  N_3 
REMARK    2  A    between atoms: C_2  and  C_19 
REMARK       I    between atoms: N_3  and  C_4 
REMARK    3  A    between atoms: C_4  and  C_5 
REMARK    4  A    between atoms: C_9  and  C_10 
REMARK    5  A    between atoms: C_13  and  O_14 
REMARK    6  A    between atoms: C_19  and  C_20 
ROOT
HETATM    1  N   UNL     1      24.108  46.863  50.139  1.00  0.00    -0.347 N 
HETATM    2  C   UNL     1      24.654  48.049  49.706  1.00  0.00     0.270 C 
HETATM    3  O   UNL     1      25.836  48.343  49.841  1.00  0.00    -0.266 OA
HETATM    4  H   UNL     1      23.190  46.641  49.784  1.00  0.00     0.163 HD
ENDROOT
BRANCH   2   5
HETATM    5  C   UNL     1      23.732  48.917  49.021  1.00  0.00     0.120 A 
HETATM    6  N   UNL     1      24.089  49.610  47.899  1.00  0.00    -0.272 N 
HETATM    7  H   UNL     1      25.000  49.612  47.450  1.00  0.00     0.189 HD
HETATM    8  N   UNL     1      23.095  50.330  47.356  1.00  0.00    -0.174 NA
HETATM    9  C   UNL     1      22.043  50.125  48.165  1.00  0.00     0.089 A 
HETATM   10  C   UNL     1      22.410  49.255  49.230  1.00  0.00     0.071 A 
BRANCH   9  11
HETATM   11  C   UNL     1      20.731  50.731  47.906  1.00  0.00    -0.005 A 
HETATM   12  C   UNL     1      19.892  50.216  46.904  1.00  0.00     0.016 A 
HETATM   13  C   UNL     1      18.631  50.771  46.663  1.00  0.00     0.037 A 
HETATM   14  C   UNL     1      18.204  51.852  47.424  1.00  0.00     0.065 A 
HETATM   15  C   UNL     1      19.016  52.384  48.416  1.00  0.00     0.037 A 
HETATM   16  C   UNL     1      20.276  51.827  48.657  1.00  0.00     0.016 A 
BRANCH  14  17
HETATM   17  O   UNL     1      16.982  52.422  47.231  1.00  0.00    -0.361 OA
HETATM   18  H   UNL     1      16.896  52.655  46.292  1.00  0.00     0.217 HD
ENDBRANCH  14  17
ENDBRANCH   9  11
ENDBRANCH   2   5
BRANCH   1  19
HETATM   19  C   UNL     1      24.875  45.718  50.661  1.00  0.00     0.030 C 
HETATM   20  C   UNL     1      23.948  44.519  50.948  1.00  0.00     0.038 C 
HETATM   21  C   UNL     1      25.851  45.271  49.552  1.00  0.00     0.038 C 
BRANCH  19  22
HETATM   22  C   UNL     1      25.650  46.079  51.967  1.00  0.00     0.069 C 
BRANCH  22  23
HETATM   23  C   UNL     1      26.470  44.959  52.577  1.00  0.00    -0.056 A 
HETATM   24  C   UNL     1      26.125  44.434  53.834  1.00  0.00     0.010 A 
HETATM   25  C   UNL     1      26.886  43.417  54.412  1.00  0.00     0.043 A 
HETATM   26  C   UNL     1      27.987  42.917  53.731  1.00  0.00     0.116 A 
HETATM   27  F   UNL     1      28.719  41.941  54.286  1.00  0.00    -0.206 F 
HETATM   28  C   UNL     1      28.340  43.410  52.481  1.00  0.00     0.043 A 
HETATM   29  C   UNL     1      27.580  44.428  51.902  1.00  0.00     0.010 A 
ENDBRANCH  22  23
ENDBRANCH  19  22
ENDBRANCH   1  19
TORSDOF 6
ENDMDL
MODEL 8
REMARK VINA RESULT:      -8.7      3.785      5.901
REMARK  6 active torsions:
REMARK  status: ('A' for Active; 'I' for Inactive)
REMARK    1  A    between atoms: C_2  and  N_3 
REMARK    2  A    between atoms: C_2  and  C_19 
REMARK       I    between atoms: N_3  and  C_4 
REMARK    3  A    between atoms: C_4  and  C_5 
REMARK    4  A    between atoms: C_9  and  C_10 
REMARK    5  A    between atoms: C_13  and  O_14 
REMARK    6  A    between atoms: C_19  and  C_20 
ROOT
HETATM    1  N   UNL     1      24.202  47.217  50.645  1.00  0.00    -0.347 N 
HETATM    2  C   UNL     1      24.063  48.185  49.677  1.00  0.00     0.270 C 
HETATM    3  O   UNL     1      24.992  48.604  48.997  1.00  0.00    -0.266 OA
HETATM    4  H   UNL     1      23.346  46.801  50.982  1.00  0.00     0.163 HD
ENDROOT
BRANCH   2   5
HETATM    5  C   UNL     1      22.712  48.641  49.477  1.00  0.00     0.120 A 
HETATM    6  N   UNL     1      21.681  47.772  49.259  1.00  0.00    -0.272 N 
HETATM    7  H   UNL     1      21.741  46.760  49.196  1.00  0.00     0.189 HD
HETATM    8  N   UNL     1      20.480  48.360  49.146  1.00  0.00    -0.174 NA
HETATM    9  C   UNL     1      20.729  49.674  49.269  1.00  0.00     0.089 A 
HETATM   10  C   UNL     1      22.122  49.888  49.462  1.00  0.00     0.071 A 
BRANCH   9  11
HETATM   11  C   UNL     1      19.659  50.677  49.220  1.00  0.00    -0.005 A 
HETATM   12  C   UNL     1      19.770  51.800  48.382  1.00  0.00     0.016 A 
HETATM   13  C   UNL     1      18.747  52.751  48.310  1.00  0.00     0.037 A 
HETATM   14  C   UNL     1      17.604  52.584  49.083  1.00  0.00     0.065 A 
HETATM   15  C   UNL     1      17.471  51.487  49.923  1.00  0.00     0.037 A 
HETATM   16  C   UNL     1      18.494  50.537  49.993  1.00  0.00     0.016 A 
BRANCH  14  17
HETATM   17  O   UNL     1      16.578  53.479  49.042  1.00  0.00    -0.361 OA
HETATM   18  H   UNL     1      16.700  54.052  48.267  1.00  0.00     0.217 HD
ENDBRANCH  14  17
ENDBRANCH   9  11
ENDBRANCH   2   5
BRANCH   1  19
HETATM   19  C   UNL     1      25.424  46.430  50.888  1.00  0.00     0.030 C 
HETATM   20  C   UNL     1      25.832  45.644  49.624  1.00  0.00     0.038 C 
HETATM   21  C   UNL     1      26.565  47.428  51.180  1.00  0.00     0.038 C 
BRANCH  19  22
HETATM   22  C   UNL     1      25.250  45.428  52.071  1.00  0.00     0.069 C 
BRANCH  22  23
HETATM   23  C   UNL     1      26.502  45.133  52.874  1.00  0.00    -0.056 A 
HETATM   24  C   UNL     1      27.425  44.176  52.420  1.00  0.00     0.010 A 
HETATM   25  C   UNL     1      28.569  43.884  53.164  1.00  0.00     0.043 A 
HETATM   26  C   UNL     1      28.798  44.555  54.357  1.00  0.00     0.116 A 
HETATM   27  F   UNL     1      29.896  44.276  55.072  1.00  0.00    -0.206 F 
HETATM   28  C   UNL     1      27.907  45.517  54.819  1.00  0.00     0.043 A 
HETATM   29  C   UNL     1      26.762  45.809  54.077  1.00  0.00     0.010 A 
ENDBRANCH  22  23
ENDBRANCH  19  22
ENDBRANCH   1  19
TORSDOF 6
ENDMDL
MODEL 9
REMARK VINA RESULT:      -8.7      4.003      8.536
REMARK  6 active torsions:
REMARK  status: ('A' for Active; 'I' for Inactive)
REMARK    1  A    between atoms: C_2  and  N_3 
REMARK    2  A    between atoms: C_2  and  C_19 
REMARK       I    between atoms: N_3  and  C_4 
REMARK    3  A    between atoms: C_4  and  C_5 
REMARK    4  A    between atoms: C_9  and  C_10 
REMARK    5  A    between atoms: C_13  and  O_14 
REMARK    6  A    between atoms: C_19  and  C_20 
ROOT
HETATM    1  N   UNL     1      26.270  42.939  50.901  1.00  0.00    -0.347 N 
HETATM    2  C   UNL     1      27.391  43.738  50.889  1.00  0.00     0.270 C 
HETATM    3  O   UNL     1      27.632  44.558  50.010  1.00  0.00    -0.266 OA
HETATM    4  H   UNL     1      26.070  42.469  51.771  1.00  0.00     0.163 HD
ENDROOT
BRANCH   2   5
HETATM    5  C   UNL     1      28.250  43.579  52.032  1.00  0.00     0.120 A 
HETATM    6  N   UNL     1      29.243  42.641  52.065  1.00  0.00    -0.272 N 
HETATM    7  H   UNL     1      29.469  41.969  51.337  1.00  0.00     0.189 HD
HETATM    8  N   UNL     1      29.985  42.662  53.183  1.00  0.00    -0.174 NA
HETATM    9  C   UNL     1      29.446  43.637  53.932  1.00  0.00     0.089 A 
HETATM   10  C   UNL     1      28.345  44.224  53.249  1.00  0.00     0.071 A 
BRANCH   9  11
HETATM   11  C   UNL     1      29.988  43.996  55.249  1.00  0.00    -0.005 A 
HETATM   12  C   UNL     1      30.914  43.159  55.893  1.00  0.00     0.016 A 
HETATM   13  C   UNL     1      31.454  43.502  57.136  1.00  0.00     0.037 A 
HETATM   14  C   UNL     1      31.066  44.689  57.745  1.00  0.00     0.065 A 
HETATM   15  C   UNL     1      30.148  45.532  57.134  1.00  0.00     0.037 A 
HETATM   16  C   UNL     1      29.610  45.187  55.890  1.00  0.00     0.016 A 
BRANCH  14  17
HETATM   17  O   UNL     1      31.569  45.069  58.953  1.00  0.00    -0.361 OA
HETATM   18  H   UNL     1      32.496  45.333  58.831  1.00  0.00     0.217 HD
ENDBRANCH  14  17
ENDBRANCH   9  11
ENDBRANCH   2   5
BRANCH   1  19
HETATM   19  C   UNL     1      25.130  43.066  49.976  1.00  0.00     0.030 C 
HETATM   20  C   UNL     1      23.818  42.619  50.655  1.00  0.00     0.038 C 
HETATM   21  C   UNL     1      24.970  44.564  49.642  1.00  0.00     0.038 C 
BRANCH  19  22
HETATM   22  C   UNL     1      25.335  42.228  48.676  1.00  0.00     0.069 C 
BRANCH  22  23
HETATM   23  C   UNL     1      26.392  41.144  48.749  1.00  0.00    -0.056 A 
HETATM   24  C   UNL     1      26.154  39.974  49.492  1.00  0.00     0.010 A 
HETATM   25  C   UNL     1      27.130  38.981  49.582  1.00  0.00     0.043 A 
HETATM   26  C   UNL     1      28.340  39.149  48.922  1.00  0.00     0.116 A 
HETATM   27  F   UNL     1      29.277  38.195  49.008  1.00  0.00    -0.206 F 
HETATM   28  C   UNL     1      28.591  40.290  48.170  1.00  0.00     0.043 A 
HETATM   29  C   UNL     1      27.617  41.285  48.080  1.00  0.00     0.010 A 
ENDBRANCH  22  23
ENDBRANCH  19  22
ENDBRANCH   1  19
TORSDOF 6
ENDMDL
MODEL 10
REMARK VINA RESULT:      -8.6      2.308      3.365
REMARK  6 active torsions:
REMARK  status: ('A' for Active; 'I' for Inactive)
REMARK    1  A    between atoms: C_2  and  N_3 
REMARK    2  A    between atoms: C_2  and  C_19 
REMARK       I    between atoms: N_3  and  C_4 
REMARK    3  A    between atoms: C_4  and  C_5 
REMARK    4  A    between atoms: C_9  and  C_10 
REMARK    5  A    between atoms: C_13  and  O_14 
REMARK    6  A    between atoms: C_19  and  C_20 
ROOT
HETATM    1  N   UNL     1      25.883  45.376  51.333  1.00  0.00    -0.347 N 
HETATM    2  C   UNL     1      26.164  45.971  50.124  1.00  0.00     0.270 C 
HETATM    3  O   UNL     1      27.021  45.564  49.349  1.00  0.00    -0.266 OA
HETATM    4  H   UNL     1      25.024  45.662  51.779  1.00  0.00     0.163 HD
ENDROOT
BRANCH   2   5
HETATM    5  C   UNL     1      25.327  47.097  49.804  1.00  0.00     0.120 A 
HETATM    6  N   UNL     1      25.850  48.318  49.483  1.00  0.00    -0.272 N 
HETATM    7  H   UNL     1      26.833  48.569  49.452  1.00  0.00     0.189 HD
HETATM    8  N   UNL     1      24.932  49.243  49.159  1.00  0.00    -0.174 NA
HETATM    9  C   UNL     1      23.753  48.616  49.296  1.00  0.00     0.089 A 
HETATM   10  C   UNL     1      23.961  47.273  49.715  1.00  0.00     0.071 A 
BRANCH   9  11
HETATM   11  C   UNL     1      22.477  49.287  49.014  1.00  0.00    -0.005 A 
HETATM   12  C   UNL     1      21.276  48.560  49.001  1.00  0.00     0.016 A 
HETATM   13  C   UNL     1      20.052  49.192  48.756  1.00  0.00     0.037 A 
HETATM   14  C   UNL     1      20.027  50.560  48.518  1.00  0.00     0.065 A 
HETATM   15  C   UNL     1      21.200  51.302  48.519  1.00  0.00     0.037 A 
HETATM   16  C   UNL     1      22.422  50.668  48.765  1.00  0.00     0.016 A 
BRANCH  14  17
HETATM   17  O   UNL     1      18.859  51.221  48.281  1.00  0.00    -0.361 OA
HETATM   18  H   UNL     1      19.069  52.098  47.920  1.00  0.00     0.217 HD
ENDBRANCH  14  17
ENDBRANCH   9  11
ENDBRANCH   2   5
BRANCH   1  19
HETATM   19  C   UNL     1      26.433  44.088  51.791  1.00  0.00     0.030 C 
HETATM   20  C   UNL     1      25.694  42.907  51.129  1.00  0.00     0.038 C 
HETATM   21  C   UNL     1      27.900  44.017  51.316  1.00  0.00     0.038 C 
BRANCH  19  22
HETATM   22  C   UNL     1      26.346  43.932  53.341  1.00  0.00     0.069 C 
BRANCH  22  23
HETATM   23  C   UNL     1      27.499  44.523  54.129  1.00  0.00    -0.056 A 
HETATM   24  C   UNL     1      28.584  43.714  54.510  1.00  0.00     0.010 A 
HETATM   25  C   UNL     1      29.639  44.246  55.252  1.00  0.00     0.043 A 
HETATM   26  C   UNL     1      29.617  45.588  55.607  1.00  0.00     0.116 A 
HETATM   27  F   UNL     1      30.629  46.099  56.320  1.00  0.00    -0.206 F 
HETATM   28  C   UNL     1      28.563  46.410  55.229  1.00  0.00     0.043 A 
HETATM   29  C   UNL     1      27.506  45.880  54.487  1.00  0.00     0.010 A 
ENDBRANCH  22  23
ENDBRANCH  19  22
ENDBRANCH   1  19
TORSDOF 6
ENDMDL
