MODEL 1
REMARK VINA RESULT:      -8.0      0.000      0.000
REMARK  7 active torsions:
REMARK  status: ('A' for Active; 'I' for Inactive)
REMARK    1  A    between atoms: O_2  and  C_3 
REMARK    2  A    between atoms: C_6  and  C_7 
REMARK    3  A    between atoms: C_7  and  N_8 
REMARK    4  A    between atoms: N_8  and  C_11 
REMARK    5  A    between atoms: C_11  and  C_12 
REMARK    6  A    between atoms: C_11  and  C_20 
REMARK       I    between atoms: C_12  and  N_13 
REMARK    7  A    between atoms: N_13  and  C_14 
ROOT
HETATM    1  C   UNL     1      27.356  43.447  53.876  1.00  0.00     0.310 C 
ENDROOT
BRANCH   1   2
HETATM    2  N   UNL     1      26.355  44.584  53.784  1.00  0.00    -0.054 N 
HETATM    3  H   UNL     1      26.824  45.477  53.617  1.00  0.00     0.278 HD
HETATM    4  H   UNL     1      25.913  44.639  54.715  1.00  0.00     0.278 HD
BRANCH   2   5
HETATM    5  C   UNL     1      25.234  44.423  52.815  1.00  0.00     0.272 C 
BRANCH   5   6
HETATM    6  C   UNL     1      25.247  45.531  51.799  1.00  0.00    -0.033 A 
HETATM    7  C   UNL     1      24.379  45.501  50.698  1.00  0.00     0.011 A 
HETATM    8  C   UNL     1      24.402  46.524  49.744  1.00  0.00     0.037 A 
HETATM    9  C   UNL     1      25.299  47.583  49.872  1.00  0.00     0.068 A 
HETATM   10  C   UNL     1      26.175  47.607  50.959  1.00  0.00     0.037 A 
HETATM   11  C   UNL     1      26.151  46.594  51.920  1.00  0.00     0.011 A 
BRANCH   9  12
HETATM   12  O   UNL     1      25.424  48.639  49.014  1.00  0.00    -0.356 OA
HETATM   13  C   UNL     1      26.733  49.162  48.817  1.00  0.00     0.210 C 
ENDBRANCH   9  12
ENDBRANCH   5   6
ENDBRANCH   2   5
ENDBRANCH   1   2
BRANCH   1  14
HETATM   14  C   UNL     1      27.600  42.833  52.478  1.00  0.00     0.259 C 
HETATM   15  N   UNL     1      27.055  41.588  52.266  1.00  0.00    -0.304 N 
HETATM   16  H   UNL     1      26.523  41.089  52.968  1.00  0.00     0.171 HD
HETATM   17  O   UNL     1      28.215  43.525  51.663  1.00  0.00    -0.270 OA
BRANCH  15  18
HETATM   18  C   UNL     1      27.277  40.900  51.103  1.00  0.00     0.172 A 
HETATM   19  S   UNL     1      25.950  40.884  50.033  1.00  0.00    -0.062 SA
HETATM   20  C   UNL     1      26.869  39.920  48.949  1.00  0.00     0.072 A 
HETATM   21  C   UNL     1      28.118  39.686  49.488  1.00  0.00     0.126 A 
HETATM   22  N   UNL     1      28.343  40.247  50.732  1.00  0.00    -0.236 NA
ENDBRANCH  15  18
ENDBRANCH   1  14
BRANCH   1  23
HETATM   23  C   UNL     1      28.590  43.824  54.669  1.00  0.00    -0.019 A 
HETATM   24  C   UNL     1      28.676  45.106  55.241  1.00  0.00     0.010 A 
HETATM   25  C   UNL     1      29.811  45.491  55.953  1.00  0.00     0.001 A 
HETATM   26  C   UNL     1      30.878  44.609  56.098  1.00  0.00     0.000 A 
HETATM   27  C   UNL     1      30.813  43.339  55.531  1.00  0.00     0.001 A 
HETATM   28  C   UNL     1      29.680  42.948  54.816  1.00  0.00     0.010 A 
ENDBRANCH   1  23
TORSDOF 7
ENDMDL
MODEL 2
REMARK VINA RESULT:      -7.9      2.036      6.044
REMARK  7 active torsions:
REMARK  status: ('A' for Active; 'I' for Inactive)
REMARK    1  A    between atoms: O_2  and  C_3 
REMARK    2  A    between atoms: C_6  and  C_7 
REMARK    3  A    between atoms: C_7  and  N_8 
REMARK    4  A    between atoms: N_8  and  C_11 
REMARK    5  A    between atoms: C_11  and  C_12 
REMARK    6  A    between atoms: C_11  and  C_20 
REMARK       I    between atoms: C_12  and  N_13 
REMARK    7  A    between atoms: N_13  and  C_14 
ROOT
HETATM    1  C   UNL     1      26.294  46.648  50.978  1.00  0.00     0.310 C 
ENDROOT
BRANCH   1   2
HETATM    2  N   UNL     1      25.284  46.633  52.111  1.00  0.00    -0.054 N 
HETATM    3  H   UNL     1      24.958  45.683  52.304  1.00  0.00     0.278 HD
HETATM    4  H   UNL     1      24.474  47.172  51.768  1.00  0.00     0.278 HD
BRANCH   2   5
HETATM    5  C   UNL     1      25.690  47.286  53.389  1.00  0.00     0.272 C 
BRANCH   5   6
HETATM    6  C   UNL     1      26.831  46.544  54.027  1.00  0.00    -0.033 A 
HETATM    7  C   UNL     1      26.855  45.142  54.035  1.00  0.00     0.011 A 
HETATM    8  C   UNL     1      27.909  44.452  54.643  1.00  0.00     0.037 A 
HETATM    9  C   UNL     1      28.945  45.152  55.258  1.00  0.00     0.068 A 
HETATM   10  C   UNL     1      28.915  46.547  55.265  1.00  0.00     0.037 A 
HETATM   11  C   UNL     1      27.871  47.244  54.653  1.00  0.00     0.011 A 
BRANCH   9  12
HETATM   12  O   UNL     1      30.027  44.601  55.885  1.00  0.00    -0.356 OA
HETATM   13  C   UNL     1      30.531  43.380  55.355  1.00  0.00     0.210 C 
ENDBRANCH   9  12
ENDBRANCH   5   6
ENDBRANCH   2   5
ENDBRANCH   1   2
BRANCH   1  14
HETATM   14  C   UNL     1      26.448  45.231  50.379  1.00  0.00     0.259 C 
HETATM   15  N   UNL     1      25.504  44.310  50.766  1.00  0.00    -0.304 N 
HETATM   16  H   UNL     1      24.746  44.526  51.403  1.00  0.00     0.171 HD
HETATM   17  O   UNL     1      27.367  45.062  49.573  1.00  0.00    -0.270 OA
BRANCH  15  18
HETATM   18  C   UNL     1      25.583  43.000  50.377  1.00  0.00     0.172 A 
HETATM   19  S   UNL     1      24.727  42.639  48.946  1.00  0.00    -0.062 SA
HETATM   20  C   UNL     1      25.213  40.999  49.100  1.00  0.00     0.072 A 
HETATM   21  C   UNL     1      25.992  40.854  50.230  1.00  0.00     0.126 A 
HETATM   22  N   UNL     1      26.194  42.009  50.965  1.00  0.00    -0.236 NA
ENDBRANCH  15  18
ENDBRANCH   1  14
BRANCH   1  23
HETATM   23  C   UNL     1      26.043  47.771  49.993  1.00  0.00    -0.019 A 
HETATM   24  C   UNL     1      27.131  48.520  49.510  1.00  0.00     0.010 A 
HETATM   25  C   UNL     1      26.929  49.578  48.625  1.00  0.00     0.001 A 
HETATM   26  C   UNL     1      25.640  49.910  48.216  1.00  0.00     0.000 A 
HETATM   27  C   UNL     1      24.550  49.185  48.691  1.00  0.00     0.001 A 
HETATM   28  C   UNL     1      24.747  48.125  49.578  1.00  0.00     0.010 A 
ENDBRANCH   1  23
TORSDOF 7
ENDMDL
MODEL 3
REMARK VINA RESULT:      -7.8      2.418      5.795
REMARK  7 active torsions:
REMARK  status: ('A' for Active; 'I' for Inactive)
REMARK    1  A    between atoms: O_2  and  C_3 
REMARK    2  A    between atoms: C_6  and  C_7 
REMARK    3  A    between atoms: C_7  and  N_8 
REMARK    4  A    between atoms: N_8  and  C_11 
REMARK    5  A    between atoms: C_11  and  C_12 
REMARK    6  A    between atoms: C_11  and  C_20 
REMARK       I    between atoms: C_12  and  N_13 
REMARK    7  A    between atoms: N_13  and  C_14 
ROOT
HETATM    1  C   UNL     1      27.539  42.447  51.410  1.00  0.00     0.310 C 
ENDROOT
BRANCH   1   2
HETATM    2  N   UNL     1      27.471  42.018  52.864  1.00  0.00    -0.054 N 
HETATM    3  H   UNL     1      26.854  41.211  52.984  1.00  0.00     0.278 HD
HETATM    4  H   UNL     1      27.041  42.810  53.367  1.00  0.00     0.278 HD
BRANCH   2   5
HETATM    5  C   UNL     1      28.767  41.758  53.555  1.00  0.00     0.272 C 
BRANCH   5   6
HETATM    6  C   UNL     1      29.161  42.933  54.406  1.00  0.00    -0.033 A 
HETATM    7  C   UNL     1      28.328  44.056  54.502  1.00  0.00     0.011 A 
HETATM    8  C   UNL     1      28.703  45.156  55.282  1.00  0.00     0.037 A 
HETATM    9  C   UNL     1      29.917  45.151  55.966  1.00  0.00     0.068 A 
HETATM   10  C   UNL     1      30.756  44.040  55.859  1.00  0.00     0.037 A 
HETATM   11  C   UNL     1      30.384  42.935  55.090  1.00  0.00     0.011 A 
BRANCH   9  12
HETATM   12  O   UNL     1      30.400  46.156  56.756  1.00  0.00    -0.356 OA
HETATM   13  C   UNL     1      30.532  45.880  58.146  1.00  0.00     0.210 C 
ENDBRANCH   9  12
ENDBRANCH   5   6
ENDBRANCH   2   5
ENDBRANCH   1   2
BRANCH   1  14
HETATM   14  C   UNL     1      27.375  41.223  50.481  1.00  0.00     0.259 C 
HETATM   15  N   UNL     1      28.501  40.837  49.792  1.00  0.00    -0.304 N 
HETATM   16  H   UNL     1      29.392  41.311  49.876  1.00  0.00     0.171 HD
HETATM   17  O   UNL     1      26.272  40.671  50.473  1.00  0.00    -0.270 OA
BRANCH  15  18
HETATM   18  C   UNL     1      28.462  39.825  48.872  1.00  0.00     0.172 A 
HETATM   19  S   UNL     1      29.089  38.340  49.432  1.00  0.00    -0.062 SA
HETATM   20  C   UNL     1      28.769  37.654  47.891  1.00  0.00     0.072 A 
HETATM   21  C   UNL     1      28.209  38.610  47.069  1.00  0.00     0.126 A 
HETATM   22  N   UNL     1      28.042  39.860  47.637  1.00  0.00    -0.236 NA
ENDBRANCH  15  18
ENDBRANCH   1  14
BRANCH   1  23
HETATM   23  C   UNL     1      26.651  43.639  51.115  1.00  0.00    -0.019 A 
HETATM   24  C   UNL     1      25.529  43.879  51.929  1.00  0.00     0.010 A 
HETATM   25  C   UNL     1      24.677  44.951  51.665  1.00  0.00     0.001 A 
HETATM   26  C   UNL     1      24.927  45.793  50.584  1.00  0.00     0.000 A 
HETATM   27  C   UNL     1      26.028  45.564  49.764  1.00  0.00     0.001 A 
HETATM   28  C   UNL     1      26.884  44.491  50.022  1.00  0.00     0.010 A 
ENDBRANCH   1  23
TORSDOF 7
ENDMDL
MODEL 4
REMARK VINA RESULT:      -7.8      1.079      1.830
REMARK  7 active torsions:
REMARK  status: ('A' for Active; 'I' for Inactive)
REMARK    1  A    between atoms: O_2  and  C_3 
REMARK    2  A    between atoms: C_6  and  C_7 
REMARK    3  A    between atoms: C_7  and  N_8 
REMARK    4  A    between atoms: N_8  and  C_11 
REMARK    5  A    between atoms: C_11  and  C_12 
REMARK    6  A    between atoms: C_11  and  C_20 
REMARK       I    between atoms: C_12  and  N_13 
REMARK    7  A    between atoms: N_13  and  C_14 
ROOT
HETATM    1  C   UNL     1      27.186  44.475  53.276  1.00  0.00     0.310 C 
ENDROOT
BRANCH   1   2
HETATM    2  N   UNL     1      26.652  45.818  52.812  1.00  0.00    -0.054 N 
HETATM    3  H   UNL     1      27.361  46.337  52.287  1.00  0.00     0.278 HD
HETATM    4  H   UNL     1      26.458  46.352  53.674  1.00  0.00     0.278 HD
BRANCH   2   5
HETATM    5  C   UNL     1      25.373  45.811  52.046  1.00  0.00     0.272 C 
BRANCH   5   6
HETATM    6  C   UNL     1      25.391  46.862  50.972  1.00  0.00    -0.033 A 
HETATM    7  C   UNL     1      26.580  47.527  50.643  1.00  0.00     0.011 A 
HETATM    8  C   UNL     1      26.593  48.517  49.654  1.00  0.00     0.037 A 
HETATM    9  C   UNL     1      25.417  48.861  48.990  1.00  0.00     0.068 A 
HETATM   10  C   UNL     1      24.228  48.212  49.327  1.00  0.00     0.037 A 
HETATM   11  C   UNL     1      24.209  47.216  50.307  1.00  0.00     0.011 A 
BRANCH   9  12
HETATM   12  O   UNL     1      25.293  49.806  48.011  1.00  0.00    -0.356 OA
HETATM   13  C   UNL     1      24.021  50.427  47.866  1.00  0.00     0.210 C 
ENDBRANCH   9  12
ENDBRANCH   5   6
ENDBRANCH   2   5
ENDBRANCH   1   2
BRANCH   1  14
HETATM   14  C   UNL     1      27.410  43.540  52.066  1.00  0.00     0.259 C 
HETATM   15  N   UNL     1      26.881  42.276  52.179  1.00  0.00    -0.304 N 
HETATM   16  H   UNL     1      26.372  41.959  52.996  1.00  0.00     0.171 HD
HETATM   17  O   UNL     1      27.997  44.017  51.092  1.00  0.00    -0.270 OA
BRANCH  15  18
HETATM   18  C   UNL     1      27.089  41.326  51.216  1.00  0.00     0.172 A 
HETATM   19  S   UNL     1      25.768  41.093  50.162  1.00  0.00    -0.062 SA
HETATM   20  C   UNL     1      26.665  39.874  49.350  1.00  0.00     0.072 A 
HETATM   21  C   UNL     1      27.903  39.740  49.945  1.00  0.00     0.126 A 
HETATM   22  N   UNL     1      28.137  40.573  51.024  1.00  0.00    -0.236 NA
ENDBRANCH  15  18
ENDBRANCH   1  14
BRANCH   1  23
HETATM   23  C   UNL     1      28.345  44.615  54.242  1.00  0.00    -0.019 A 
HETATM   24  C   UNL     1      29.283  43.573  54.348  1.00  0.00     0.010 A 
HETATM   25  C   UNL     1      30.345  43.661  55.248  1.00  0.00     0.001 A 
HETATM   26  C   UNL     1      30.481  44.784  56.060  1.00  0.00     0.000 A 
HETATM   27  C   UNL     1      29.556  45.821  55.974  1.00  0.00     0.001 A 
HETATM   28  C   UNL     1      28.491  45.738  55.075  1.00  0.00     0.010 A 
ENDBRANCH   1  23
TORSDOF 7
ENDMDL
MODEL 5
REMARK VINA RESULT:      -7.7      3.087      7.175
REMARK  7 active torsions:
REMARK  status: ('A' for Active; 'I' for Inactive)
REMARK    1  A    between atoms: O_2  and  C_3 
REMARK    2  A    between atoms: C_6  and  C_7 
REMARK    3  A    between atoms: C_7  and  N_8 
REMARK    4  A    between atoms: N_8  and  C_11 
REMARK    5  A    between atoms: C_11  and  C_12 
REMARK    6  A    between atoms: C_11  and  C_20 
REMARK       I    between atoms: C_12  and  N_13 
REMARK    7  A    between atoms: N_13  and  C_14 
ROOT
HETATM    1  C   UNL     1      25.114  45.686  52.021  1.00  0.00     0.310 C 
ENDROOT
BRANCH   1   2
HETATM    2  N   UNL     1      25.866  45.905  53.320  1.00  0.00    -0.054 N 
HETATM    3  H   UNL     1      25.483  46.699  53.841  1.00  0.00     0.278 HD
HETATM    4  H   UNL     1      26.829  46.156  53.045  1.00  0.00     0.278 HD
BRANCH   2   5
HETATM    5  C   UNL     1      26.001  44.733  54.232  1.00  0.00     0.272 C 
BRANCH   5   6
HETATM    6  C   UNL     1      27.434  44.537  54.638  1.00  0.00    -0.033 A 
HETATM    7  C   UNL     1      28.130  43.378  54.265  1.00  0.00     0.011 A 
HETATM    8  C   UNL     1      29.460  43.188  54.657  1.00  0.00     0.037 A 
HETATM    9  C   UNL     1      30.107  44.147  55.433  1.00  0.00     0.068 A 
HETATM   10  C   UNL     1      29.412  45.295  55.819  1.00  0.00     0.037 A 
HETATM   11  C   UNL     1      28.087  45.496  55.424  1.00  0.00     0.011 A 
BRANCH   9  12
HETATM   12  O   UNL     1      31.396  44.083  55.880  1.00  0.00    -0.356 OA
HETATM   13  C   UNL     1      31.621  43.414  57.116  1.00  0.00     0.210 C 
ENDBRANCH   9  12
ENDBRANCH   5   6
ENDBRANCH   2   5
ENDBRANCH   1   2
BRANCH   1  14
HETATM   14  C   UNL     1      25.103  46.984  51.182  1.00  0.00     0.259 C 
HETATM   15  N   UNL     1      24.001  47.172  50.382  1.00  0.00    -0.304 N 
HETATM   16  H   UNL     1      23.232  46.514  50.333  1.00  0.00     0.171 HD
HETATM   17  O   UNL     1      26.052  47.757  51.335  1.00  0.00    -0.270 OA
BRANCH  15  18
HETATM   18  C   UNL     1      23.914  48.236  49.524  1.00  0.00     0.172 A 
HETATM   19  S   UNL     1      22.362  48.477  48.858  1.00  0.00    -0.062 SA
HETATM   20  C   UNL     1      22.979  49.809  47.968  1.00  0.00     0.072 A 
HETATM   21  C   UNL     1      24.321  49.967  48.249  1.00  0.00     0.126 A 
HETATM   22  N   UNL     1      24.855  49.053  49.139  1.00  0.00    -0.236 NA
ENDBRANCH  15  18
ENDBRANCH   1  14
BRANCH   1  23
HETATM   23  C   UNL     1      25.552  44.426  51.304  1.00  0.00    -0.019 A 
HETATM   24  C   UNL     1      24.641  43.364  51.160  1.00  0.00     0.010 A 
HETATM   25  C   UNL     1      25.023  42.180  50.529  1.00  0.00     0.001 A 
HETATM   26  C   UNL     1      26.319  42.035  50.042  1.00  0.00     0.000 A 
HETATM   27  C   UNL     1      27.236  43.073  50.185  1.00  0.00     0.001 A 
HETATM   28  C   UNL     1      26.859  44.260  50.815  1.00  0.00     0.010 A 
ENDBRANCH   1  23
TORSDOF 7
ENDMDL
MODEL 6
REMARK VINA RESULT:      -7.5      2.903      6.411
REMARK  7 active torsions:
REMARK  status: ('A' for Active; 'I' for Inactive)
REMARK    1  A    between atoms: O_2  and  C_3 
REMARK    2  A    between atoms: C_6  and  C_7 
REMARK    3  A    between atoms: C_7  and  N_8 
REMARK    4  A    between atoms: N_8  and  C_11 
REMARK    5  A    between atoms: C_11  and  C_12 
REMARK    6  A    between atoms: C_11  and  C_20 
REMARK       I    between atoms: C_12  and  N_13 
REMARK    7  A    between atoms: N_13  and  C_14 
ROOT
HETATM    1  C   UNL     1      26.214  46.663  50.515  1.00  0.00     0.310 C 
ENDROOT
BRANCH   1   2
HETATM    2  N   UNL     1      25.437  46.747  51.817  1.00  0.00    -0.054 N 
HETATM    3  H   UNL     1      24.455  46.978  51.647  1.00  0.00     0.278 HD
HETATM    4  H   UNL     1      25.852  47.536  52.336  1.00  0.00     0.278 HD
BRANCH   2   5
HETATM    5  C   UNL     1      25.520  45.574  52.733  1.00  0.00     0.272 C 
BRANCH   5   6
HETATM    6  C   UNL     1      26.724  45.681  53.627  1.00  0.00    -0.033 A 
HETATM    7  C   UNL     1      27.499  44.549  53.919  1.00  0.00     0.011 A 
HETATM    8  C   UNL     1      28.610  44.647  54.764  1.00  0.00     0.037 A 
HETATM    9  C   UNL     1      28.953  45.871  55.335  1.00  0.00     0.068 A 
HETATM   10  C   UNL     1      28.174  46.995  55.058  1.00  0.00     0.037 A 
HETATM   11  C   UNL     1      27.069  46.908  54.208  1.00  0.00     0.011 A 
BRANCH   9  12
HETATM   12  O   UNL     1      30.008  46.099  56.173  1.00  0.00    -0.356 OA
HETATM   13  C   UNL     1      29.778  45.920  57.566  1.00  0.00     0.210 C 
ENDBRANCH   9  12
ENDBRANCH   5   6
ENDBRANCH   2   5
ENDBRANCH   1   2
BRANCH   1  14
HETATM   14  C   UNL     1      25.867  45.355  49.767  1.00  0.00     0.259 C 
HETATM   15  N   UNL     1      24.533  45.149  49.505  1.00  0.00    -0.304 N 
HETATM   16  H   UNL     1      23.807  45.803  49.776  1.00  0.00     0.171 HD
HETATM   17  O   UNL     1      26.811  44.637  49.430  1.00  0.00    -0.270 OA
BRANCH  15  18
HETATM   18  C   UNL     1      24.089  43.989  48.931  1.00  0.00     0.172 A 
HETATM   19  S   UNL     1      23.962  42.674  50.010  1.00  0.00    -0.062 SA
HETATM   20  C   UNL     1      23.439  41.688  48.705  1.00  0.00     0.072 A 
HETATM   21  C   UNL     1      23.401  42.439  47.547  1.00  0.00     0.126 A 
HETATM   22  N   UNL     1      23.783  43.761  47.683  1.00  0.00    -0.236 NA
ENDBRANCH  15  18
ENDBRANCH   1  14
BRANCH   1  23
HETATM   23  C   UNL     1      26.131  47.941  49.708  1.00  0.00    -0.019 A 
HETATM   24  C   UNL     1      24.874  48.408  49.283  1.00  0.00     0.010 A 
HETATM   25  C   UNL     1      24.769  49.567  48.514  1.00  0.00     0.001 A 
HETATM   26  C   UNL     1      25.914  50.271  48.152  1.00  0.00     0.000 A 
HETATM   27  C   UNL     1      27.166  49.819  48.556  1.00  0.00     0.001 A 
HETATM   28  C   UNL     1      27.278  48.659  49.325  1.00  0.00     0.010 A 
ENDBRANCH   1  23
TORSDOF 7
ENDMDL
MODEL 7
REMARK VINA RESULT:      -7.5     13.016     15.726
REMARK  7 active torsions:
REMARK  status: ('A' for Active; 'I' for Inactive)
REMARK    1  A    between atoms: O_2  and  C_3 
REMARK    2  A    between atoms: C_6  and  C_7 
REMARK    3  A    between atoms: C_7  and  N_8 
REMARK    4  A    between atoms: N_8  and  C_11 
REMARK    5  A    between atoms: C_11  and  C_12 
REMARK    6  A    between atoms: C_11  and  C_20 
REMARK       I    between atoms: C_12  and  N_13 
REMARK    7  A    between atoms: N_13  and  C_14 
ROOT
HETATM    1  C   UNL     1      31.935  52.230  40.058  1.00  0.00     0.310 C 
ENDROOT
BRANCH   1   2
HETATM    2  N   UNL     1      31.541  53.550  40.695  1.00  0.00    -0.054 N 
HETATM    3  H   UNL     1      32.268  54.258  40.560  1.00  0.00     0.278 HD
HETATM    4  H   UNL     1      31.480  53.363  41.707  1.00  0.00     0.278 HD
BRANCH   2   5
HETATM    5  C   UNL     1      30.218  54.120  40.310  1.00  0.00     0.272 C 
BRANCH   5   6
HETATM    6  C   UNL     1      29.191  53.032  40.171  1.00  0.00    -0.033 A 
HETATM    7  C   UNL     1      28.554  52.502  41.302  1.00  0.00     0.011 A 
HETATM    8  C   UNL     1      27.609  51.478  41.173  1.00  0.00     0.037 A 
HETATM    9  C   UNL     1      27.297  50.965  39.915  1.00  0.00     0.068 A 
HETATM   10  C   UNL     1      27.941  51.479  38.789  1.00  0.00     0.037 A 
HETATM   11  C   UNL     1      28.879  52.508  38.909  1.00  0.00     0.011 A 
BRANCH   9  12
HETATM   12  O   UNL     1      26.398  49.969  39.654  1.00  0.00    -0.356 OA
HETATM   13  C   UNL     1      25.863  49.909  38.336  1.00  0.00     0.210 C 
ENDBRANCH   9  12
ENDBRANCH   5   6
ENDBRANCH   2   5
ENDBRANCH   1   2
BRANCH   1  14
HETATM   14  C   UNL     1      33.313  52.357  39.369  1.00  0.00     0.259 C 
HETATM   15  N   UNL     1      34.223  53.178  39.993  1.00  0.00    -0.304 N 
HETATM   16  H   UNL     1      34.022  53.676  40.852  1.00  0.00     0.171 HD
HETATM   17  O   UNL     1      33.495  51.680  38.354  1.00  0.00    -0.270 OA
BRANCH  15  18
HETATM   18  C   UNL     1      35.444  53.444  39.436  1.00  0.00     0.172 A 
HETATM   19  S   UNL     1      36.723  52.508  40.067  1.00  0.00    -0.062 SA
HETATM   20  C   UNL     1      37.808  53.336  39.024  1.00  0.00     0.072 A 
HETATM   21  C   UNL     1      37.110  54.261  38.275  1.00  0.00     0.126 A 
HETATM   22  N   UNL     1      35.751  54.324  38.523  1.00  0.00    -0.236 NA
ENDBRANCH  15  18
ENDBRANCH   1  14
BRANCH   1  23
HETATM   23  C   UNL     1      31.760  51.057  41.001  1.00  0.00    -0.019 A 
HETATM   24  C   UNL     1      31.152  49.880  40.529  1.00  0.00     0.010 A 
HETATM   25  C   UNL     1      30.952  48.794  41.381  1.00  0.00     0.001 A 
HETATM   26  C   UNL     1      31.345  48.869  42.714  1.00  0.00     0.000 A 
HETATM   27  C   UNL     1      31.940  50.031  43.200  1.00  0.00     0.001 A 
HETATM   28  C   UNL     1      32.143  51.121  42.352  1.00  0.00     0.010 A 
ENDBRANCH   1  23
TORSDOF 7
ENDMDL
MODEL 8
REMARK VINA RESULT:      -7.4      2.723      6.044
REMARK  7 active torsions:
REMARK  status: ('A' for Active; 'I' for Inactive)
REMARK    1  A    between atoms: O_2  and  C_3 
REMARK    2  A    between atoms: C_6  and  C_7 
REMARK    3  A    between atoms: C_7  and  N_8 
REMARK    4  A    between atoms: N_8  and  C_11 
REMARK    5  A    between atoms: C_11  and  C_12 
REMARK    6  A    between atoms: C_11  and  C_20 
REMARK       I    between atoms: C_12  and  N_13 
REMARK    7  A    between atoms: N_13  and  C_14 
ROOT
HETATM    1  C   UNL     1      26.869  44.144  51.637  1.00  0.00     0.310 C 
ENDROOT
BRANCH   1   2
HETATM    2  N   UNL     1      25.581  43.431  52.007  1.00  0.00    -0.054 N 
HETATM    3  H   UNL     1      24.868  44.094  52.320  1.00  0.00     0.278 HD
HETATM    4  H   UNL     1      25.818  42.832  52.813  1.00  0.00     0.278 HD
BRANCH   2   5
HETATM    5  C   UNL     1      24.994  42.519  50.984  1.00  0.00     0.272 C 
BRANCH   5   6
HETATM    6  C   UNL     1      26.072  41.732  50.292  1.00  0.00    -0.033 A 
HETATM    7  C   UNL     1      26.477  42.067  48.992  1.00  0.00     0.011 A 
HETATM    8  C   UNL     1      27.469  41.324  48.342  1.00  0.00     0.037 A 
HETATM    9  C   UNL     1      28.060  40.234  48.978  1.00  0.00     0.068 A 
HETATM   10  C   UNL     1      27.647  39.889  50.266  1.00  0.00     0.037 A 
HETATM   11  C   UNL     1      26.663  40.630  50.924  1.00  0.00     0.011 A 
BRANCH   9  12
HETATM   12  O   UNL     1      29.034  39.430  48.456  1.00  0.00    -0.356 OA
HETATM   13  C   UNL     1      29.443  38.315  49.241  1.00  0.00     0.210 C 
ENDBRANCH   9  12
ENDBRANCH   5   6
ENDBRANCH   2   5
ENDBRANCH   1   2
BRANCH   1  14
HETATM   14  C   UNL     1      26.583  45.622  51.288  1.00  0.00     0.259 C 
HETATM   15  N   UNL     1      26.618  45.941  49.951  1.00  0.00    -0.304 N 
HETATM   16  H   UNL     1      26.815  45.263  49.225  1.00  0.00     0.171 HD
HETATM   17  O   UNL     1      26.303  46.373  52.226  1.00  0.00    -0.270 OA
BRANCH  15  18
HETATM   18  C   UNL     1      26.471  47.232  49.521  1.00  0.00     0.172 A 
HETATM   19  S   UNL     1      24.867  47.810  49.567  1.00  0.00    -0.062 SA
HETATM   20  C   UNL     1      25.415  49.306  48.925  1.00  0.00     0.072 A 
HETATM   21  C   UNL     1      26.780  49.248  48.726  1.00  0.00     0.126 A 
HETATM   22  N   UNL     1      27.380  48.049  49.064  1.00  0.00    -0.236 NA
ENDBRANCH  15  18
ENDBRANCH   1  14
BRANCH   1  23
HETATM   23  C   UNL     1      27.979  43.891  52.637  1.00  0.00    -0.019 A 
HETATM   24  C   UNL     1      29.094  43.127  52.250  1.00  0.00     0.010 A 
HETATM   25  C   UNL     1      30.118  42.854  53.157  1.00  0.00     0.001 A 
HETATM   26  C   UNL     1      30.040  43.331  54.463  1.00  0.00     0.000 A 
HETATM   27  C   UNL     1      28.939  44.081  54.865  1.00  0.00     0.001 A 
HETATM   28  C   UNL     1      27.911  44.357  53.962  1.00  0.00     0.010 A 
ENDBRANCH   1  23
TORSDOF 7
ENDMDL
MODEL 9
REMARK VINA RESULT:      -7.4      2.882      7.124
REMARK  7 active torsions:
REMARK  status: ('A' for Active; 'I' for Inactive)
REMARK    1  A    between atoms: O_2  and  C_3 
REMARK    2  A    between atoms: C_6  and  C_7 
REMARK    3  A    between atoms: C_7  and  N_8 
REMARK    4  A    between atoms: N_8  and  C_11 
REMARK    5  A    between atoms: C_11  and  C_12 
REMARK    6  A    between atoms: C_11  and  C_20 
REMARK       I    between atoms: C_12  and  N_13 
REMARK    7  A    between atoms: N_13  and  C_14 
ROOT
HETATM    1  C   UNL     1      25.950  44.838  51.273  1.00  0.00     0.310 C 
ENDROOT
BRANCH   1   2
HETATM    2  N   UNL     1      26.647  45.188  52.575  1.00  0.00    -0.054 N 
HETATM    3  H   UNL     1      26.308  46.079  52.948  1.00  0.00     0.278 HD
HETATM    4  H   UNL     1      27.642  45.317  52.332  1.00  0.00     0.278 HD
BRANCH   2   5
HETATM    5  C   UNL     1      26.625  44.159  53.654  1.00  0.00     0.272 C 
BRANCH   5   6
HETATM    6  C   UNL     1      27.937  44.129  54.387  1.00  0.00    -0.033 A 
HETATM    7  C   UNL     1      28.363  45.238  55.133  1.00  0.00     0.011 A 
HETATM    8  C   UNL     1      29.592  45.215  55.802  1.00  0.00     0.037 A 
HETATM    9  C   UNL     1      30.413  44.091  55.727  1.00  0.00     0.068 A 
HETATM   10  C   UNL     1      29.997  42.993  54.972  1.00  0.00     0.037 A 
HETATM   11  C   UNL     1      28.768  43.004  54.308  1.00  0.00     0.011 A 
BRANCH   9  12
HETATM   12  O   UNL     1      31.630  43.942  56.330  1.00  0.00    -0.356 OA
HETATM   13  C   UNL     1      31.666  44.039  57.749  1.00  0.00     0.210 C 
ENDBRANCH   9  12
ENDBRANCH   5   6
ENDBRANCH   2   5
ENDBRANCH   1   2
BRANCH   1  14
HETATM   14  C   UNL     1      26.237  45.918  50.205  1.00  0.00     0.259 C 
HETATM   15  N   UNL     1      25.933  47.211  50.561  1.00  0.00    -0.304 N 
HETATM   16  H   UNL     1      25.547  47.461  51.463  1.00  0.00     0.171 HD
HETATM   17  O   UNL     1      26.753  45.537  49.151  1.00  0.00    -0.270 OA
BRANCH  15  18
HETATM   18  C   UNL     1      26.056  48.244  49.672  1.00  0.00     0.172 A 
HETATM   19  S   UNL     1      24.582  48.757  48.983  1.00  0.00    -0.062 SA
HETATM   20  C   UNL     1      25.448  49.918  48.060  1.00  0.00     0.072 A 
HETATM   21  C   UNL     1      26.794  49.824  48.350  1.00  0.00     0.126 A 
HETATM   22  N   UNL     1      27.138  48.853  49.272  1.00  0.00    -0.236 NA
ENDBRANCH  15  18
ENDBRANCH   1  14
BRANCH   1  23
HETATM   23  C   UNL     1      26.187  43.401  50.858  1.00  0.00    -0.019 A 
HETATM   24  C   UNL     1      27.494  42.882  50.887  1.00  0.00     0.010 A 
HETATM   25  C   UNL     1      27.747  41.571  50.484  1.00  0.00     0.001 A 
HETATM   26  C   UNL     1      26.704  40.763  50.039  1.00  0.00     0.000 A 
HETATM   27  C   UNL     1      25.406  41.264  49.995  1.00  0.00     0.001 A 
HETATM   28  C   UNL     1      25.147  42.576  50.397  1.00  0.00     0.010 A 
ENDBRANCH   1  23
TORSDOF 7
ENDMDL
MODEL 10
REMARK VINA RESULT:      -7.3     12.495     14.893
REMARK  7 active torsions:
REMARK  status: ('A' for Active; 'I' for Inactive)
REMARK    1  A    between atoms: O_2  and  C_3 
REMARK    2  A    between atoms: C_6  and  C_7 
REMARK    3  A    between atoms: C_7  and  N_8 
REMARK    4  A    between atoms: N_8  and  C_11 
REMARK    5  A    between atoms: C_11  and  C_12 
REMARK    6  A    between atoms: C_11  and  C_20 
REMARK       I    between atoms: C_12  and  N_13 
REMARK    7  A    between atoms: N_13  and  C_14 
ROOT
HETATM    1  C   UNL     1      26.991  49.524  38.914  1.00  0.00     0.310 C 
ENDROOT
BRANCH   1   2
HETATM    2  N   UNL     1      27.705  48.304  39.468  1.00  0.00    -0.054 N 
HETATM    3  H   UNL     1      27.160  47.453  39.310  1.00  0.00     0.278 HD
HETATM    4  H   UNL     1      27.755  48.452  40.488  1.00  0.00     0.278 HD
BRANCH   2   5
HETATM    5  C   UNL     1      29.111  48.082  39.023  1.00  0.00     0.272 C 
BRANCH   5   6
HETATM    6  C   UNL     1      30.080  48.682  40.002  1.00  0.00    -0.033 A 
HETATM    7  C   UNL     1      29.902  48.507  41.382  1.00  0.00     0.011 A 
HETATM    8  C   UNL     1      30.796  49.079  42.294  1.00  0.00     0.037 A 
HETATM    9  C   UNL     1      31.871  49.841  41.840  1.00  0.00     0.068 A 
HETATM   10  C   UNL     1      32.041  50.031  40.467  1.00  0.00     0.037 A 
HETATM   11  C   UNL     1      31.158  49.455  39.550  1.00  0.00     0.011 A 
BRANCH   9  12
HETATM   12  O   UNL     1      32.810  50.453  42.621  1.00  0.00    -0.356 OA
HETATM   13  C   UNL     1      32.343  51.146  43.773  1.00  0.00     0.210 C 
ENDBRANCH   9  12
ENDBRANCH   5   6
ENDBRANCH   2   5
ENDBRANCH   1   2
BRANCH   1  14
HETATM   14  C   UNL     1      25.462  49.376  39.089  1.00  0.00     0.259 C 
HETATM   15  N   UNL     1      24.686  50.095  38.212  1.00  0.00    -0.304 N 
HETATM   16  H   UNL     1      25.072  50.690  37.488  1.00  0.00     0.171 HD
HETATM   17  O   UNL     1      25.073  48.594  39.960  1.00  0.00    -0.270 OA
BRANCH  15  18
HETATM   18  C   UNL     1      23.322  50.120  38.321  1.00  0.00     0.172 A 
HETATM   19  S   UNL     1      22.526  48.873  37.470  1.00  0.00    -0.062 SA
HETATM   20  C   UNL     1      21.021  49.511  37.996  1.00  0.00     0.072 A 
HETATM   21  C   UNL     1      21.242  50.625  38.780  1.00  0.00     0.126 A 
HETATM   22  N   UNL     1      22.568  50.974  38.956  1.00  0.00    -0.236 NA
ENDBRANCH  15  18
ENDBRANCH   1  14
BRANCH   1  23
HETATM   23  C   UNL     1      27.601  50.822  39.400  1.00  0.00    -0.019 A 
HETATM   24  C   UNL     1      28.329  51.621  38.500  1.00  0.00     0.010 A 
HETATM   25  C   UNL     1      28.925  52.808  38.925  1.00  0.00     0.001 A 
HETATM   26  C   UNL     1      28.812  53.210  40.253  1.00  0.00     0.000 A 
HETATM   27  C   UNL     1      28.103  52.427  41.160  1.00  0.00     0.001 A 
HETATM   28  C   UNL     1      27.504  51.238  40.740  1.00  0.00     0.010 A 
ENDBRANCH   1  23
TORSDOF 7
ENDMDL
