MODEL 1
REMARK VINA RESULT:      -8.2      0.000      0.000
REMARK  3 active torsions:
REMARK  status: ('A' for Active; 'I' for Inactive)
REMARK    1  A    between atoms: C_12  and  C_13 
REMARK    2  A    between atoms: C_13  and  N_14 
REMARK    3  A    between atoms: C_18  and  C_19 
ROOT
HETATM    1  N   UNL     1      27.813  42.137  51.857  1.00  0.00    -0.067 N 
HETATM    2  H   UNL     1      27.112  42.501  52.513  1.00  0.00     0.280 HD
HETATM    3  C   UNL     1      27.761  43.005  50.617  1.00  0.00     0.236 C 
HETATM    4  C   UNL     1      26.419  42.856  49.914  1.00  0.00     0.040 C 
HETATM    5  C   UNL     1      26.074  41.402  49.590  1.00  0.00     0.062 C 
HETATM    6  C   UNL     1      26.157  40.553  50.860  1.00  0.00     0.040 C 
HETATM    7  C   UNL     1      27.491  40.686  51.575  1.00  0.00     0.236 C 
ENDROOT
BRANCH   1   8
HETATM    8  C   UNL     1      29.157  42.228  52.559  1.00  0.00     0.273 C 
BRANCH   8   9
HETATM    9  C   UNL     1      29.217  43.269  53.643  1.00  0.00    -0.028 A 
HETATM   10  C   UNL     1      30.267  43.262  54.572  1.00  0.00     0.048 A 
HETATM   11  C   UNL     1      30.351  44.243  55.563  1.00  0.00     0.103 A 
HETATM   12  C   UNL     1      29.396  45.260  55.635  1.00  0.00     0.119 A 
HETATM   13  O   UNL     1      31.471  44.202  56.346  1.00  0.00    -0.348 OA
HETATM   14  O   UNL     1      29.525  46.306  56.508  1.00  0.00    -0.347 OA
HETATM   15  C   UNL     1      28.352  45.279  54.704  1.00  0.00     0.047 A 
HETATM   16  C   UNL     1      29.454  45.893  57.873  1.00  0.00     0.178 C 
HETATM   17  C   UNL     1      30.799  45.397  58.377  1.00  0.00     0.053 C 
HETATM   18  C   UNL     1      31.167  44.067  57.737  1.00  0.00     0.178 C 
HETATM   19 BR   UNL     1      27.030  46.641  54.725  1.00  0.00    -0.048 Br
HETATM   20  C   UNL     1      28.255  44.287  53.720  1.00  0.00     0.031 A 
ENDBRANCH   8   9
ENDBRANCH   1   8
BRANCH   5  21
HETATM   21  C   UNL     1      26.927  40.860  48.486  1.00  0.00     0.151 A 
HETATM   22  N   UNL     1      27.620  41.645  47.663  1.00  0.00    -0.158 NA
HETATM   23  N   UNL     1      28.232  40.747  46.872  1.00  0.00    -0.270 N 
HETATM   24  H   UNL     1      28.846  41.065  46.129  1.00  0.00     0.190 HD
HETATM   25  C   UNL     1      27.897  39.479  47.235  1.00  0.00     0.227 A 
HETATM   26  N   UNL     1      27.070  39.516  48.257  1.00  0.00    -0.225 NA
ENDBRANCH   5  21
TORSDOF 3
ENDMDL
MODEL 2
REMARK VINA RESULT:      -8.1      2.122      2.633
REMARK  3 active torsions:
REMARK  status: ('A' for Active; 'I' for Inactive)
REMARK    1  A    between atoms: C_12  and  C_13 
REMARK    2  A    between atoms: C_13  and  N_14 
REMARK    3  A    between atoms: C_18  and  C_19 
ROOT
HETATM    1  N   UNL     1      26.516  43.820  51.581  1.00  0.00    -0.067 N 
HETATM    2  H   UNL     1      26.700  44.797  51.838  1.00  0.00     0.280 HD
HETATM    3  C   UNL     1      26.853  43.671  50.112  1.00  0.00     0.236 C 
HETATM    4  C   UNL     1      25.912  44.508  49.258  1.00  0.00     0.040 C 
HETATM    5  C   UNL     1      24.437  44.203  49.524  1.00  0.00     0.062 C 
HETATM    6  C   UNL     1      24.138  44.344  51.017  1.00  0.00     0.040 C 
HETATM    7  C   UNL     1      25.067  43.514  51.888  1.00  0.00     0.236 C 
ENDROOT
BRANCH   1   8
HETATM    8  C   UNL     1      27.410  42.962  52.461  1.00  0.00     0.273 C 
BRANCH   8   9
HETATM    9  C   UNL     1      28.111  43.722  53.553  1.00  0.00    -0.028 A 
HETATM   10  C   UNL     1      29.261  43.192  54.155  1.00  0.00     0.048 A 
HETATM   11  C   UNL     1      29.940  43.903  55.149  1.00  0.00     0.103 A 
HETATM   12  C   UNL     1      29.492  45.164  55.548  1.00  0.00     0.119 A 
HETATM   13  O   UNL     1      31.106  43.343  55.589  1.00  0.00    -0.348 OA
HETATM   14  O   UNL     1      30.208  45.939  56.419  1.00  0.00    -0.347 OA
HETATM   15  C   UNL     1      28.351  45.703  54.943  1.00  0.00     0.047 A 
HETATM   16  C   UNL     1      30.300  45.359  57.721  1.00  0.00     0.178 C 
HETATM   17  C   UNL     1      31.429  44.344  57.801  1.00  0.00     0.053 C 
HETATM   18  C   UNL     1      31.102  43.095  56.998  1.00  0.00     0.178 C 
HETATM   19 BR   UNL     1      27.694  47.419  55.417  1.00  0.00    -0.048 Br
HETATM   20  C   UNL     1      27.658  44.986  53.959  1.00  0.00     0.031 A 
ENDBRANCH   8   9
ENDBRANCH   1   8
BRANCH   5  21
HETATM   21  C   UNL     1      24.039  42.865  48.987  1.00  0.00     0.151 A 
HETATM   22  N   UNL     1      22.855  42.311  49.244  1.00  0.00    -0.158 NA
HETATM   23  N   UNL     1      22.933  41.157  48.559  1.00  0.00    -0.270 N 
HETATM   24  H   UNL     1      22.150  40.511  48.570  1.00  0.00     0.190 HD
HETATM   25  C   UNL     1      24.134  41.053  47.927  1.00  0.00     0.227 A 
HETATM   26  N   UNL     1      24.859  42.121  48.178  1.00  0.00    -0.225 NA
ENDBRANCH   5  21
TORSDOF 3
ENDMDL
MODEL 3
REMARK VINA RESULT:      -8.0      5.207      8.340
REMARK  3 active torsions:
REMARK  status: ('A' for Active; 'I' for Inactive)
REMARK    1  A    between atoms: C_12  and  C_13 
REMARK    2  A    between atoms: C_13  and  N_14 
REMARK    3  A    between atoms: C_18  and  C_19 
ROOT
HETATM    1  N   UNL     1      26.288  43.804  51.572  1.00  0.00    -0.067 N 
HETATM    2  H   UNL     1      26.128  42.793  51.649  1.00  0.00     0.280 HD
HETATM    3  C   UNL     1      27.648  44.092  52.172  1.00  0.00     0.236 C 
HETATM    4  C   UNL     1      27.652  43.785  53.663  1.00  0.00     0.040 C 
HETATM    5  C   UNL     1      26.544  44.513  54.424  1.00  0.00     0.062 C 
HETATM    6  C   UNL     1      25.189  44.215  53.779  1.00  0.00     0.040 C 
HETATM    7  C   UNL     1      25.164  44.517  52.290  1.00  0.00     0.236 C 
ENDROOT
BRANCH   1   8
HETATM    8  C   UNL     1      26.235  44.142  50.091  1.00  0.00     0.273 C 
BRANCH   8   9
HETATM    9  C   UNL     1      25.866  45.570  49.799  1.00  0.00    -0.028 A 
HETATM   10  C   UNL     1      24.518  45.944  49.696  1.00  0.00     0.048 A 
HETATM   11  C   UNL     1      24.161  47.273  49.457  1.00  0.00     0.103 A 
HETATM   12  C   UNL     1      25.144  48.259  49.333  1.00  0.00     0.119 A 
HETATM   13  O   UNL     1      22.821  47.543  49.482  1.00  0.00    -0.348 OA
HETATM   14  O   UNL     1      24.822  49.585  49.232  1.00  0.00    -0.347 OA
HETATM   15  C   UNL     1      26.489  47.894  49.446  1.00  0.00     0.047 A 
HETATM   16  C   UNL     1      24.110  49.887  48.032  1.00  0.00     0.178 C 
HETATM   17  C   UNL     1      22.623  49.609  48.180  1.00  0.00     0.053 C 
HETATM   18  C   UNL     1      22.350  48.115  48.259  1.00  0.00     0.178 C 
HETATM   19 BR   UNL     1      27.880  49.179  49.310  1.00  0.00    -0.048 Br
HETATM   20  C   UNL     1      26.852  46.559  49.668  1.00  0.00     0.031 A 
ENDBRANCH   8   9
ENDBRANCH   1   8
BRANCH   5  21
HETATM   21  C   UNL     1      26.813  45.980  54.532  1.00  0.00     0.151 A 
HETATM   22  N   UNL     1      28.044  46.479  54.633  1.00  0.00    -0.158 NA
HETATM   23  N   UNL     1      27.805  47.800  54.683  1.00  0.00    -0.270 N 
HETATM   24  H   UNL     1      28.582  48.450  54.762  1.00  0.00     0.190 HD
HETATM   25  C   UNL     1      26.470  48.052  54.613  1.00  0.00     0.227 A 
HETATM   26  N   UNL     1      25.812  46.917  54.516  1.00  0.00    -0.225 NA
ENDBRANCH   5  21
TORSDOF 3
ENDMDL
MODEL 4
REMARK VINA RESULT:      -7.8     13.484     14.703
REMARK  3 active torsions:
REMARK  status: ('A' for Active; 'I' for Inactive)
REMARK    1  A    between atoms: C_12  and  C_13 
REMARK    2  A    between atoms: C_13  and  N_14 
REMARK    3  A    between atoms: C_18  and  C_19 
ROOT
HETATM    1  N   UNL     1      31.130  48.517  39.903  1.00  0.00    -0.067 N 
HETATM    2  H   UNL     1      31.480  48.014  39.079  1.00  0.00     0.280 HD
HETATM    3  C   UNL     1      29.676  48.133  40.080  1.00  0.00     0.236 C 
HETATM    4  C   UNL     1      28.843  48.628  38.907  1.00  0.00     0.040 C 
HETATM    5  C   UNL     1      28.994  50.129  38.661  1.00  0.00     0.062 C 
HETATM    6  C   UNL     1      30.474  50.484  38.506  1.00  0.00     0.040 C 
HETATM    7  C   UNL     1      31.323  49.999  39.670  1.00  0.00     0.236 C 
ENDROOT
BRANCH   1   8
HETATM    8  C   UNL     1      31.984  48.077  41.080  1.00  0.00     0.273 C 
BRANCH   8   9
HETATM    9  C   UNL     1      32.817  49.175  41.680  1.00  0.00    -0.028 A 
HETATM   10  C   UNL     1      34.095  49.450  41.171  1.00  0.00     0.048 A 
HETATM   11  C   UNL     1      34.866  50.488  41.699  1.00  0.00     0.103 A 
HETATM   12  C   UNL     1      34.370  51.283  42.735  1.00  0.00     0.119 A 
HETATM   13  O   UNL     1      36.048  50.736  41.058  1.00  0.00    -0.348 OA
HETATM   14  O   UNL     1      35.044  52.387  43.181  1.00  0.00    -0.347 OA
HETATM   15  C   UNL     1      33.091  51.020  43.239  1.00  0.00     0.047 A 
HETATM   16  C   UNL     1      36.294  52.058  43.788  1.00  0.00     0.178 C 
HETATM   17  C   UNL     1      37.392  51.890  42.750  1.00  0.00     0.053 C 
HETATM   18  C   UNL     1      37.179  50.630  41.926  1.00  0.00     0.178 C 
HETATM   19 BR   UNL     1      32.340  52.070  44.631  1.00  0.00    -0.048 Br
HETATM   20  C   UNL     1      32.322  49.969  42.725  1.00  0.00     0.031 A 
ENDBRANCH   8   9
ENDBRANCH   1   8
BRANCH   5  21
HETATM   21  C   UNL     1      28.322  50.939  39.724  1.00  0.00     0.151 A 
HETATM   22  N   UNL     1      27.152  50.594  40.259  1.00  0.00    -0.158 NA
HETATM   23  N   UNL     1      26.956  51.573  41.156  1.00  0.00    -0.270 N 
HETATM   24  H   UNL     1      26.118  51.571  41.731  1.00  0.00     0.190 HD
HETATM   25  C   UNL     1      27.989  52.458  41.137  1.00  0.00     0.227 A 
HETATM   26  N   UNL     1      28.874  52.084  40.239  1.00  0.00    -0.225 NA
ENDBRANCH   5  21
TORSDOF 3
ENDMDL
MODEL 5
REMARK VINA RESULT:      -7.8      5.941      8.960
REMARK  3 active torsions:
REMARK  status: ('A' for Active; 'I' for Inactive)
REMARK    1  A    between atoms: C_12  and  C_13 
REMARK    2  A    between atoms: C_13  and  N_14 
REMARK    3  A    between atoms: C_18  and  C_19 
ROOT
HETATM    1  N   UNL     1      26.109  45.300  51.647  1.00  0.00    -0.067 N 
HETATM    2  H   UNL     1      25.275  44.777  51.358  1.00  0.00     0.280 HD
HETATM    3  C   UNL     1      27.227  44.296  51.836  1.00  0.00     0.236 C 
HETATM    4  C   UNL     1      26.911  43.351  52.987  1.00  0.00     0.040 C 
HETATM    5  C   UNL     1      26.596  44.085  54.291  1.00  0.00     0.062 C 
HETATM    6  C   UNL     1      25.479  45.103  54.058  1.00  0.00     0.040 C 
HETATM    7  C   UNL     1      25.777  46.058  52.914  1.00  0.00     0.236 C 
ENDROOT
BRANCH   1   8
HETATM    8  C   UNL     1      26.412  46.289  50.534  1.00  0.00     0.273 C 
BRANCH   8   9
HETATM    9  C   UNL     1      25.191  46.861  49.869  1.00  0.00    -0.028 A 
HETATM   10  C   UNL     1      25.138  48.224  49.544  1.00  0.00     0.048 A 
HETATM   11  C   UNL     1      24.022  48.762  48.898  1.00  0.00     0.103 A 
HETATM   12  C   UNL     1      22.944  47.945  48.549  1.00  0.00     0.119 A 
HETATM   13  O   UNL     1      24.122  50.076  48.533  1.00  0.00    -0.348 OA
HETATM   14  O   UNL     1      21.900  48.415  47.799  1.00  0.00    -0.347 OA
HETATM   15  C   UNL     1      22.996  46.582  48.861  1.00  0.00     0.047 A 
HETATM   16  C   UNL     1      21.151  49.425  48.475  1.00  0.00     0.178 C 
HETATM   17  C   UNL     1      21.790  50.794  48.317  1.00  0.00     0.053 C 
HETATM   18  C   UNL     1      23.090  50.886  49.101  1.00  0.00     0.178 C 
HETATM   19 BR   UNL     1      21.580  45.406  48.400  1.00  0.00    -0.048 Br
HETATM   20  C   UNL     1      24.105  46.043  49.525  1.00  0.00     0.031 A 
ENDBRANCH   8   9
ENDBRANCH   1   8
BRANCH   5  21
HETATM   21  C   UNL     1      27.818  44.708  54.888  1.00  0.00     0.151 A 
HETATM   22  N   UNL     1      29.013  44.119  54.858  1.00  0.00    -0.158 NA
HETATM   23  N   UNL     1      29.787  45.027  55.476  1.00  0.00    -0.270 N 
HETATM   24  H   UNL     1      30.778  44.844  55.600  1.00  0.00     0.190 HD
HETATM   25  C   UNL     1      29.053  46.109  55.851  1.00  0.00     0.227 A 
HETATM   26  N   UNL     1      27.799  45.939  55.492  1.00  0.00    -0.225 NA
ENDBRANCH   5  21
TORSDOF 3
ENDMDL
MODEL 6
REMARK VINA RESULT:      -7.7     13.477     15.844
REMARK  3 active torsions:
REMARK  status: ('A' for Active; 'I' for Inactive)
REMARK    1  A    between atoms: C_12  and  C_13 
REMARK    2  A    between atoms: C_13  and  N_14 
REMARK    3  A    between atoms: C_18  and  C_19 
ROOT
HETATM    1  N   UNL     1      32.867  48.970  41.748  1.00  0.00    -0.067 N 
HETATM    2  H   UNL     1      33.621  48.635  42.358  1.00  0.00     0.280 HD
HETATM    3  C   UNL     1      33.410  50.146  40.964  1.00  0.00     0.236 C 
HETATM    4  C   UNL     1      33.737  51.306  41.894  1.00  0.00     0.040 C 
HETATM    5  C   UNL     1      32.552  51.720  42.768  1.00  0.00     0.062 C 
HETATM    6  C   UNL     1      32.017  50.505  43.528  1.00  0.00     0.040 C 
HETATM    7  C   UNL     1      31.683  49.336  42.615  1.00  0.00     0.236 C 
ENDROOT
BRANCH   1   8
HETATM    8  C   UNL     1      32.488  47.809  40.843  1.00  0.00     0.273 C 
BRANCH   8   9
HETATM    9  C   UNL     1      31.136  47.945  40.199  1.00  0.00    -0.028 A 
HETATM   10  C   UNL     1      30.804  49.113  39.498  1.00  0.00     0.048 A 
HETATM   11  C   UNL     1      29.563  49.240  38.868  1.00  0.00     0.103 A 
HETATM   12  C   UNL     1      28.637  48.195  38.912  1.00  0.00     0.119 A 
HETATM   13  O   UNL     1      29.387  50.374  38.124  1.00  0.00    -0.348 OA
HETATM   14  O   UNL     1      27.472  48.237  38.195  1.00  0.00    -0.347 OA
HETATM   15  C   UNL     1      28.968  47.023  39.601  1.00  0.00     0.047 A 
HETATM   16  C   UNL     1      26.595  49.275  38.634  1.00  0.00     0.178 C 
HETATM   17  C   UNL     1      26.952  50.611  38.002  1.00  0.00     0.053 C 
HETATM   18  C   UNL     1      28.263  51.146  38.555  1.00  0.00     0.178 C 
HETATM   19 BR   UNL     1      27.770  45.553  39.687  1.00  0.00    -0.048 Br
HETATM   20  C   UNL     1      30.203  46.900  40.249  1.00  0.00     0.031 A 
ENDBRANCH   8   9
ENDBRANCH   1   8
BRANCH   5  21
HETATM   21  C   UNL     1      31.488  52.408  41.974  1.00  0.00     0.151 A 
HETATM   22  N   UNL     1      30.189  52.252  42.226  1.00  0.00    -0.158 NA
HETATM   23  N   UNL     1      29.628  53.052  41.303  1.00  0.00    -0.270 N 
HETATM   24  H   UNL     1      28.617  53.136  41.256  1.00  0.00     0.190 HD
HETATM   25  C   UNL     1      30.583  53.652  40.542  1.00  0.00     0.227 A 
HETATM   26  N   UNL     1      31.775  53.265  40.942  1.00  0.00    -0.225 NA
ENDBRANCH   5  21
TORSDOF 3
ENDMDL
MODEL 7
REMARK VINA RESULT:      -7.3      9.098     10.929
REMARK  3 active torsions:
REMARK  status: ('A' for Active; 'I' for Inactive)
REMARK    1  A    between atoms: C_12  and  C_13 
REMARK    2  A    between atoms: C_13  and  N_14 
REMARK    3  A    between atoms: C_18  and  C_19 
ROOT
HETATM    1  N   UNL     1      20.940  49.125  48.628  1.00  0.00    -0.067 N 
HETATM    2  H   UNL     1      21.058  48.105  48.613  1.00  0.00     0.280 HD
HETATM    3  C   UNL     1      20.296  49.483  49.951  1.00  0.00     0.236 C 
HETATM    4  C   UNL     1      18.892  48.903  50.039  1.00  0.00     0.040 C 
HETATM    5  C   UNL     1      18.005  49.309  48.862  1.00  0.00     0.062 C 
HETATM    6  C   UNL     1      18.695  48.951  47.544  1.00  0.00     0.040 C 
HETATM    7  C   UNL     1      20.098  49.523  47.436  1.00  0.00     0.236 C 
ENDROOT
BRANCH   1   8
HETATM    8  C   UNL     1      22.329  49.726  48.488  1.00  0.00     0.273 C 
BRANCH   8   9
HETATM    9  C   UNL     1      23.444  48.800  48.889  1.00  0.00    -0.028 A 
HETATM   10  C   UNL     1      23.167  47.466  49.223  1.00  0.00     0.048 A 
HETATM   11  C   UNL     1      24.198  46.588  49.566  1.00  0.00     0.103 A 
HETATM   12  C   UNL     1      25.526  47.020  49.566  1.00  0.00     0.119 A 
HETATM   13  O   UNL     1      23.828  45.287  49.767  1.00  0.00    -0.348 OA
HETATM   14  O   UNL     1      26.565  46.151  49.767  1.00  0.00    -0.347 OA
HETATM   15  C   UNL     1      25.809  48.347  49.224  1.00  0.00     0.047 A 
HETATM   16  C   UNL     1      26.558  45.583  51.077  1.00  0.00     0.178 C 
HETATM   17  C   UNL     1      25.629  44.383  51.160  1.00  0.00     0.053 C 
HETATM   18  C   UNL     1      24.172  44.811  51.071  1.00  0.00     0.178 C 
HETATM   19 BR   UNL     1      27.590  49.001  49.182  1.00  0.00    -0.048 Br
HETATM   20  C   UNL     1      24.777  49.235  48.897  1.00  0.00     0.031 A 
ENDBRANCH   8   9
ENDBRANCH   1   8
BRANCH   5  21
HETATM   21  C   UNL     1      17.618  50.753  48.927  1.00  0.00     0.151 A 
HETATM   22  N   UNL     1      17.363  51.479  47.839  1.00  0.00    -0.158 NA
HETATM   23  N   UNL     1      17.048  52.672  48.369  1.00  0.00    -0.270 N 
HETATM   24  H   UNL     1      16.800  53.445  47.758  1.00  0.00     0.190 HD
HETATM   25  C   UNL     1      17.120  52.631  49.727  1.00  0.00     0.227 A 
HETATM   26  N   UNL     1      17.479  51.426  50.113  1.00  0.00    -0.225 NA
ENDBRANCH   5  21
TORSDOF 3
ENDMDL
MODEL 8
REMARK VINA RESULT:      -7.3      2.257      3.430
REMARK  3 active torsions:
REMARK  status: ('A' for Active; 'I' for Inactive)
REMARK    1  A    between atoms: C_12  and  C_13 
REMARK    2  A    between atoms: C_13  and  N_14 
REMARK    3  A    between atoms: C_18  and  C_19 
ROOT
HETATM    1  N   UNL     1      28.330  40.919  51.224  1.00  0.00    -0.067 N 
HETATM    2  H   UNL     1      29.068  41.630  51.165  1.00  0.00     0.280 HD
HETATM    3  C   UNL     1      28.943  39.598  50.809  1.00  0.00     0.236 C 
HETATM    4  C   UNL     1      29.363  39.637  49.347  1.00  0.00     0.040 C 
HETATM    5  C   UNL     1      28.223  40.039  48.410  1.00  0.00     0.062 C 
HETATM    6  C   UNL     1      27.616  41.365  48.871  1.00  0.00     0.040 C 
HETATM    7  C   UNL     1      27.187  41.346  50.329  1.00  0.00     0.236 C 
ENDROOT
BRANCH   1   8
HETATM    8  C   UNL     1      27.857  40.900  52.668  1.00  0.00     0.273 C 
BRANCH   8   9
HETATM    9  C   UNL     1      28.069  42.195  53.402  1.00  0.00    -0.028 A 
HETATM   10  C   UNL     1      27.073  43.181  53.395  1.00  0.00     0.048 A 
HETATM   11  C   UNL     1      27.244  44.376  54.100  1.00  0.00     0.103 A 
HETATM   12  C   UNL     1      28.408  44.601  54.839  1.00  0.00     0.119 A 
HETATM   13  O   UNL     1      26.168  45.219  54.112  1.00  0.00    -0.348 OA
HETATM   14  O   UNL     1      28.547  45.699  55.644  1.00  0.00    -0.347 OA
HETATM   15  C   UNL     1      29.401  43.615  54.859  1.00  0.00     0.047 A 
HETATM   16  C   UNL     1      28.561  46.921  54.906  1.00  0.00     0.178 C 
HETATM   17  C   UNL     1      27.154  47.407  54.602  1.00  0.00     0.053 C 
HETATM   18  C   UNL     1      26.473  46.511  53.580  1.00  0.00     0.178 C 
HETATM   19 BR   UNL     1      30.999  43.840  55.858  1.00  0.00    -0.048 Br
HETATM   20  C   UNL     1      29.240  42.424  54.140  1.00  0.00     0.031 A 
ENDBRANCH   8   9
ENDBRANCH   1   8
BRANCH   5  21
HETATM   21  C   UNL     1      27.198  38.957  48.283  1.00  0.00     0.151 A 
HETATM   22  N   UNL     1      25.969  39.182  47.821  1.00  0.00    -0.158 NA
HETATM   23  N   UNL     1      25.426  37.955  47.865  1.00  0.00    -0.270 N 
HETATM   24  H   UNL     1      24.467  37.816  47.562  1.00  0.00     0.190 HD
HETATM   25  C   UNL     1      26.322  37.048  48.341  1.00  0.00     0.227 A 
HETATM   26  N   UNL     1      27.458  37.653  48.616  1.00  0.00    -0.225 NA
ENDBRANCH   5  21
TORSDOF 3
ENDMDL
MODEL 9
REMARK VINA RESULT:      -7.2     15.020     16.628
REMARK  3 active torsions:
REMARK  status: ('A' for Active; 'I' for Inactive)
REMARK    1  A    between atoms: C_12  and  C_13 
REMARK    2  A    between atoms: C_13  and  N_14 
REMARK    3  A    between atoms: C_18  and  C_19 
ROOT
HETATM    1  N   UNL     1      17.071  52.013  48.410  1.00  0.00    -0.067 N 
HETATM    2  H   UNL     1      17.066  52.906  47.905  1.00  0.00     0.280 HD
HETATM    3  C   UNL     1      18.234  52.051  49.380  1.00  0.00     0.236 C 
HETATM    4  C   UNL     1      19.557  52.110  48.629  1.00  0.00     0.040 C 
HETATM    5  C   UNL     1      19.717  50.978  47.614  1.00  0.00     0.062 C 
HETATM    6  C   UNL     1      18.517  50.957  46.666  1.00  0.00     0.040 C 
HETATM    7  C   UNL     1      17.186  50.896  47.397  1.00  0.00     0.236 C 
ENDROOT
BRANCH   1   8
HETATM    8  C   UNL     1      15.735  51.908  49.127  1.00  0.00     0.273 C 
BRANCH   8   9
HETATM    9  C   UNL     1      15.118  53.235  49.475  1.00  0.00    -0.028 A 
HETATM   10  C   UNL     1      15.182  53.719  50.789  1.00  0.00     0.048 A 
HETATM   11  C   UNL     1      14.642  54.965  51.119  1.00  0.00     0.103 A 
HETATM   12  C   UNL     1      14.041  55.758  50.138  1.00  0.00     0.119 A 
HETATM   13  O   UNL     1      14.855  55.385  52.403  1.00  0.00    -0.348 OA
HETATM   14  O   UNL     1      13.623  57.034  50.402  1.00  0.00    -0.347 OA
HETATM   15  C   UNL     1      13.984  55.284  48.823  1.00  0.00     0.047 A 
HETATM   16  C   UNL     1      12.555  57.076  51.349  1.00  0.00     0.178 C 
HETATM   17  C   UNL     1      13.073  57.024  52.777  1.00  0.00     0.053 C 
HETATM   18  C   UNL     1      13.638  55.650  53.105  1.00  0.00     0.178 C 
HETATM   19 BR   UNL     1      13.203  56.314  47.432  1.00  0.00    -0.048 Br
HETATM   20  C   UNL     1      14.509  54.029  48.492  1.00  0.00     0.031 A 
ENDBRANCH   8   9
ENDBRANCH   1   8
BRANCH   5  21
HETATM   21  C   UNL     1      19.938  49.658  48.282  1.00  0.00     0.151 A 
HETATM   22  N   UNL     1      20.628  49.532  49.415  1.00  0.00    -0.158 NA
HETATM   23  N   UNL     1      20.549  48.211  49.644  1.00  0.00    -0.270 N 
HETATM   24  H   UNL     1      20.996  47.814  50.465  1.00  0.00     0.190 HD
HETATM   25  C   UNL     1      19.832  47.595  48.666  1.00  0.00     0.227 A 
HETATM   26  N   UNL     1      19.429  48.486  47.786  1.00  0.00    -0.225 NA
ENDBRANCH   5  21
TORSDOF 3
ENDMDL
MODEL 10
REMARK VINA RESULT:      -7.2     13.445     16.177
REMARK  3 active torsions:
REMARK  status: ('A' for Active; 'I' for Inactive)
REMARK    1  A    between atoms: C_12  and  C_13 
REMARK    2  A    between atoms: C_13  and  N_14 
REMARK    3  A    between atoms: C_18  and  C_19 
ROOT
HETATM    1  N   UNL     1      29.658  52.649  39.589  1.00  0.00    -0.067 N 
HETATM    2  H   UNL     1      29.643  53.676  39.575  1.00  0.00     0.280 HD
HETATM    3  C   UNL     1      28.936  52.205  40.844  1.00  0.00     0.236 C 
HETATM    4  C   UNL     1      29.698  52.647  42.085  1.00  0.00     0.040 C 
HETATM    5  C   UNL     1      31.154  52.182  42.088  1.00  0.00     0.062 C 
HETATM    6  C   UNL     1      31.845  52.630  40.799  1.00  0.00     0.040 C 
HETATM    7  C   UNL     1      31.101  52.196  39.547  1.00  0.00     0.236 C 
ENDROOT
BRANCH   1   8
HETATM    8  C   UNL     1      28.947  52.186  38.328  1.00  0.00     0.273 C 
BRANCH   8   9
HETATM    9  C   UNL     1      28.356  50.807  38.427  1.00  0.00    -0.028 A 
HETATM   10  C   UNL     1      26.972  50.622  38.297  1.00  0.00     0.048 A 
HETATM   11  C   UNL     1      26.414  49.342  38.354  1.00  0.00     0.103 A 
HETATM   12  C   UNL     1      27.229  48.221  38.527  1.00  0.00     0.119 A 
HETATM   13  O   UNL     1      25.070  49.268  38.108  1.00  0.00    -0.348 OA
HETATM   14  O   UNL     1      26.727  46.950  38.454  1.00  0.00    -0.347 OA
HETATM   15  C   UNL     1      28.611  48.399  38.646  1.00  0.00     0.047 A 
HETATM   16  C   UNL     1      25.802  46.664  39.503  1.00  0.00     0.178 C 
HETATM   17  C   UNL     1      24.405  47.161  39.166  1.00  0.00     0.053 C 
HETATM   18  C   UNL     1      24.343  48.680  39.190  1.00  0.00     0.178 C 
HETATM   19 BR   UNL     1      29.785  46.922  38.861  1.00  0.00    -0.048 Br
HETATM   20  C   UNL     1      29.173  49.681  38.607  1.00  0.00     0.031 A 
ENDBRANCH   8   9
ENDBRANCH   1   8
BRANCH   5  21
HETATM   21  C   UNL     1      31.267  50.707  42.312  1.00  0.00     0.151 A 
HETATM   22  N   UNL     1      32.398  50.125  42.710  1.00  0.00    -0.158 NA
HETATM   23  N   UNL     1      32.032  48.835  42.794  1.00  0.00    -0.270 N 
HETATM   24  H   UNL     1      32.710  48.137  43.085  1.00  0.00     0.190 HD
HETATM   25  C   UNL     1      30.724  48.682  42.452  1.00  0.00     0.227 A 
HETATM   26  N   UNL     1      30.210  49.852  42.140  1.00  0.00    -0.225 NA
ENDBRANCH   5  21
TORSDOF 3
ENDMDL
