MODEL 1
REMARK VINA RESULT:      -9.1      0.000      0.000
REMARK  5 active torsions:
REMARK  status: ('A' for Active; 'I' for Inactive)
REMARK    1  A    between atoms: C_7  and  C_8 
REMARK    2  A    between atoms: N_9  and  N_10 
REMARK       I    between atoms: N_10  and  C_11 
REMARK    3  A    between atoms: C_11  and  C_12 
REMARK    4  A    between atoms: C_12  and  O_13 
REMARK    5  A    between atoms: O_13  and  C_14 
ROOT
HETATM    1  C   UNL     1      25.675  47.307  50.352  1.00  0.00     0.153 C 
HETATM    2  N   UNL     1      25.965  47.528  51.596  1.00  0.00    -0.184 NA
ENDROOT
BRANCH   2   3
HETATM    3  N   UNL     1      26.188  46.444  52.416  1.00  0.00    -0.246 N 
HETATM    4  C   UNL     1      26.096  46.433  53.804  1.00  0.00     0.261 C 
HETATM    5  O   UNL     1      25.719  47.365  54.512  1.00  0.00    -0.269 OA
HETATM    6  H   UNL     1      26.758  45.711  51.995  1.00  0.00     0.192 HD
BRANCH   4   7
HETATM    7  C   UNL     1      26.426  45.073  54.412  1.00  0.00     0.280 C 
BRANCH   7   8
HETATM    8  O   UNL     1      27.594  44.501  53.834  1.00  0.00    -0.342 OA
BRANCH   8   9
HETATM    9  C   UNL     1      28.708  44.503  54.632  1.00  0.00     0.069 A 
HETATM   10  C   UNL     1      29.457  43.324  54.609  1.00  0.00     0.037 A 
HETATM   11  C   UNL     1      30.619  43.206  55.375  1.00  0.00     0.003 A 
HETATM   12  C   UNL     1      31.032  44.265  56.181  1.00  0.00     0.000 A 
HETATM   13  C   UNL     1      30.283  45.438  56.220  1.00  0.00     0.003 A 
HETATM   14  C   UNL     1      29.122  45.558  55.450  1.00  0.00     0.037 A 
ENDBRANCH   8   9
ENDBRANCH   7   8
ENDBRANCH   4   7
ENDBRANCH   2   3
BRANCH   1  15
HETATM   15  C   UNL     1      25.379  48.406  49.448  1.00  0.00     0.018 A 
HETATM   16  C   UNL     1      26.272  49.278  48.840  1.00  0.00     0.018 A 
HETATM   17  C   UNL     1      27.755  49.368  48.909  1.00  0.00     0.069 C 
HETATM   18  N   UNL     1      25.544  50.148  48.067  1.00  0.00    -0.358 N 
HETATM   19  H   UNL     1      25.934  50.895  47.510  1.00  0.00     0.166 HD
HETATM   20  C   UNL     1      24.201  49.869  48.151  1.00  0.00     0.043 A 
HETATM   21  C   UNL     1      24.064  48.782  49.010  1.00  0.00     0.004 A 
HETATM   22  C   UNL     1      23.109  50.495  47.538  1.00  0.00     0.030 A 
HETATM   23  C   UNL     1      22.764  48.300  49.278  1.00  0.00     0.014 A 
HETATM   24  C   UNL     1      21.659  48.915  48.677  1.00  0.00     0.001 A 
HETATM   25  C   UNL     1      21.832  49.996  47.818  1.00  0.00     0.002 A 
ENDBRANCH   1  15
TORSDOF 5
ENDMDL
MODEL 2
REMARK VINA RESULT:      -8.7      2.324      9.060
REMARK  5 active torsions:
REMARK  status: ('A' for Active; 'I' for Inactive)
REMARK    1  A    between atoms: C_7  and  C_8 
REMARK    2  A    between atoms: N_9  and  N_10 
REMARK       I    between atoms: N_10  and  C_11 
REMARK    3  A    between atoms: C_11  and  C_12 
REMARK    4  A    between atoms: C_12  and  O_13 
REMARK    5  A    between atoms: O_13  and  C_14 
ROOT
HETATM    1  C   UNL     1      28.404  45.284  53.932  1.00  0.00     0.153 C 
HETATM    2  N   UNL     1      27.131  45.122  54.109  1.00  0.00    -0.184 NA
ENDROOT
BRANCH   2   3
HETATM    3  N   UNL     1      26.266  45.918  53.391  1.00  0.00    -0.246 N 
HETATM    4  C   UNL     1      25.804  45.671  52.102  1.00  0.00     0.261 C 
HETATM    5  O   UNL     1      26.026  44.663  51.433  1.00  0.00    -0.269 OA
HETATM    6  H   UNL     1      26.229  46.886  53.707  1.00  0.00     0.192 HD
BRANCH   4   7
HETATM    7  C   UNL     1      24.871  46.762  51.585  1.00  0.00     0.280 C 
BRANCH   7   8
HETATM    8  O   UNL     1      24.802  46.774  50.163  1.00  0.00    -0.342 OA
BRANCH   8   9
HETATM    9  C   UNL     1      25.348  47.875  49.555  1.00  0.00     0.069 A 
HETATM   10  C   UNL     1      26.742  47.954  49.611  1.00  0.00     0.037 A 
HETATM   11  C   UNL     1      27.416  49.027  49.022  1.00  0.00     0.003 A 
HETATM   12  C   UNL     1      26.697  50.034  48.383  1.00  0.00     0.000 A 
HETATM   13  C   UNL     1      25.306  49.969  48.335  1.00  0.00     0.003 A 
HETATM   14  C   UNL     1      24.632  48.894  48.922  1.00  0.00     0.037 A 
ENDBRANCH   8   9
ENDBRANCH   7   8
ENDBRANCH   4   7
ENDBRANCH   2   3
BRANCH   1  15
HETATM   15  C   UNL     1      29.369  44.511  54.696  1.00  0.00     0.018 A 
HETATM   16  C   UNL     1      29.990  43.322  54.337  1.00  0.00     0.018 A 
HETATM   17  C   UNL     1      29.879  42.490  53.110  1.00  0.00     0.069 C 
HETATM   18  N   UNL     1      30.826  42.962  55.366  1.00  0.00    -0.358 N 
HETATM   19  H   UNL     1      31.406  42.135  55.379  1.00  0.00     0.166 HD
HETATM   20  C   UNL     1      30.772  43.882  56.384  1.00  0.00     0.043 A 
HETATM   21  C   UNL     1      29.865  44.866  55.996  1.00  0.00     0.004 A 
HETATM   22  C   UNL     1      31.448  43.913  57.610  1.00  0.00     0.030 A 
HETATM   23  C   UNL     1      29.616  45.934  56.886  1.00  0.00     0.014 A 
HETATM   24  C   UNL     1      30.279  45.980  58.117  1.00  0.00     0.001 A 
HETATM   25  C   UNL     1      31.184  44.984  58.471  1.00  0.00     0.002 A 
ENDBRANCH   1  15
TORSDOF 5
ENDMDL
MODEL 3
REMARK VINA RESULT:      -8.6      1.743      2.327
REMARK  5 active torsions:
REMARK  status: ('A' for Active; 'I' for Inactive)
REMARK    1  A    between atoms: C_7  and  C_8 
REMARK    2  A    between atoms: N_9  and  N_10 
REMARK       I    between atoms: N_10  and  C_11 
REMARK    3  A    between atoms: C_11  and  C_12 
REMARK    4  A    between atoms: C_12  and  O_13 
REMARK    5  A    between atoms: O_13  and  C_14 
ROOT
HETATM    1  C   UNL     1      25.970  47.139  50.412  1.00  0.00     0.153 C 
HETATM    2  N   UNL     1      26.313  45.990  49.920  1.00  0.00    -0.184 NA
ENDROOT
BRANCH   2   3
HETATM    3  N   UNL     1      26.652  44.982  50.794  1.00  0.00    -0.246 N 
HETATM    4  C   UNL     1      27.000  43.679  50.448  1.00  0.00     0.261 C 
HETATM    5  O   UNL     1      27.143  43.247  49.305  1.00  0.00    -0.269 OA
HETATM    6  H   UNL     1      26.314  45.122  51.745  1.00  0.00     0.192 HD
BRANCH   4   7
HETATM    7  C   UNL     1      27.300  42.802  51.659  1.00  0.00     0.280 C 
BRANCH   7   8
HETATM    8  O   UNL     1      27.009  43.467  52.883  1.00  0.00    -0.342 OA
BRANCH   8   9
HETATM    9  C   UNL     1      28.079  43.660  53.718  1.00  0.00     0.069 A 
HETATM   10  C   UNL     1      28.070  44.864  54.425  1.00  0.00     0.037 A 
HETATM   11  C   UNL     1      29.104  45.174  55.313  1.00  0.00     0.003 A 
HETATM   12  C   UNL     1      30.160  44.283  55.489  1.00  0.00     0.000 A 
HETATM   13  C   UNL     1      30.183  43.086  54.777  1.00  0.00     0.003 A 
HETATM   14  C   UNL     1      29.147  42.775  53.891  1.00  0.00     0.037 A 
ENDBRANCH   8   9
ENDBRANCH   7   8
ENDBRANCH   4   7
ENDBRANCH   2   3
BRANCH   1  15
HETATM   15  C   UNL     1      25.650  48.259  49.542  1.00  0.00     0.018 A 
HETATM   16  C   UNL     1      26.522  49.179  48.976  1.00  0.00     0.018 A 
HETATM   17  C   UNL     1      28.000  49.313  49.066  1.00  0.00     0.069 C 
HETATM   18  N   UNL     1      25.775  50.052  48.224  1.00  0.00    -0.358 N 
HETATM   19  H   UNL     1      26.148  50.830  47.697  1.00  0.00     0.166 HD
HETATM   20  C   UNL     1      24.441  49.729  48.281  1.00  0.00     0.043 A 
HETATM   21  C   UNL     1      24.329  48.609  49.101  1.00  0.00     0.004 A 
HETATM   22  C   UNL     1      23.337  50.342  47.677  1.00  0.00     0.030 A 
HETATM   23  C   UNL     1      23.041  48.078  49.336  1.00  0.00     0.014 A 
HETATM   24  C   UNL     1      21.925  48.679  48.743  1.00  0.00     0.001 A 
HETATM   25  C   UNL     1      22.073  49.794  47.923  1.00  0.00     0.002 A 
ENDBRANCH   1  15
TORSDOF 5
ENDMDL
MODEL 4
REMARK VINA RESULT:      -8.6      2.231      9.220
REMARK  5 active torsions:
REMARK  status: ('A' for Active; 'I' for Inactive)
REMARK    1  A    between atoms: C_7  and  C_8 
REMARK    2  A    between atoms: N_9  and  N_10 
REMARK       I    between atoms: N_10  and  C_11 
REMARK    3  A    between atoms: C_11  and  C_12 
REMARK    4  A    between atoms: C_12  and  O_13 
REMARK    5  A    between atoms: O_13  and  C_14 
ROOT
HETATM    1  C   UNL     1      26.304  45.847  53.302  1.00  0.00     0.153 C 
HETATM    2  N   UNL     1      26.099  46.848  52.506  1.00  0.00    -0.184 NA
ENDROOT
BRANCH   2   3
HETATM    3  N   UNL     1      25.110  46.731  51.554  1.00  0.00    -0.246 N 
HETATM    4  C   UNL     1      25.002  47.484  50.388  1.00  0.00     0.261 C 
HETATM    5  O   UNL     1      25.815  48.312  49.982  1.00  0.00    -0.269 OA
HETATM    6  H   UNL     1      24.254  46.295  51.892  1.00  0.00     0.192 HD
BRANCH   4   7
HETATM    7  C   UNL     1      23.776  47.119  49.556  1.00  0.00     0.280 C 
BRANCH   7   8
HETATM    8  O   UNL     1      23.586  48.015  48.467  1.00  0.00    -0.342 OA
BRANCH   8   9
HETATM    9  C   UNL     1      22.597  48.949  48.638  1.00  0.00     0.069 A 
HETATM   10  C   UNL     1      22.945  50.254  48.282  1.00  0.00     0.037 A 
HETATM   11  C   UNL     1      22.020  51.293  48.404  1.00  0.00     0.003 A 
HETATM   12  C   UNL     1      20.743  51.034  48.896  1.00  0.00     0.000 A 
HETATM   13  C   UNL     1      20.393  49.738  49.266  1.00  0.00     0.003 A 
HETATM   14  C   UNL     1      21.318  48.697  49.140  1.00  0.00     0.037 A 
ENDBRANCH   8   9
ENDBRANCH   7   8
ENDBRANCH   4   7
ENDBRANCH   2   3
BRANCH   1  15
HETATM   15  C   UNL     1      27.366  45.888  54.295  1.00  0.00     0.018 A 
HETATM   16  C   UNL     1      27.578  46.841  55.282  1.00  0.00     0.018 A 
HETATM   17  C   UNL     1      26.824  48.074  55.633  1.00  0.00     0.069 C 
HETATM   18  N   UNL     1      28.694  46.468  55.988  1.00  0.00    -0.358 N 
HETATM   19  H   UNL     1      29.086  46.978  56.768  1.00  0.00     0.166 HD
HETATM   20  C   UNL     1      29.216  45.297  55.494  1.00  0.00     0.043 A 
HETATM   21  C   UNL     1      28.406  44.908  54.430  1.00  0.00     0.004 A 
HETATM   22  C   UNL     1      30.337  44.564  55.903  1.00  0.00     0.030 A 
HETATM   23  C   UNL     1      28.740  43.726  53.732  1.00  0.00     0.014 A 
HETATM   24  C   UNL     1      29.859  42.982  54.125  1.00  0.00     0.001 A 
HETATM   25  C   UNL     1      30.643  43.396  55.197  1.00  0.00     0.002 A 
ENDBRANCH   1  15
TORSDOF 5
ENDMDL
MODEL 5
REMARK VINA RESULT:      -8.4      2.251      9.390
REMARK  5 active torsions:
REMARK  status: ('A' for Active; 'I' for Inactive)
REMARK    1  A    between atoms: C_7  and  C_8 
REMARK    2  A    between atoms: N_9  and  N_10 
REMARK       I    between atoms: N_10  and  C_11 
REMARK    3  A    between atoms: C_11  and  C_12 
REMARK    4  A    between atoms: C_12  and  O_13 
REMARK    5  A    between atoms: O_13  and  C_14 
ROOT
HETATM    1  C   UNL     1      26.717  44.566  52.537  1.00  0.00     0.153 C 
HETATM    2  N   UNL     1      26.806  45.094  51.356  1.00  0.00    -0.184 NA
ENDROOT
BRANCH   2   3
HETATM    3  N   UNL     1      25.703  45.740  50.846  1.00  0.00    -0.246 N 
HETATM    4  C   UNL     1      25.572  47.112  50.655  1.00  0.00     0.261 C 
HETATM    5  O   UNL     1      26.450  47.955  50.830  1.00  0.00    -0.269 OA
HETATM    6  H   UNL     1      24.836  45.209  50.921  1.00  0.00     0.192 HD
BRANCH   4   7
HETATM    7  C   UNL     1      24.211  47.507  50.090  1.00  0.00     0.280 C 
BRANCH   7   8
HETATM    8  O   UNL     1      24.150  48.892  49.766  1.00  0.00    -0.342 OA
BRANCH   8   9
HETATM    9  C   UNL     1      23.025  49.291  49.093  1.00  0.00     0.069 A 
HETATM   10  C   UNL     1      22.755  50.661  49.147  1.00  0.00     0.037 A 
HETATM   11  C   UNL     1      21.639  51.191  48.495  1.00  0.00     0.003 A 
HETATM   12  C   UNL     1      20.780  50.350  47.792  1.00  0.00     0.000 A 
HETATM   13  C   UNL     1      21.035  48.982  47.744  1.00  0.00     0.003 A 
HETATM   14  C   UNL     1      22.153  48.451  48.395  1.00  0.00     0.037 A 
ENDBRANCH   8   9
ENDBRANCH   7   8
ENDBRANCH   4   7
ENDBRANCH   2   3
BRANCH   1  15
HETATM   15  C   UNL     1      27.830  43.827  53.111  1.00  0.00     0.018 A 
HETATM   16  C   UNL     1      28.285  42.562  52.766  1.00  0.00     0.018 A 
HETATM   17  C   UNL     1      27.808  41.593  51.744  1.00  0.00     0.069 C 
HETATM   18  N   UNL     1      29.361  42.274  53.568  1.00  0.00    -0.358 N 
HETATM   19  H   UNL     1      29.894  41.415  53.539  1.00  0.00     0.166 HD
HETATM   20  C   UNL     1      29.625  43.315  54.425  1.00  0.00     0.043 A 
HETATM   21  C   UNL     1      28.681  44.305  54.164  1.00  0.00     0.004 A 
HETATM   22  C   UNL     1      30.617  43.449  55.404  1.00  0.00     0.030 A 
HETATM   23  C   UNL     1      28.726  45.490  54.930  1.00  0.00     0.014 A 
HETATM   24  C   UNL     1      29.708  45.642  55.916  1.00  0.00     0.001 A 
HETATM   25  C   UNL     1      30.641  44.635  56.146  1.00  0.00     0.002 A 
ENDBRANCH   1  15
TORSDOF 5
ENDMDL
MODEL 6
REMARK VINA RESULT:      -8.4      2.816      8.696
REMARK  5 active torsions:
REMARK  status: ('A' for Active; 'I' for Inactive)
REMARK    1  A    between atoms: C_7  and  C_8 
REMARK    2  A    between atoms: N_9  and  N_10 
REMARK       I    between atoms: N_10  and  C_11 
REMARK    3  A    between atoms: C_11  and  C_12 
REMARK    4  A    between atoms: C_12  and  O_13 
REMARK    5  A    between atoms: O_13  and  C_14 
ROOT
HETATM    1  C   UNL     1      28.151  44.972  53.713  1.00  0.00     0.153 C 
HETATM    2  N   UNL     1      27.348  43.962  53.590  1.00  0.00    -0.184 NA
ENDROOT
BRANCH   2   3
HETATM    3  N   UNL     1      26.871  43.659  52.335  1.00  0.00    -0.246 N 
HETATM    4  C   UNL     1      25.538  43.686  51.936  1.00  0.00     0.261 C 
HETATM    5  O   UNL     1      24.586  44.066  52.615  1.00  0.00    -0.269 OA
HETATM    6  H   UNL     1      27.498  43.080  51.778  1.00  0.00     0.192 HD
BRANCH   4   7
HETATM    7  C   UNL     1      25.344  43.274  50.480  1.00  0.00     0.280 C 
BRANCH   7   8
HETATM    8  O   UNL     1      26.007  44.158  49.583  1.00  0.00    -0.342 OA
BRANCH   8   9
HETATM    9  C   UNL     1      25.543  45.448  49.577  1.00  0.00     0.069 A 
HETATM   10  C   UNL     1      26.520  46.432  49.745  1.00  0.00     0.037 A 
HETATM   11  C   UNL     1      26.172  47.785  49.749  1.00  0.00     0.003 A 
HETATM   12  C   UNL     1      24.840  48.161  49.598  1.00  0.00     0.000 A 
HETATM   13  C   UNL     1      23.858  47.186  49.444  1.00  0.00     0.003 A 
HETATM   14  C   UNL     1      24.207  45.831  49.436  1.00  0.00     0.037 A 
ENDBRANCH   8   9
ENDBRANCH   7   8
ENDBRANCH   4   7
ENDBRANCH   2   3
BRANCH   1  15
HETATM   15  C   UNL     1      28.650  45.375  55.018  1.00  0.00     0.018 A 
HETATM   16  C   UNL     1      28.230  46.440  55.803  1.00  0.00     0.018 A 
HETATM   17  C   UNL     1      27.180  47.469  55.579  1.00  0.00     0.069 C 
HETATM   18  N   UNL     1      28.979  46.431  56.954  1.00  0.00    -0.358 N 
HETATM   19  H   UNL     1      28.890  47.095  57.710  1.00  0.00     0.166 HD
HETATM   20  C   UNL     1      29.875  45.389  56.945  1.00  0.00     0.043 A 
HETATM   21  C   UNL     1      29.695  44.708  55.743  1.00  0.00     0.004 A 
HETATM   22  C   UNL     1      30.824  45.006  57.900  1.00  0.00     0.030 A 
HETATM   23  C   UNL     1      30.514  43.589  55.479  1.00  0.00     0.014 A 
HETATM   24  C   UNL     1      31.471  43.193  56.421  1.00  0.00     0.001 A 
HETATM   25  C   UNL     1      31.621  43.892  57.615  1.00  0.00     0.002 A 
ENDBRANCH   1  15
TORSDOF 5
ENDMDL
MODEL 7
REMARK VINA RESULT:      -8.3      5.028      8.625
REMARK  5 active torsions:
REMARK  status: ('A' for Active; 'I' for Inactive)
REMARK    1  A    between atoms: C_7  and  C_8 
REMARK    2  A    between atoms: N_9  and  N_10 
REMARK       I    between atoms: N_10  and  C_11 
REMARK    3  A    between atoms: C_11  and  C_12 
REMARK    4  A    between atoms: C_12  and  O_13 
REMARK    5  A    between atoms: O_13  and  C_14 
ROOT
HETATM    1  C   UNL     1      27.514  43.986  53.328  1.00  0.00     0.153 C 
HETATM    2  N   UNL     1      27.985  44.032  52.121  1.00  0.00    -0.184 NA
ENDROOT
BRANCH   2   3
HETATM    3  N   UNL     1      27.425  43.208  51.171  1.00  0.00    -0.246 N 
HETATM    4  C   UNL     1      26.961  43.597  49.918  1.00  0.00     0.261 C 
HETATM    5  O   UNL     1      27.055  44.721  49.428  1.00  0.00    -0.269 OA
HETATM    6  H   UNL     1      27.045  42.338  51.543  1.00  0.00     0.192 HD
BRANCH   4   7
HETATM    7  C   UNL     1      26.378  42.440  49.113  1.00  0.00     0.280 C 
BRANCH   7   8
HETATM    8  O   UNL     1      27.358  41.817  48.290  1.00  0.00    -0.342 OA
BRANCH   8   9
HETATM    9  C   UNL     1      27.696  40.536  48.643  1.00  0.00     0.069 A 
HETATM   10  C   UNL     1      26.650  39.766  49.156  1.00  0.00     0.037 A 
HETATM   11  C   UNL     1      26.868  38.442  49.546  1.00  0.00     0.003 A 
HETATM   12  C   UNL     1      28.140  37.885  49.434  1.00  0.00     0.000 A 
HETATM   13  C   UNL     1      29.191  38.651  48.936  1.00  0.00     0.003 A 
HETATM   14  C   UNL     1      28.972  39.975  48.543  1.00  0.00     0.037 A 
ENDBRANCH   8   9
ENDBRANCH   7   8
ENDBRANCH   4   7
ENDBRANCH   2   3
BRANCH   1  15
HETATM   15  C   UNL     1      28.095  44.793  54.388  1.00  0.00     0.018 A 
HETATM   16  C   UNL     1      27.688  46.045  54.830  1.00  0.00     0.018 A 
HETATM   17  C   UNL     1      26.576  46.927  54.389  1.00  0.00     0.069 C 
HETATM   18  N   UNL     1      28.527  46.417  55.852  1.00  0.00    -0.358 N 
HETATM   19  H   UNL     1      28.467  47.286  56.365  1.00  0.00     0.166 HD
HETATM   20  C   UNL     1      29.467  45.445  56.092  1.00  0.00     0.043 A 
HETATM   21  C   UNL     1      29.225  44.413  55.188  1.00  0.00     0.004 A 
HETATM   22  C   UNL     1      30.507  45.406  57.029  1.00  0.00     0.030 A 
HETATM   23  C   UNL     1      30.073  43.285  55.219  1.00  0.00     0.014 A 
HETATM   24  C   UNL     1      31.120  43.228  56.146  1.00  0.00     0.001 A 
HETATM   25  C   UNL     1      31.330  44.275  57.040  1.00  0.00     0.002 A 
ENDBRANCH   1  15
TORSDOF 5
ENDMDL
MODEL 8
REMARK VINA RESULT:      -8.3      5.585      9.252
REMARK  5 active torsions:
REMARK  status: ('A' for Active; 'I' for Inactive)
REMARK    1  A    between atoms: C_7  and  C_8 
REMARK    2  A    between atoms: N_9  and  N_10 
REMARK       I    between atoms: N_10  and  C_11 
REMARK    3  A    between atoms: C_11  and  C_12 
REMARK    4  A    between atoms: C_12  and  O_13 
REMARK    5  A    between atoms: O_13  and  C_14 
ROOT
HETATM    1  C   UNL     1      28.347  44.027  53.554  1.00  0.00     0.153 C 
HETATM    2  N   UNL     1      27.462  43.084  53.645  1.00  0.00    -0.184 NA
ENDROOT
BRANCH   2   3
HETATM    3  N   UNL     1      27.117  42.402  52.500  1.00  0.00    -0.246 N 
HETATM    4  C   UNL     1      27.806  41.326  51.947  1.00  0.00     0.261 C 
HETATM    5  O   UNL     1      28.782  40.762  52.437  1.00  0.00    -0.269 OA
HETATM    6  H   UNL     1      26.512  42.925  51.868  1.00  0.00     0.192 HD
BRANCH   4   7
HETATM    7  C   UNL     1      27.169  40.810  50.660  1.00  0.00     0.280 C 
BRANCH   7   8
HETATM    8  O   UNL     1      27.964  41.105  49.517  1.00  0.00    -0.342 OA
BRANCH   8   9
HETATM    9  C   UNL     1      28.169  40.058  48.655  1.00  0.00     0.069 A 
HETATM   10  C   UNL     1      28.930  39.006  49.170  1.00  0.00     0.037 A 
HETATM   11  C   UNL     1      29.202  37.879  48.390  1.00  0.00     0.003 A 
HETATM   12  C   UNL     1      28.722  37.805  47.084  1.00  0.00     0.000 A 
HETATM   13  C   UNL     1      27.974  38.856  46.560  1.00  0.00     0.003 A 
HETATM   14  C   UNL     1      27.699  39.982  47.342  1.00  0.00     0.037 A 
ENDBRANCH   8   9
ENDBRANCH   7   8
ENDBRANCH   4   7
ENDBRANCH   2   3
BRANCH   1  15
HETATM   15  C   UNL     1      28.717  44.818  54.717  1.00  0.00     0.018 A 
HETATM   16  C   UNL     1      28.186  46.031  55.130  1.00  0.00     0.018 A 
HETATM   17  C   UNL     1      27.111  46.880  54.551  1.00  0.00     0.069 C 
HETATM   18  N   UNL     1      28.838  46.401  56.281  1.00  0.00    -0.358 N 
HETATM   19  H   UNL     1      28.657  47.246  56.805  1.00  0.00     0.166 HD
HETATM   20  C   UNL     1      29.778  45.463  56.632  1.00  0.00     0.043 A 
HETATM   21  C   UNL     1      29.729  44.457  55.670  1.00  0.00     0.004 A 
HETATM   22  C   UNL     1      30.663  45.433  57.717  1.00  0.00     0.030 A 
HETATM   23  C   UNL     1      30.618  43.367  55.795  1.00  0.00     0.014 A 
HETATM   24  C   UNL     1      31.512  43.322  56.871  1.00  0.00     0.001 A 
HETATM   25  C   UNL     1      31.531  44.341  57.819  1.00  0.00     0.002 A 
ENDBRANCH   1  15
TORSDOF 5
ENDMDL
MODEL 9
REMARK VINA RESULT:      -7.9      3.082      9.297
REMARK  5 active torsions:
REMARK  status: ('A' for Active; 'I' for Inactive)
REMARK    1  A    between atoms: C_7  and  C_8 
REMARK    2  A    between atoms: N_9  and  N_10 
REMARK       I    between atoms: N_10  and  C_11 
REMARK    3  A    between atoms: C_11  and  C_12 
REMARK    4  A    between atoms: C_12  and  O_13 
REMARK    5  A    between atoms: O_13  and  C_14 
ROOT
HETATM    1  C   UNL     1      24.516  45.560  51.084  1.00  0.00     0.153 C 
HETATM    2  N   UNL     1      24.678  45.916  49.848  1.00  0.00    -0.184 NA
ENDROOT
BRANCH   2   3
HETATM    3  N   UNL     1      23.792  46.823  49.310  1.00  0.00    -0.246 N 
HETATM    4  C   UNL     1      23.975  48.200  49.229  1.00  0.00     0.261 C 
HETATM    5  O   UNL     1      24.991  48.815  49.548  1.00  0.00    -0.269 OA
HETATM    6  H   UNL     1      22.829  46.491  49.268  1.00  0.00     0.192 HD
BRANCH   4   7
HETATM    7  C   UNL     1      22.790  48.921  48.594  1.00  0.00     0.280 C 
BRANCH   7   8
HETATM    8  O   UNL     1      21.610  48.801  49.380  1.00  0.00    -0.342 OA
BRANCH   8   9
HETATM    9  C   UNL     1      20.741  49.860  49.304  1.00  0.00     0.069 A 
HETATM   10  C   UNL     1      19.597  49.746  50.097  1.00  0.00     0.037 A 
HETATM   11  C   UNL     1      18.639  50.763  50.111  1.00  0.00     0.003 A 
HETATM   12  C   UNL     1      18.817  51.896  49.320  1.00  0.00     0.000 A 
HETATM   13  C   UNL     1      19.948  52.010  48.517  1.00  0.00     0.003 A 
HETATM   14  C   UNL     1      20.908  50.994  48.505  1.00  0.00     0.037 A 
ENDBRANCH   8   9
ENDBRANCH   7   8
ENDBRANCH   4   7
ENDBRANCH   2   3
BRANCH   1  15
HETATM   15  C   UNL     1      25.387  44.570  51.696  1.00  0.00     0.018 A 
HETATM   16  C   UNL     1      25.501  43.222  51.384  1.00  0.00     0.018 A 
HETATM   17  C   UNL     1      24.805  42.388  50.368  1.00  0.00     0.069 C 
HETATM   18  N   UNL     1      26.451  42.681  52.215  1.00  0.00    -0.358 N 
HETATM   19  H   UNL     1      26.741  41.713  52.213  1.00  0.00     0.166 HD
HETATM   20  C   UNL     1      26.962  43.637  53.060  1.00  0.00     0.043 A 
HETATM   21  C   UNL     1      26.314  44.833  52.760  1.00  0.00     0.004 A 
HETATM   22  C   UNL     1      27.937  43.530  54.059  1.00  0.00     0.030 A 
HETATM   23  C   UNL     1      26.654  45.983  53.506  1.00  0.00     0.014 A 
HETATM   24  C   UNL     1      27.624  45.896  54.511  1.00  0.00     0.001 A 
HETATM   25  C   UNL     1      28.257  44.686  54.780  1.00  0.00     0.002 A 
ENDBRANCH   1  15
TORSDOF 5
ENDMDL
MODEL 10
REMARK VINA RESULT:      -7.5      2.460      3.494
REMARK  5 active torsions:
REMARK  status: ('A' for Active; 'I' for Inactive)
REMARK    1  A    between atoms: C_7  and  C_8 
REMARK    2  A    between atoms: N_9  and  N_10 
REMARK       I    between atoms: N_10  and  C_11 
REMARK    3  A    between atoms: C_11  and  C_12 
REMARK    4  A    between atoms: C_12  and  O_13 
REMARK    5  A    between atoms: O_13  and  C_14 
ROOT
HETATM    1  C   UNL     1      23.713  46.185  48.993  1.00  0.00     0.153 C 
HETATM    2  N   UNL     1      23.666  45.443  50.054  1.00  0.00    -0.184 NA
ENDROOT
BRANCH   2   3
HETATM    3  N   UNL     1      24.777  44.696  50.377  1.00  0.00    -0.246 N 
HETATM    4  C   UNL     1      25.098  44.207  51.640  1.00  0.00     0.261 C 
HETATM    5  O   UNL     1      24.398  44.292  52.648  1.00  0.00    -0.269 OA
HETATM    6  H   UNL     1      25.550  44.790  49.719  1.00  0.00     0.192 HD
BRANCH   4   7
HETATM    7  C   UNL     1      26.412  43.434  51.663  1.00  0.00     0.280 C 
BRANCH   7   8
HETATM    8  O   UNL     1      27.537  44.299  51.776  1.00  0.00    -0.342 OA
BRANCH   8   9
HETATM    9  C   UNL     1      28.467  43.937  52.716  1.00  0.00     0.069 A 
HETATM   10  C   UNL     1      28.382  44.624  53.929  1.00  0.00     0.037 A 
HETATM   11  C   UNL     1      29.271  44.341  54.969  1.00  0.00     0.003 A 
HETATM   12  C   UNL     1      30.258  43.374  54.796  1.00  0.00     0.000 A 
HETATM   13  C   UNL     1      30.358  42.694  53.585  1.00  0.00     0.003 A 
HETATM   14  C   UNL     1      29.466  42.976  52.545  1.00  0.00     0.037 A 
ENDBRANCH   8   9
ENDBRANCH   7   8
ENDBRANCH   4   7
ENDBRANCH   2   3
BRANCH   1  15
HETATM   15  C   UNL     1      22.557  46.958  48.570  1.00  0.00     0.018 A 
HETATM   16  C   UNL     1      21.352  46.487  48.066  1.00  0.00     0.018 A 
HETATM   17  C   UNL     1      20.870  45.105  47.807  1.00  0.00     0.069 C 
HETATM   18  N   UNL     1      20.555  47.576  47.809  1.00  0.00    -0.358 N 
HETATM   19  H   UNL     1      19.618  47.533  47.433  1.00  0.00     0.166 HD
HETATM   20  C   UNL     1      21.203  48.743  48.133  1.00  0.00     0.043 A 
HETATM   21  C   UNL     1      22.462  48.390  48.612  1.00  0.00     0.004 A 
HETATM   22  C   UNL     1      20.773  50.072  48.033  1.00  0.00     0.030 A 
HETATM   23  C   UNL     1      23.342  49.422  49.005  1.00  0.00     0.014 A 
HETATM   24  C   UNL     1      22.931  50.757  48.911  1.00  0.00     0.001 A 
HETATM   25  C   UNL     1      21.663  51.075  48.433  1.00  0.00     0.002 A 
ENDBRANCH   1  15
TORSDOF 5
ENDMDL
