MODEL 1
REMARK VINA RESULT:      -8.7      0.000      0.000
REMARK  2 active torsions:
REMARK  status: ('A' for Active; 'I' for Inactive)
REMARK    1  A    between atoms: N_2  and  C_3 
REMARK       I    between atoms: N_4  and  C_5 
REMARK       I    between atoms: C_5  and  N_6 
REMARK    2  A    between atoms: C_9  and  C_10 
ROOT
HETATM    1  C   UNL     1      28.339  41.454  51.480  1.00  0.00     0.703 A 
HETATM    2  N   UNL     1      27.141  42.167  51.500  1.00  0.00    -0.141 N 
HETATM    3  C   UNL     1      26.001  41.849  50.763  1.00  0.00     0.188 C 
HETATM    4  N   UNL     1      26.202  41.136  49.625  1.00  0.00    -0.272 NA
HETATM    5  N   UNL     1      24.791  42.187  51.079  1.00  0.00    -0.273 NA
HETATM    6  H   UNL     1      24.170  41.876  50.329  1.00  0.00     0.189 HD
HETATM    7  C   UNL     1      26.963  43.318  52.430  1.00  0.00     0.179 A 
HETATM    8  C   UNL     1      28.120  43.569  53.390  1.00  0.00    -0.001 A 
HETATM    9  C   UNL     1      29.263  42.780  53.308  1.00  0.00     0.058 A 
HETATM   10  N   UNL     1      29.339  41.785  52.340  1.00  0.00    -0.190 N 
HETATM   11  C   UNL     1      28.060  44.597  54.352  1.00  0.00     0.035 A 
HETATM   12  C   UNL     1      29.140  44.836  55.200  1.00  0.00     0.034 A 
HETATM   13 CL   UNL     1      29.067  46.117  56.343  1.00  0.00    -0.084 Cl
HETATM   14  C   UNL     1      30.280  44.046  55.117  1.00  0.00     0.026 A 
HETATM   15  C   UNL     1      30.340  43.020  54.173  1.00  0.00     0.032 A 
HETATM   16  H   UNL     1      27.089  40.619  49.670  1.00  0.00     0.127 HD
HETATM   17  H   UNL     1      25.445  40.534  49.340  1.00  0.00     0.127 HD
HETATM   18  H   UNL     1      30.165  41.207  52.364  1.00  0.00     0.184 HD
ENDROOT
BRANCH   1  19
HETATM   19  N   UNL     1      28.529  40.439  50.678  1.00  0.00    -0.117 NA
HETATM   20  H   UNL     1      29.041  40.747  49.850  1.00  0.00     0.206 HD
ENDBRANCH   1  19
BRANCH   7  21
HETATM   21  C   UNL     1      26.633  44.607  51.658  1.00  0.00    -0.030 A 
HETATM   22  C   UNL     1      27.298  44.887  50.450  1.00  0.00     0.009 A 
HETATM   23  C   UNL     1      26.994  46.033  49.715  1.00  0.00     0.001 A 
HETATM   24  C   UNL     1      26.023  46.917  50.180  1.00  0.00     0.000 A 
HETATM   25  C   UNL     1      25.361  46.659  51.380  1.00  0.00     0.001 A 
HETATM   26  C   UNL     1      25.663  45.512  52.118  1.00  0.00     0.009 A 
ENDBRANCH   7  21
TORSDOF 2
ENDMDL
MODEL 2
REMARK VINA RESULT:      -7.9      1.692      2.820
REMARK  2 active torsions:
REMARK  status: ('A' for Active; 'I' for Inactive)
REMARK    1  A    between atoms: N_2  and  C_3 
REMARK       I    between atoms: N_4  and  C_5 
REMARK       I    between atoms: C_5  and  N_6 
REMARK    2  A    between atoms: C_9  and  C_10 
ROOT
HETATM    1  C   UNL     1      25.362  41.421  49.848  1.00  0.00     0.703 A 
HETATM    2  N   UNL     1      24.789  42.571  50.388  1.00  0.00    -0.141 N 
HETATM    3  C   UNL     1      23.534  43.079  50.056  1.00  0.00     0.188 C 
HETATM    4  N   UNL     1      23.059  42.748  48.827  1.00  0.00    -0.272 NA
HETATM    5  N   UNL     1      22.810  43.835  50.819  1.00  0.00    -0.273 NA
HETATM    6  H   UNL     1      21.975  44.106  50.294  1.00  0.00     0.189 HD
HETATM    7  C   UNL     1      25.477  43.316  51.480  1.00  0.00     0.179 A 
HETATM    8  C   UNL     1      26.757  42.675  52.003  1.00  0.00    -0.001 A 
HETATM    9  C   UNL     1      27.231  41.508  51.413  1.00  0.00     0.058 A 
HETATM   10  N   UNL     1      26.538  40.952  50.344  1.00  0.00    -0.190 N 
HETATM   11  C   UNL     1      27.480  43.253  53.066  1.00  0.00     0.035 A 
HETATM   12  C   UNL     1      28.667  42.675  53.510  1.00  0.00     0.034 A 
HETATM   13 CL   UNL     1      29.558  43.411  54.783  1.00  0.00    -0.084 Cl
HETATM   14  C   UNL     1      29.138  41.508  52.921  1.00  0.00     0.026 A 
HETATM   15  C   UNL     1      28.420  40.927  51.875  1.00  0.00     0.032 A 
HETATM   16  H   UNL     1      23.502  41.887  48.483  1.00  0.00     0.127 HD
HETATM   17  H   UNL     1      22.056  42.701  48.738  1.00  0.00     0.127 HD
HETATM   18  H   UNL     1      26.894  40.076  49.994  1.00  0.00     0.184 HD
ENDROOT
BRANCH   1  19
HETATM   19  N   UNL     1      24.786  40.743  48.890  1.00  0.00    -0.117 NA
HETATM   20  H   UNL     1      24.407  41.387  48.193  1.00  0.00     0.206 HD
ENDBRANCH   1  19
BRANCH   7  21
HETATM   21  C   UNL     1      25.749  44.773  51.070  1.00  0.00    -0.030 A 
HETATM   22  C   UNL     1      25.243  45.825  51.856  1.00  0.00     0.009 A 
HETATM   23  C   UNL     1      25.503  47.155  51.523  1.00  0.00     0.001 A 
HETATM   24  C   UNL     1      26.268  47.451  50.397  1.00  0.00     0.000 A 
HETATM   25  C   UNL     1      26.768  46.421  49.602  1.00  0.00     0.001 A 
HETATM   26  C   UNL     1      26.510  45.088  49.933  1.00  0.00     0.009 A 
ENDBRANCH   7  21
TORSDOF 2
ENDMDL
MODEL 3
REMARK VINA RESULT:      -7.8      2.181      3.205
REMARK  2 active torsions:
REMARK  status: ('A' for Active; 'I' for Inactive)
REMARK    1  A    between atoms: N_2  and  C_3 
REMARK       I    between atoms: N_4  and  C_5 
REMARK       I    between atoms: C_5  and  N_6 
REMARK    2  A    between atoms: C_9  and  C_10 
ROOT
HETATM    1  C   UNL     1      26.915  43.722  51.177  1.00  0.00     0.703 A 
HETATM    2  N   UNL     1      25.860  44.492  50.692  1.00  0.00    -0.141 N 
HETATM    3  C   UNL     1      25.055  44.162  49.603  1.00  0.00     0.188 C 
HETATM    4  N   UNL     1      25.606  43.334  48.678  1.00  0.00    -0.272 NA
HETATM    5  N   UNL     1      23.847  44.590  49.412  1.00  0.00    -0.273 NA
HETATM    6  H   UNL     1      23.527  44.240  48.506  1.00  0.00     0.189 HD
HETATM    7  C   UNL     1      25.444  45.734  51.402  1.00  0.00     0.179 A 
HETATM    8  C   UNL     1      26.177  46.018  52.708  1.00  0.00    -0.001 A 
HETATM    9  C   UNL     1      27.198  45.168  53.120  1.00  0.00     0.058 A 
HETATM   10  N   UNL     1      27.547  44.083  52.325  1.00  0.00    -0.190 N 
HETATM   11  C   UNL     1      25.847  47.135  53.501  1.00  0.00     0.035 A 
HETATM   12  C   UNL     1      26.549  47.400  54.676  1.00  0.00     0.034 A 
HETATM   13 CL   UNL     1      26.161  48.787  55.614  1.00  0.00    -0.084 Cl
HETATM   14  C   UNL     1      27.568  46.550  55.086  1.00  0.00     0.026 A 
HETATM   15  C   UNL     1      27.890  45.436  54.309  1.00  0.00     0.032 A 
HETATM   16  H   UNL     1      26.366  42.780  49.091  1.00  0.00     0.127 HD
HETATM   17  H   UNL     1      24.962  42.747  48.170  1.00  0.00     0.127 HD
HETATM   18  H   UNL     1      28.253  43.468  52.701  1.00  0.00     0.184 HD
ENDROOT
BRANCH   1  19
HETATM   19  N   UNL     1      27.306  42.626  50.579  1.00  0.00    -0.117 NA
HETATM   20  H   UNL     1      28.299  42.694  50.350  1.00  0.00     0.206 HD
ENDBRANCH   1  19
BRANCH   7  21
HETATM   21  C   UNL     1      25.533  46.958  50.474  1.00  0.00    -0.030 A 
HETATM   22  C   UNL     1      24.362  47.653  50.121  1.00  0.00     0.009 A 
HETATM   23  C   UNL     1      24.420  48.784  49.306  1.00  0.00     0.001 A 
HETATM   24  C   UNL     1      25.649  49.235  48.832  1.00  0.00     0.000 A 
HETATM   25  C   UNL     1      26.819  48.553  49.165  1.00  0.00     0.001 A 
HETATM   26  C   UNL     1      26.765  47.419  49.980  1.00  0.00     0.009 A 
ENDBRANCH   7  21
TORSDOF 2
ENDMDL
MODEL 4
REMARK VINA RESULT:      -7.6     12.912     14.075
REMARK  2 active torsions:
REMARK  status: ('A' for Active; 'I' for Inactive)
REMARK    1  A    between atoms: N_2  and  C_3 
REMARK       I    between atoms: N_4  and  C_5 
REMARK       I    between atoms: C_5  and  N_6 
REMARK    2  A    between atoms: C_9  and  C_10 
ROOT
HETATM    1  C   UNL     1      27.937  51.376  41.008  1.00  0.00     0.703 A 
HETATM    2  N   UNL     1      28.105  50.545  39.901  1.00  0.00    -0.141 N 
HETATM    3  C   UNL     1      27.155  50.325  38.906  1.00  0.00     0.188 C 
HETATM    4  N   UNL     1      25.858  50.516  39.262  1.00  0.00    -0.272 NA
HETATM    5  N   UNL     1      27.417  49.950  37.694  1.00  0.00    -0.273 NA
HETATM    6  H   UNL     1      26.529  49.807  37.208  1.00  0.00     0.189 HD
HETATM    7  C   UNL     1      29.415  49.880  39.649  1.00  0.00     0.179 A 
HETATM    8  C   UNL     1      30.536  50.257  40.611  1.00  0.00    -0.001 A 
HETATM    9  C   UNL     1      30.271  51.120  41.669  1.00  0.00     0.058 A 
HETATM   10  N   UNL     1      28.983  51.612  41.843  1.00  0.00    -0.190 N 
HETATM   11  C   UNL     1      31.836  49.735  40.456  1.00  0.00     0.035 A 
HETATM   12  C   UNL     1      32.842  50.061  41.363  1.00  0.00     0.034 A 
HETATM   13 CL   UNL     1      34.413  49.388  41.183  1.00  0.00    -0.084 Cl
HETATM   14  C   UNL     1      32.575  50.924  42.419  1.00  0.00     0.026 A 
HETATM   15  C   UNL     1      31.292  51.453  42.570  1.00  0.00     0.032 A 
HETATM   16  H   UNL     1      25.790  51.147  40.071  1.00  0.00     0.127 HD
HETATM   17  H   UNL     1      25.234  50.804  38.524  1.00  0.00     0.127 HD
HETATM   18  H   UNL     1      28.862  52.279  42.591  1.00  0.00     0.184 HD
ENDROOT
BRANCH   1  19
HETATM   19  N   UNL     1      26.803  51.976  41.258  1.00  0.00    -0.117 NA
HETATM   20  H   UNL     1      26.581  51.890  42.251  1.00  0.00     0.206 HD
ENDBRANCH   1  19
BRANCH   7  21
HETATM   21  C   UNL     1      29.258  48.351  39.600  1.00  0.00    -0.030 A 
HETATM   22  C   UNL     1      28.527  47.691  40.605  1.00  0.00     0.009 A 
HETATM   23  C   UNL     1      28.343  46.308  40.565  1.00  0.00     0.001 A 
HETATM   24  C   UNL     1      28.891  45.566  39.522  1.00  0.00     0.000 A 
HETATM   25  C   UNL     1      29.627  46.202  38.523  1.00  0.00     0.001 A 
HETATM   26  C   UNL     1      29.812  47.587  38.559  1.00  0.00     0.009 A 
ENDBRANCH   7  21
TORSDOF 2
ENDMDL
MODEL 5
REMARK VINA RESULT:      -7.6      3.166      5.572
REMARK  2 active torsions:
REMARK  status: ('A' for Active; 'I' for Inactive)
REMARK    1  A    between atoms: N_2  and  C_3 
REMARK       I    between atoms: N_4  and  C_5 
REMARK       I    between atoms: C_5  and  N_6 
REMARK    2  A    between atoms: C_9  and  C_10 
ROOT
HETATM    1  C   UNL     1      26.029  43.625  49.509  1.00  0.00     0.703 A 
HETATM    2  N   UNL     1      26.080  43.301  50.864  1.00  0.00    -0.141 N 
HETATM    3  C   UNL     1      25.436  43.998  51.885  1.00  0.00     0.188 C 
HETATM    4  N   UNL     1      25.163  45.305  51.638  1.00  0.00    -0.272 NA
HETATM    5  N   UNL     1      25.096  43.498  53.031  1.00  0.00    -0.273 NA
HETATM    6  H   UNL     1      24.703  44.251  53.600  1.00  0.00     0.189 HD
HETATM    7  C   UNL     1      26.785  42.069  51.319  1.00  0.00     0.179 A 
HETATM    8  C   UNL     1      27.330  41.179  50.209  1.00  0.00    -0.001 A 
HETATM    9  C   UNL     1      27.202  41.579  48.883  1.00  0.00     0.058 A 
HETATM   10  N   UNL     1      26.592  42.794  48.592  1.00  0.00    -0.190 N 
HETATM   11  C   UNL     1      27.977  39.962  50.501  1.00  0.00     0.035 A 
HETATM   12  C   UNL     1      28.501  39.175  49.477  1.00  0.00     0.034 A 
HETATM   13 CL   UNL     1      29.320  37.711  49.851  1.00  0.00    -0.084 Cl
HETATM   14  C   UNL     1      28.371  39.577  48.153  1.00  0.00     0.026 A 
HETATM   15  C   UNL     1      27.721  40.776  47.858  1.00  0.00     0.032 A 
HETATM   16  H   UNL     1      25.121  45.486  50.627  1.00  0.00     0.127 HD
HETATM   17  H   UNL     1      24.356  45.686  52.109  1.00  0.00     0.127 HD
HETATM   18  H   UNL     1      26.474  43.006  47.613  1.00  0.00     0.184 HD
ENDROOT
BRANCH   1  19
HETATM   19  N   UNL     1      25.418  44.696  49.075  1.00  0.00    -0.117 NA
HETATM   20  H   UNL     1      26.107  45.416  48.848  1.00  0.00     0.206 HD
ENDBRANCH   1  19
BRANCH   7  21
HETATM   21  C   UNL     1      27.905  42.409  52.317  1.00  0.00    -0.030 A 
HETATM   22  C   UNL     1      27.888  41.843  53.605  1.00  0.00     0.009 A 
HETATM   23  C   UNL     1      28.909  42.111  54.517  1.00  0.00     0.001 A 
HETATM   24  C   UNL     1      29.959  42.951  54.156  1.00  0.00     0.000 A 
HETATM   25  C   UNL     1      29.986  43.529  52.887  1.00  0.00     0.001 A 
HETATM   26  C   UNL     1      28.965  43.263  51.970  1.00  0.00     0.009 A 
ENDBRANCH   7  21
TORSDOF 2
ENDMDL
MODEL 6
REMARK VINA RESULT:      -7.3     12.522     13.381
REMARK  2 active torsions:
REMARK  status: ('A' for Active; 'I' for Inactive)
REMARK    1  A    between atoms: N_2  and  C_3 
REMARK       I    between atoms: N_4  and  C_5 
REMARK       I    between atoms: C_5  and  N_6 
REMARK    2  A    between atoms: C_9  and  C_10 
ROOT
HETATM    1  C   UNL     1      29.897  47.532  40.601  1.00  0.00     0.703 A 
HETATM    2  N   UNL     1      29.240  48.684  41.029  1.00  0.00    -0.141 N 
HETATM    3  C   UNL     1      27.858  48.829  41.143  1.00  0.00     0.188 C 
HETATM    4  N   UNL     1      27.103  48.022  40.354  1.00  0.00    -0.272 NA
HETATM    5  N   UNL     1      27.259  49.668  41.928  1.00  0.00    -0.273 NA
HETATM    6  H   UNL     1      26.253  49.599  41.756  1.00  0.00     0.189 HD
HETATM    7  C   UNL     1      30.017  49.863  41.507  1.00  0.00     0.179 A 
HETATM    8  C   UNL     1      31.526  49.665  41.581  1.00  0.00    -0.001 A 
HETATM    9  C   UNL     1      32.083  48.463  41.155  1.00  0.00     0.058 A 
HETATM   10  N   UNL     1      31.254  47.467  40.653  1.00  0.00    -0.190 N 
HETATM   11  C   UNL     1      32.372  50.685  42.060  1.00  0.00     0.035 A 
HETATM   12  C   UNL     1      33.753  50.502  42.090  1.00  0.00     0.034 A 
HETATM   13 CL   UNL     1      34.777  51.768  42.642  1.00  0.00    -0.084 Cl
HETATM   14  C   UNL     1      34.307  49.301  41.665  1.00  0.00     0.026 A 
HETATM   15  C   UNL     1      33.472  48.284  41.200  1.00  0.00     0.032 A 
HETATM   16  H   UNL     1      27.629  47.182  40.080  1.00  0.00     0.127 HD
HETATM   17  H   UNL     1      26.192  47.780  40.711  1.00  0.00     0.127 HD
HETATM   18  H   UNL     1      31.704  46.596  40.414  1.00  0.00     0.184 HD
ENDROOT
BRANCH   1  19
HETATM   19  N   UNL     1      29.247  46.480  40.176  1.00  0.00    -0.117 NA
HETATM   20  H   UNL     1      29.202  45.781  40.920  1.00  0.00     0.206 HD
ENDBRANCH   1  19
BRANCH   7  21
HETATM   21  C   UNL     1      29.692  51.114  40.674  1.00  0.00    -0.030 A 
HETATM   22  C   UNL     1      29.771  51.059  39.270  1.00  0.00     0.009 A 
HETATM   23  C   UNL     1      29.451  52.171  38.491  1.00  0.00     0.001 A 
HETATM   24  C   UNL     1      29.049  53.355  39.105  1.00  0.00     0.000 A 
HETATM   25  C   UNL     1      28.974  53.430  40.495  1.00  0.00     0.001 A 
HETATM   26  C   UNL     1      29.294  52.318  41.279  1.00  0.00     0.009 A 
ENDBRANCH   7  21
TORSDOF 2
ENDMDL
MODEL 7
REMARK VINA RESULT:      -7.1     15.893     17.665
REMARK  2 active torsions:
REMARK  status: ('A' for Active; 'I' for Inactive)
REMARK    1  A    between atoms: N_2  and  C_3 
REMARK       I    between atoms: N_4  and  C_5 
REMARK       I    between atoms: C_5  and  N_6 
REMARK    2  A    between atoms: C_9  and  C_10 
ROOT
HETATM    1  C   UNL     1      40.219  45.559  64.280  1.00  0.00     0.703 A 
HETATM    2  N   UNL     1      40.529  44.302  64.797  1.00  0.00    -0.141 N 
HETATM    3  C   UNL     1      41.817  43.807  64.995  1.00  0.00     0.188 C 
HETATM    4  N   UNL     1      42.791  44.340  64.214  1.00  0.00    -0.272 NA
HETATM    5  N   UNL     1      42.138  42.887  65.849  1.00  0.00    -0.273 NA
HETATM    6  H   UNL     1      43.132  42.681  65.731  1.00  0.00     0.189 HD
HETATM    7  C   UNL     1      39.448  43.399  65.283  1.00  0.00     0.179 A 
HETATM    8  C   UNL     1      38.043  43.989  65.262  1.00  0.00    -0.001 A 
HETATM    9  C   UNL     1      37.843  45.267  64.752  1.00  0.00     0.058 A 
HETATM   10  N   UNL     1      38.926  45.981  64.253  1.00  0.00    -0.190 N 
HETATM   11  C   UNL     1      36.937  43.256  65.738  1.00  0.00     0.035 A 
HETATM   12  C   UNL     1      35.654  43.796  65.682  1.00  0.00     0.034 A 
HETATM   13 CL   UNL     1      34.309  42.877  66.231  1.00  0.00    -0.084 Cl
HETATM   14  C   UNL     1      35.456  45.074  65.172  1.00  0.00     0.026 A 
HETATM   15  C   UNL     1      36.550  45.807  64.710  1.00  0.00     0.032 A 
HETATM   16  H   UNL     1      42.519  45.271  63.874  1.00  0.00     0.127 HD
HETATM   17  H   UNL     1      43.718  44.356  64.611  1.00  0.00     0.127 HD
HETATM   18  H   UNL     1      38.733  46.924  63.950  1.00  0.00     0.184 HD
ENDROOT
BRANCH   1  19
HETATM   19  N   UNL     1      41.142  46.377  63.846  1.00  0.00    -0.117 NA
HETATM   20  H   UNL     1      41.227  47.169  64.487  1.00  0.00     0.206 HD
ENDBRANCH   1  19
BRANCH   7  21
HETATM   21  C   UNL     1      39.465  42.059  64.527  1.00  0.00    -0.030 A 
HETATM   22  C   UNL     1      39.659  40.860  65.237  1.00  0.00     0.009 A 
HETATM   23  C   UNL     1      39.648  39.629  64.578  1.00  0.00     0.001 A 
HETATM   24  C   UNL     1      39.445  39.582  63.201  1.00  0.00     0.000 A 
HETATM   25  C   UNL     1      39.261  40.761  62.481  1.00  0.00     0.001 A 
HETATM   26  C   UNL     1      39.272  41.995  63.137  1.00  0.00     0.009 A 
ENDBRANCH   7  21
TORSDOF 2
ENDMDL
MODEL 8
REMARK VINA RESULT:      -7.0     15.687     18.225
REMARK  2 active torsions:
REMARK  status: ('A' for Active; 'I' for Inactive)
REMARK    1  A    between atoms: N_2  and  C_3 
REMARK       I    between atoms: N_4  and  C_5 
REMARK       I    between atoms: C_5  and  N_6 
REMARK    2  A    between atoms: C_9  and  C_10 
ROOT
HETATM    1  C   UNL     1      38.034  44.807  63.535  1.00  0.00     0.703 A 
HETATM    2  N   UNL     1      38.878  45.064  64.613  1.00  0.00    -0.141 N 
HETATM    3  C   UNL     1      38.875  46.227  65.381  1.00  0.00     0.188 C 
HETATM    4  N   UNL     1      38.397  47.344  64.776  1.00  0.00    -0.272 NA
HETATM    5  N   UNL     1      39.297  46.315  66.603  1.00  0.00    -0.273 NA
HETATM    6  H   UNL     1      39.235  47.294  66.889  1.00  0.00     0.189 HD
HETATM    7  C   UNL     1      39.822  44.017  65.098  1.00  0.00     0.179 A 
HETATM    8  C   UNL     1      39.711  42.664  64.405  1.00  0.00    -0.001 A 
HETATM    9  C   UNL     1      38.813  42.503  63.355  1.00  0.00     0.058 A 
HETATM   10  N   UNL     1      38.042  43.583  62.943  1.00  0.00    -0.190 N 
HETATM   11  C   UNL     1      40.514  41.575  64.799  1.00  0.00     0.035 A 
HETATM   12  C   UNL     1      40.425  40.354  64.134  1.00  0.00     0.034 A 
HETATM   13 CL   UNL     1      41.436  39.045  64.601  1.00  0.00    -0.084 Cl
HETATM   14  C   UNL     1      39.526  40.194  63.086  1.00  0.00     0.026 A 
HETATM   15  C   UNL     1      38.722  41.267  62.699  1.00  0.00     0.032 A 
HETATM   16  H   UNL     1      37.768  47.099  64.000  1.00  0.00     0.127 HD
HETATM   17  H   UNL     1      37.974  48.030  65.382  1.00  0.00     0.127 HD
HETATM   18  H   UNL     1      37.367  43.394  62.217  1.00  0.00     0.184 HD
ENDROOT
BRANCH   1  19
HETATM   19  N   UNL     1      37.193  45.702  63.084  1.00  0.00    -0.117 NA
HETATM   20  H   UNL     1      37.448  46.624  63.443  1.00  0.00     0.206 HD
ENDBRANCH   1  19
BRANCH   7  21
HETATM   21  C   UNL     1      41.276  44.516  65.044  1.00  0.00    -0.030 A 
HETATM   22  C   UNL     1      42.094  44.406  66.184  1.00  0.00     0.009 A 
HETATM   23  C   UNL     1      43.426  44.822  66.152  1.00  0.00     0.001 A 
HETATM   24  C   UNL     1      43.956  45.357  64.981  1.00  0.00     0.000 A 
HETATM   25  C   UNL     1      43.157  45.482  63.845  1.00  0.00     0.001 A 
HETATM   26  C   UNL     1      41.823  45.066  63.874  1.00  0.00     0.009 A 
ENDBRANCH   7  21
TORSDOF 2
ENDMDL
MODEL 9
REMARK VINA RESULT:      -6.8      3.594      5.360
REMARK  2 active torsions:
REMARK  status: ('A' for Active; 'I' for Inactive)
REMARK    1  A    between atoms: N_2  and  C_3 
REMARK       I    between atoms: N_4  and  C_5 
REMARK       I    between atoms: C_5  and  N_6 
REMARK    2  A    between atoms: C_9  and  C_10 
ROOT
HETATM    1  C   UNL     1      28.543  39.814  50.793  1.00  0.00     0.703 A 
HETATM    2  N   UNL     1      27.612  39.475  49.812  1.00  0.00    -0.141 N 
HETATM    3  C   UNL     1      27.366  38.185  49.346  1.00  0.00     0.188 C 
HETATM    4  N   UNL     1      28.386  37.297  49.471  1.00  0.00    -0.272 NA
HETATM    5  N   UNL     1      26.258  37.787  48.804  1.00  0.00    -0.273 NA
HETATM    6  H   UNL     1      26.385  36.818  48.502  1.00  0.00     0.189 HD
HETATM    7  C   UNL     1      26.708  40.512  49.239  1.00  0.00     0.179 A 
HETATM    8  C   UNL     1      26.817  41.895  49.869  1.00  0.00    -0.001 A 
HETATM    9  C   UNL     1      27.761  42.124  50.865  1.00  0.00     0.058 A 
HETATM   10  N   UNL     1      28.603  41.090  51.258  1.00  0.00    -0.190 N 
HETATM   11  C   UNL     1      25.986  42.954  49.452  1.00  0.00     0.035 A 
HETATM   12  C   UNL     1      26.119  44.222  50.014  1.00  0.00     0.034 A 
HETATM   13 CL   UNL     1      25.125  45.514  49.468  1.00  0.00    -0.084 Cl
HETATM   14  C   UNL     1      27.063  44.448  51.009  1.00  0.00     0.026 A 
HETATM   15  C   UNL     1      27.880  43.399  51.433  1.00  0.00     0.032 A 
HETATM   16  H   UNL     1      29.032  37.586  50.217  1.00  0.00     0.127 HD
HETATM   17  H   UNL     1      28.120  36.329  49.576  1.00  0.00     0.127 HD
HETATM   18  H   UNL     1      29.228  41.296  52.023  1.00  0.00     0.184 HD
ENDROOT
BRANCH   1  19
HETATM   19  N   UNL     1      29.350  38.930  51.318  1.00  0.00    -0.117 NA
HETATM   20  H   UNL     1      30.319  39.218  51.169  1.00  0.00     0.206 HD
ENDBRANCH   1  19
BRANCH   7  21
HETATM   21  C   UNL     1      26.882  40.615  47.714  1.00  0.00    -0.030 A 
HETATM   22  C   UNL     1      25.759  40.497  46.874  1.00  0.00     0.009 A 
HETATM   23  C   UNL     1      25.886  40.619  45.490  1.00  0.00     0.001 A 
HETATM   24  C   UNL     1      27.136  40.857  44.926  1.00  0.00     0.000 A 
HETATM   25  C   UNL     1      28.261  40.967  45.743  1.00  0.00     0.001 A 
HETATM   26  C   UNL     1      28.138  40.846  47.130  1.00  0.00     0.009 A 
ENDBRANCH   7  21
TORSDOF 2
ENDMDL
MODEL 10
REMARK VINA RESULT:      -6.8      3.643      5.316
REMARK  2 active torsions:
REMARK  status: ('A' for Active; 'I' for Inactive)
REMARK    1  A    between atoms: N_2  and  C_3 
REMARK       I    between atoms: N_4  and  C_5 
REMARK       I    between atoms: C_5  and  N_6 
REMARK    2  A    between atoms: C_9  and  C_10 
ROOT
HETATM    1  C   UNL     1      27.602  41.052  52.282  1.00  0.00     0.703 A 
HETATM    2  N   UNL     1      27.237  42.317  51.826  1.00  0.00    -0.141 N 
HETATM    3  C   UNL     1      27.043  43.439  52.629  1.00  0.00     0.188 C 
HETATM    4  N   UNL     1      26.707  43.200  53.923  1.00  0.00    -0.272 NA
HETATM    5  N   UNL     1      27.150  44.668  52.232  1.00  0.00    -0.273 NA
HETATM    6  H   UNL     1      26.891  45.276  53.012  1.00  0.00     0.189 HD
HETATM    7  C   UNL     1      27.118  42.587  50.364  1.00  0.00     0.179 A 
HETATM    8  C   UNL     1      27.517  41.433  49.452  1.00  0.00    -0.001 A 
HETATM    9  C   UNL     1      27.895  40.216  50.009  1.00  0.00     0.058 A 
HETATM   10  N   UNL     1      27.889  40.066  51.391  1.00  0.00    -0.190 N 
HETATM   11  C   UNL     1      27.495  41.572  48.049  1.00  0.00     0.035 A 
HETATM   12  C   UNL     1      27.829  40.498  47.227  1.00  0.00     0.034 A 
HETATM   13 CL   UNL     1      27.761  40.670  45.518  1.00  0.00    -0.084 Cl
HETATM   14  C   UNL     1      28.208  39.283  47.786  1.00  0.00     0.026 A 
HETATM   15  C   UNL     1      28.242  39.145  49.174  1.00  0.00     0.032 A 
HETATM   16  H   UNL     1      27.013  42.262  54.212  1.00  0.00     0.127 HD
HETATM   17  H   UNL     1      26.995  43.898  54.592  1.00  0.00     0.127 HD
HETATM   18  H   UNL     1      28.228  39.183  51.741  1.00  0.00     0.184 HD
ENDROOT
BRANCH   1  19
HETATM   19  N   UNL     1      27.718  40.781  53.556  1.00  0.00    -0.117 NA
HETATM   20  H   UNL     1      28.173  41.561  54.033  1.00  0.00     0.206 HD
ENDBRANCH   1  19
BRANCH   7  21
HETATM   21  C   UNL     1      25.705  43.076  50.006  1.00  0.00    -0.030 A 
HETATM   22  C   UNL     1      24.586  42.303  50.368  1.00  0.00     0.009 A 
HETATM   23  C   UNL     1      23.292  42.740  50.082  1.00  0.00     0.001 A 
HETATM   24  C   UNL     1      23.099  43.954  49.427  1.00  0.00     0.000 A 
HETATM   25  C   UNL     1      24.197  44.728  49.053  1.00  0.00     0.001 A 
HETATM   26  C   UNL     1      25.494  44.293  49.337  1.00  0.00     0.009 A 
ENDBRANCH   7  21
TORSDOF 2
ENDMDL
