MODEL 1
REMARK VINA RESULT:      -9.0      0.000      0.000
REMARK  10 active torsions:
REMARK  status: ('A' for Active; 'I' for Inactive)
REMARK    1  A    between atoms: C_4  and  N_5 
REMARK    2  A    between atoms: N_5  and  C_6 
REMARK    3  A    between atoms: C_6  and  N_7 
REMARK    4  A    between atoms: N_7  and  N_8 
REMARK       I    between atoms: N_8  and  C_9 
REMARK    5  A    between atoms: C_9  and  C_10 
REMARK    6  A    between atoms: C_10  and  O_11 
REMARK    7  A    between atoms: O_11  and  C_12 
REMARK    8  A    between atoms: C_23  and  C_24 
REMARK    9  A    between atoms: C_24  and  O_25 
REMARK   10  A    between atoms: C_28  and  C_29 
ROOT
HETATM    1  C   UNL     1      22.935  44.525  48.559  1.00  0.00     0.191 C 
HETATM    2  S   UNL     1      23.605  43.159  47.846  1.00  0.00    -0.039 SA
ENDROOT
BRANCH   1   3
HETATM    3  N   UNL     1      22.211  45.364  47.747  1.00  0.00    -0.325 N 
HETATM    4  H   UNL     1      22.755  45.636  46.933  1.00  0.00     0.169 HD
BRANCH   3   5
HETATM    5  C   UNL     1      21.350  46.357  48.188  1.00  0.00     0.094 C 
HETATM    6  S   UNL     1      19.807  45.706  48.510  1.00  0.00    -0.075 SA
HETATM    7  C   UNL     1      19.108  47.256  48.648  1.00  0.00    -0.007 C 
HETATM    8  C   UNL     1      17.625  47.376  48.810  1.00  0.00     0.057 C 
HETATM    9  C   UNL     1      20.072  48.250  48.588  1.00  0.00     0.006 C 
HETATM   10  C   UNL     1      21.421  47.710  48.480  1.00  0.00     0.085 C 
BRANCH   9  11
HETATM   11  C   UNL     1      19.690  49.659  48.582  1.00  0.00    -0.024 A 
HETATM   12  C   UNL     1      19.660  50.359  49.798  1.00  0.00     0.012 A 
HETATM   13  C   UNL     1      19.311  51.709  49.824  1.00  0.00     0.001 A 
HETATM   14  C   UNL     1      18.993  52.367  48.637  1.00  0.00     0.000 A 
HETATM   15  C   UNL     1      19.020  51.676  47.425  1.00  0.00     0.001 A 
HETATM   16  C   UNL     1      19.364  50.323  47.396  1.00  0.00     0.012 A 
ENDBRANCH   9  11
BRANCH  10  17
HETATM   17  C   UNL     1      22.672  48.453  48.663  1.00  0.00     0.296 C 
HETATM   18  O   UNL     1      23.326  48.420  49.699  1.00  0.00    -0.259 OA
BRANCH  17  19
HETATM   19  O   UNL     1      23.010  49.226  47.593  1.00  0.00    -0.322 OA
HETATM   20  C   UNL     1      23.275  50.593  47.909  1.00  0.00     0.213 C 
ENDBRANCH  17  19
ENDBRANCH  10  17
ENDBRANCH   3   5
ENDBRANCH   1   3
BRANCH   1  21
HETATM   21  N   UNL     1      23.148  44.897  49.858  1.00  0.00    -0.273 N 
HETATM   22  H   UNL     1      22.737  44.278  50.561  1.00  0.00     0.189 HD
BRANCH  21  23
HETATM   23  N   UNL     1      24.380  45.437  50.272  1.00  0.00    -0.266 N 
HETATM   24  C   UNL     1      24.850  45.082  51.522  1.00  0.00     0.265 C 
HETATM   25  O   UNL     1      24.325  44.218  52.225  1.00  0.00    -0.269 OA
HETATM   26  H   UNL     1      24.673  46.308  49.830  1.00  0.00     0.190 HD
BRANCH  24  27
HETATM   27  C   UNL     1      26.100  45.846  51.969  1.00  0.00     0.218 C 
HETATM   28  C   UNL     1      26.054  47.275  51.436  1.00  0.00     0.050 C 
BRANCH  27  29
HETATM   29  O   UNL     1      26.167  45.922  53.394  1.00  0.00    -0.335 OA
BRANCH  29  30
HETATM   30  C   UNL     1      27.288  45.405  53.989  1.00  0.00     0.091 A 
HETATM   31  C   UNL     1      28.020  46.251  54.838  1.00  0.00     0.068 A 
HETATM   32 CL   UNL     1      27.551  47.897  55.081  1.00  0.00    -0.081 Cl
HETATM   33  C   UNL     1      29.162  45.789  55.497  1.00  0.00     0.046 A 
HETATM   34  C   UNL     1      29.567  44.471  55.319  1.00  0.00     0.012 A 
HETATM   35 BR   UNL     1      31.112  43.835  56.205  1.00  0.00    -0.051 Br
HETATM   36  C   UNL     1      28.841  43.611  54.498  1.00  0.00     0.022 A 
HETATM   37  C   UNL     1      27.699  44.075  53.838  1.00  0.00     0.040 A 
ENDBRANCH  29  30
ENDBRANCH  27  29
ENDBRANCH  24  27
ENDBRANCH  21  23
ENDBRANCH   1  21
TORSDOF 10
ENDMDL
MODEL 2
REMARK VINA RESULT:      -8.9      1.658      2.064
REMARK  10 active torsions:
REMARK  status: ('A' for Active; 'I' for Inactive)
REMARK    1  A    between atoms: C_4  and  N_5 
REMARK    2  A    between atoms: N_5  and  C_6 
REMARK    3  A    between atoms: C_6  and  N_7 
REMARK    4  A    between atoms: N_7  and  N_8 
REMARK       I    between atoms: N_8  and  C_9 
REMARK    5  A    between atoms: C_9  and  C_10 
REMARK    6  A    between atoms: C_10  and  O_11 
REMARK    7  A    between atoms: O_11  and  C_12 
REMARK    8  A    between atoms: C_23  and  C_24 
REMARK    9  A    between atoms: C_24  and  O_25 
REMARK   10  A    between atoms: C_28  and  C_29 
ROOT
HETATM    1  C   UNL     1      23.781  45.614  49.362  1.00  0.00     0.191 C 
HETATM    2  S   UNL     1      23.461  43.965  49.320  1.00  0.00    -0.039 SA
ENDROOT
BRANCH   1   3
HETATM    3  N   UNL     1      23.118  46.404  48.455  1.00  0.00    -0.325 N 
HETATM    4  H   UNL     1      23.771  46.835  47.807  1.00  0.00     0.169 HD
BRANCH   3   5
HETATM    5  C   UNL     1      22.020  47.201  48.739  1.00  0.00     0.094 C 
HETATM    6  S   UNL     1      20.606  46.254  48.836  1.00  0.00    -0.075 SA
HETATM    7  C   UNL     1      19.601  47.633  48.836  1.00  0.00    -0.007 C 
HETATM    8  C   UNL     1      18.117  47.456  48.768  1.00  0.00     0.057 C 
HETATM    9  C   UNL     1      20.349  48.799  48.904  1.00  0.00     0.006 C 
HETATM   10  C   UNL     1      21.778  48.538  49.013  1.00  0.00     0.085 C 
BRANCH   9  11
HETATM   11  C   UNL     1      19.701  50.105  48.813  1.00  0.00    -0.024 A 
HETATM   12  C   UNL     1      19.230  50.711  49.986  1.00  0.00     0.012 A 
HETATM   13  C   UNL     1      18.619  51.964  49.934  1.00  0.00     0.001 A 
HETATM   14  C   UNL     1      18.477  52.617  48.711  1.00  0.00     0.000 A 
HETATM   15  C   UNL     1      18.942  52.018  47.540  1.00  0.00     0.001 A 
HETATM   16  C   UNL     1      19.551  50.762  47.588  1.00  0.00     0.012 A 
ENDBRANCH   9  11
BRANCH  10  17
HETATM   17  C   UNL     1      22.814  49.511  49.369  1.00  0.00     0.296 C 
HETATM   18  O   UNL     1      22.605  50.717  49.444  1.00  0.00    -0.259 OA
BRANCH  17  19
HETATM   19  O   UNL     1      24.045  48.957  49.556  1.00  0.00    -0.322 OA
HETATM   20  C   UNL     1      25.067  49.480  48.708  1.00  0.00     0.213 C 
ENDBRANCH  17  19
ENDBRANCH  10  17
ENDBRANCH   3   5
ENDBRANCH   1   3
BRANCH   1  21
HETATM   21  N   UNL     1      24.722  46.194  50.168  1.00  0.00    -0.273 N 
HETATM   22  H   UNL     1      24.610  47.201  50.312  1.00  0.00     0.189 HD
BRANCH  21  23
HETATM   23  N   UNL     1      25.209  45.538  51.314  1.00  0.00    -0.266 N 
HETATM   24  C   UNL     1      25.562  46.317  52.399  1.00  0.00     0.265 C 
HETATM   25  O   UNL     1      25.342  47.527  52.467  1.00  0.00    -0.269 OA
HETATM   26  H   UNL     1      25.618  44.614  51.177  1.00  0.00     0.190 HD
BRANCH  24  27
HETATM   27  C   UNL     1      26.246  45.549  53.534  1.00  0.00     0.218 C 
HETATM   28  C   UNL     1      25.322  44.451  54.049  1.00  0.00     0.050 C 
BRANCH  27  29
HETATM   29  O   UNL     1      27.443  44.920  53.072  1.00  0.00    -0.335 OA
BRANCH  29  30
HETATM   30  C   UNL     1      28.402  44.649  54.014  1.00  0.00     0.091 A 
HETATM   31  C   UNL     1      29.162  43.480  53.847  1.00  0.00     0.068 A 
HETATM   32 CL   UNL     1      28.861  42.399  52.531  1.00  0.00    -0.081 Cl
HETATM   33  C   UNL     1      30.171  43.147  54.753  1.00  0.00     0.046 A 
HETATM   34  C   UNL     1      30.434  43.994  55.824  1.00  0.00     0.012 A 
HETATM   35 BR   UNL     1      31.798  43.554  57.057  1.00  0.00    -0.051 Br
HETATM   36  C   UNL     1      29.706  45.170  55.992  1.00  0.00     0.022 A 
HETATM   37  C   UNL     1      28.695  45.500  55.085  1.00  0.00     0.040 A 
ENDBRANCH  29  30
ENDBRANCH  27  29
ENDBRANCH  24  27
ENDBRANCH  21  23
ENDBRANCH   1  21
TORSDOF 10
ENDMDL
MODEL 3
REMARK VINA RESULT:      -8.7      4.136      9.591
REMARK  10 active torsions:
REMARK  status: ('A' for Active; 'I' for Inactive)
REMARK    1  A    between atoms: C_4  and  N_5 
REMARK    2  A    between atoms: N_5  and  C_6 
REMARK    3  A    between atoms: C_6  and  N_7 
REMARK    4  A    between atoms: N_7  and  N_8 
REMARK       I    between atoms: N_8  and  C_9 
REMARK    5  A    between atoms: C_9  and  C_10 
REMARK    6  A    between atoms: C_10  and  O_11 
REMARK    7  A    between atoms: O_11  and  C_12 
REMARK    8  A    between atoms: C_23  and  C_24 
REMARK    9  A    between atoms: C_24  and  O_25 
REMARK   10  A    between atoms: C_28  and  C_29 
ROOT
HETATM    1  C   UNL     1      23.280  45.230  48.980  1.00  0.00     0.191 C 
HETATM    2  S   UNL     1      21.802  44.462  48.757  1.00  0.00    -0.039 SA
ENDROOT
BRANCH   1   3
HETATM    3  N   UNL     1      24.397  44.589  48.501  1.00  0.00    -0.325 N 
HETATM    4  H   UNL     1      24.168  44.025  47.688  1.00  0.00     0.169 HD
BRANCH   3   5
HETATM    5  C   UNL     1      25.403  44.042  49.283  1.00  0.00     0.094 C 
HETATM    6  S   UNL     1      25.465  42.351  49.075  1.00  0.00    -0.075 SA
HETATM    7  C   UNL     1      26.515  42.158  50.405  1.00  0.00    -0.007 C 
HETATM    8  C   UNL     1      26.869  40.778  50.861  1.00  0.00     0.057 C 
HETATM    9  C   UNL     1      26.921  43.385  50.908  1.00  0.00     0.006 C 
HETATM   10  C   UNL     1      26.390  44.503  50.139  1.00  0.00     0.085 C 
BRANCH   9  11
HETATM   11  C   UNL     1      27.741  43.461  52.113  1.00  0.00    -0.024 A 
HETATM   12  C   UNL     1      29.079  43.043  52.050  1.00  0.00     0.012 A 
HETATM   13  C   UNL     1      29.892  43.116  53.180  1.00  0.00     0.001 A 
HETATM   14  C   UNL     1      29.375  43.608  54.378  1.00  0.00     0.000 A 
HETATM   15  C   UNL     1      28.045  44.023  54.447  1.00  0.00     0.001 A 
HETATM   16  C   UNL     1      27.226  43.948  53.318  1.00  0.00     0.012 A 
ENDBRANCH   9  11
BRANCH  10  17
HETATM   17  C   UNL     1      26.826  45.900  50.224  1.00  0.00     0.296 C 
HETATM   18  O   UNL     1      26.410  46.682  51.072  1.00  0.00    -0.259 OA
BRANCH  17  19
HETATM   19  O   UNL     1      27.696  46.263  49.240  1.00  0.00    -0.322 OA
HETATM   20  C   UNL     1      27.817  47.672  49.046  1.00  0.00     0.213 C 
ENDBRANCH  17  19
ENDBRANCH  10  17
ENDBRANCH   3   5
ENDBRANCH   1   3
BRANCH   1  21
HETATM   21  N   UNL     1      23.446  46.388  49.689  1.00  0.00    -0.273 N 
HETATM   22  H   UNL     1      24.410  46.600  49.957  1.00  0.00     0.189 HD
BRANCH  21  23
HETATM   23  N   UNL     1      22.706  47.545  49.382  1.00  0.00    -0.266 N 
HETATM   24  C   UNL     1      23.367  48.759  49.415  1.00  0.00     0.265 C 
HETATM   25  O   UNL     1      24.586  48.865  49.557  1.00  0.00    -0.269 OA
HETATM   26  H   UNL     1      21.696  47.496  49.513  1.00  0.00     0.190 HD
BRANCH  24  27
HETATM   27  C   UNL     1      22.458  49.980  49.245  1.00  0.00     0.218 C 
HETATM   28  C   UNL     1      23.156  51.031  48.388  1.00  0.00     0.050 C 
BRANCH  27  29
HETATM   29  O   UNL     1      21.245  49.621  48.581  1.00  0.00    -0.335 OA
BRANCH  29  30
HETATM   30  C   UNL     1      20.146  50.401  48.837  1.00  0.00     0.091 A 
HETATM   31  C   UNL     1      19.113  49.833  49.600  1.00  0.00     0.068 A 
HETATM   32 CL   UNL     1      19.203  48.196  50.149  1.00  0.00    -0.081 Cl
HETATM   33  C   UNL     1      17.971  50.571  49.920  1.00  0.00     0.046 A 
HETATM   34  C   UNL     1      17.867  51.890  49.489  1.00  0.00     0.012 A 
HETATM   35 BR   UNL     1      16.327  52.899  49.915  1.00  0.00    -0.051 Br
HETATM   36  C   UNL     1      18.893  52.476  48.750  1.00  0.00     0.022 A 
HETATM   37  C   UNL     1      20.034  51.735  48.430  1.00  0.00     0.040 A 
ENDBRANCH  29  30
ENDBRANCH  27  29
ENDBRANCH  24  27
ENDBRANCH  21  23
ENDBRANCH   1  21
TORSDOF 10
ENDMDL
MODEL 4
REMARK VINA RESULT:      -8.7      1.654      2.078
REMARK  10 active torsions:
REMARK  status: ('A' for Active; 'I' for Inactive)
REMARK    1  A    between atoms: C_4  and  N_5 
REMARK    2  A    between atoms: N_5  and  C_6 
REMARK    3  A    between atoms: C_6  and  N_7 
REMARK    4  A    between atoms: N_7  and  N_8 
REMARK       I    between atoms: N_8  and  C_9 
REMARK    5  A    between atoms: C_9  and  C_10 
REMARK    6  A    between atoms: C_10  and  O_11 
REMARK    7  A    between atoms: O_11  and  C_12 
REMARK    8  A    between atoms: C_23  and  C_24 
REMARK    9  A    between atoms: C_24  and  O_25 
REMARK   10  A    between atoms: C_28  and  C_29 
ROOT
HETATM    1  C   UNL     1      23.857  44.694  48.797  1.00  0.00     0.191 C 
HETATM    2  S   UNL     1      23.632  43.059  49.116  1.00  0.00    -0.039 SA
ENDROOT
BRANCH   1   3
HETATM    3  N   UNL     1      22.941  45.303  47.973  1.00  0.00    -0.325 N 
HETATM    4  H   UNL     1      23.345  45.486  47.059  1.00  0.00     0.169 HD
BRANCH   3   5
HETATM    5  C   UNL     1      22.023  46.262  48.370  1.00  0.00     0.094 C 
HETATM    6  S   UNL     1      20.487  45.557  48.598  1.00  0.00    -0.075 SA
HETATM    7  C   UNL     1      19.729  47.081  48.706  1.00  0.00    -0.007 C 
HETATM    8  C   UNL     1      18.236  47.150  48.782  1.00  0.00     0.057 C 
HETATM    9  C   UNL     1      20.661  48.108  48.708  1.00  0.00     0.006 C 
HETATM   10  C   UNL     1      22.031  47.614  48.674  1.00  0.00     0.085 C 
BRANCH   9  11
HETATM   11  C   UNL     1      20.232  49.503  48.690  1.00  0.00    -0.024 A 
HETATM   12  C   UNL     1      19.901  50.095  47.462  1.00  0.00     0.012 A 
HETATM   13  C   UNL     1      19.476  51.422  47.413  1.00  0.00     0.001 A 
HETATM   14  C   UNL     1      19.377  52.164  48.589  1.00  0.00     0.000 A 
HETATM   15  C   UNL     1      19.706  51.581  49.813  1.00  0.00     0.001 A 
HETATM   16  C   UNL     1      20.136  50.254  49.866  1.00  0.00     0.012 A 
ENDBRANCH   9  11
BRANCH  10  17
HETATM   17  C   UNL     1      23.243  48.396  48.935  1.00  0.00     0.296 C 
HETATM   18  O   UNL     1      23.853  48.355  49.997  1.00  0.00    -0.259 OA
BRANCH  17  19
HETATM   19  O   UNL     1      23.597  49.216  47.905  1.00  0.00    -0.322 OA
HETATM   20  C   UNL     1      24.824  49.919  48.101  1.00  0.00     0.213 C 
ENDBRANCH  17  19
ENDBRANCH  10  17
ENDBRANCH   3   5
ENDBRANCH   1   3
BRANCH   1  21
HETATM   21  N   UNL     1      24.937  45.418  49.221  1.00  0.00    -0.273 N 
HETATM   22  H   UNL     1      25.104  46.289  48.711  1.00  0.00     0.189 HD
BRANCH  21  23
HETATM   23  N   UNL     1      25.254  45.526  50.588  1.00  0.00    -0.266 N 
HETATM   24  C   UNL     1      26.422  44.931  51.026  1.00  0.00     0.265 C 
HETATM   25  O   UNL     1      27.260  44.441  50.268  1.00  0.00    -0.269 OA
HETATM   26  H   UNL     1      24.480  45.693  51.229  1.00  0.00     0.190 HD
BRANCH  24  27
HETATM   27  C   UNL     1      26.606  44.939  52.546  1.00  0.00     0.218 C 
HETATM   28  C   UNL     1      25.488  44.140  53.208  1.00  0.00     0.050 C 
BRANCH  27  29
HETATM   29  O   UNL     1      27.844  44.328  52.911  1.00  0.00    -0.335 OA
BRANCH  29  30
HETATM   30  C   UNL     1      28.402  44.724  54.099  1.00  0.00     0.091 A 
HETATM   31  C   UNL     1      29.548  44.039  54.537  1.00  0.00     0.068 A 
HETATM   32 CL   UNL     1      30.196  42.714  53.636  1.00  0.00    -0.081 Cl
HETATM   33  C   UNL     1      30.185  44.398  55.727  1.00  0.00     0.046 A 
HETATM   34  C   UNL     1      29.685  45.458  56.476  1.00  0.00     0.012 A 
HETATM   35 BR   UNL     1      30.539  45.953  58.088  1.00  0.00    -0.051 Br
HETATM   36  C   UNL     1      28.563  46.163  56.046  1.00  0.00     0.022 A 
HETATM   37  C   UNL     1      27.926  45.800  54.856  1.00  0.00     0.040 A 
ENDBRANCH  29  30
ENDBRANCH  27  29
ENDBRANCH  24  27
ENDBRANCH  21  23
ENDBRANCH   1  21
TORSDOF 10
ENDMDL
MODEL 5
REMARK VINA RESULT:      -8.6      1.621      2.496
REMARK  10 active torsions:
REMARK  status: ('A' for Active; 'I' for Inactive)
REMARK    1  A    between atoms: C_4  and  N_5 
REMARK    2  A    between atoms: N_5  and  C_6 
REMARK    3  A    between atoms: C_6  and  N_7 
REMARK    4  A    between atoms: N_7  and  N_8 
REMARK       I    between atoms: N_8  and  C_9 
REMARK    5  A    between atoms: C_9  and  C_10 
REMARK    6  A    between atoms: C_10  and  O_11 
REMARK    7  A    between atoms: O_11  and  C_12 
REMARK    8  A    between atoms: C_23  and  C_24 
REMARK    9  A    between atoms: C_24  and  O_25 
REMARK   10  A    between atoms: C_28  and  C_29 
ROOT
HETATM    1  C   UNL     1      22.842  45.142  48.316  1.00  0.00     0.191 C 
HETATM    2  S   UNL     1      22.343  45.199  46.712  1.00  0.00    -0.039 SA
ENDROOT
BRANCH   1   3
HETATM    3  N   UNL     1      22.284  46.054  49.178  1.00  0.00    -0.325 N 
HETATM    4  H   UNL     1      21.625  45.600  49.805  1.00  0.00     0.169 HD
BRANCH   3   5
HETATM    5  C   UNL     1      21.925  47.351  48.848  1.00  0.00     0.094 C 
HETATM    6  S   UNL     1      23.308  48.341  48.735  1.00  0.00    -0.075 SA
HETATM    7  C   UNL     1      22.369  49.764  48.679  1.00  0.00    -0.007 C 
HETATM    8  C   UNL     1      23.054  51.093  48.712  1.00  0.00     0.057 C 
HETATM    9  C   UNL     1      21.016  49.470  48.606  1.00  0.00     0.006 C 
HETATM   10  C   UNL     1      20.761  48.037  48.541  1.00  0.00     0.085 C 
BRANCH   9  11
HETATM   11  C   UNL     1      20.019  50.536  48.653  1.00  0.00    -0.024 A 
HETATM   12  C   UNL     1      19.589  51.007  49.902  1.00  0.00     0.012 A 
HETATM   13  C   UNL     1      18.647  52.033  49.980  1.00  0.00     0.001 A 
HETATM   14  C   UNL     1      18.132  52.595  48.812  1.00  0.00     0.000 A 
HETATM   15  C   UNL     1      18.555  52.128  47.567  1.00  0.00     0.001 A 
HETATM   16  C   UNL     1      19.495  51.098  47.485  1.00  0.00     0.012 A 
ENDBRANCH   9  11
BRANCH  10  17
HETATM   17  C   UNL     1      19.490  47.396  48.191  1.00  0.00     0.296 C 
HETATM   18  O   UNL     1      19.214  47.029  47.054  1.00  0.00    -0.259 OA
BRANCH  17  19
HETATM   19  O   UNL     1      18.621  47.296  49.237  1.00  0.00    -0.322 OA
HETATM   20  C   UNL     1      17.333  47.861  48.994  1.00  0.00     0.213 C 
ENDBRANCH  17  19
ENDBRANCH  10  17
ENDBRANCH   3   5
ENDBRANCH   1   3
BRANCH   1  21
HETATM   21  N   UNL     1      23.831  44.320  48.784  1.00  0.00    -0.273 N 
HETATM   22  H   UNL     1      24.087  43.549  48.161  1.00  0.00     0.189 HD
BRANCH  21  23
HETATM   23  N   UNL     1      24.935  44.832  49.489  1.00  0.00    -0.266 N 
HETATM   24  C   UNL     1      24.854  44.876  50.868  1.00  0.00     0.265 C 
HETATM   25  O   UNL     1      23.936  44.364  51.511  1.00  0.00    -0.269 OA
HETATM   26  H   UNL     1      25.554  45.463  48.981  1.00  0.00     0.190 HD
BRANCH  24  27
HETATM   27  C   UNL     1      26.015  45.606  51.548  1.00  0.00     0.218 C 
HETATM   28  C   UNL     1      25.967  47.092  51.205  1.00  0.00     0.050 C 
BRANCH  27  29
HETATM   29  O   UNL     1      25.925  45.492  52.969  1.00  0.00    -0.335 OA
BRANCH  29  30
HETATM   30  C   UNL     1      27.070  45.139  53.636  1.00  0.00     0.091 A 
HETATM   31  C   UNL     1      27.611  46.072  54.534  1.00  0.00     0.068 A 
HETATM   32 CL   UNL     1      26.887  47.628  54.751  1.00  0.00    -0.081 Cl
HETATM   33  C   UNL     1      28.764  45.777  55.265  1.00  0.00     0.046 A 
HETATM   34  C   UNL     1      29.372  44.535  55.110  1.00  0.00     0.012 A 
HETATM   35 BR   UNL     1      30.932  44.124  56.094  1.00  0.00    -0.051 Br
HETATM   36  C   UNL     1      28.836  43.588  54.240  1.00  0.00     0.022 A 
HETATM   37  C   UNL     1      27.683  43.887  53.508  1.00  0.00     0.040 A 
ENDBRANCH  29  30
ENDBRANCH  27  29
ENDBRANCH  24  27
ENDBRANCH  21  23
ENDBRANCH   1  21
TORSDOF 10
ENDMDL
MODEL 6
REMARK VINA RESULT:      -8.5      4.285     10.506
REMARK  10 active torsions:
REMARK  status: ('A' for Active; 'I' for Inactive)
REMARK    1  A    between atoms: C_4  and  N_5 
REMARK    2  A    between atoms: N_5  and  C_6 
REMARK    3  A    between atoms: C_6  and  N_7 
REMARK    4  A    between atoms: N_7  and  N_8 
REMARK       I    between atoms: N_8  and  C_9 
REMARK    5  A    between atoms: C_9  and  C_10 
REMARK    6  A    between atoms: C_10  and  O_11 
REMARK    7  A    between atoms: O_11  and  C_12 
REMARK    8  A    between atoms: C_23  and  C_24 
REMARK    9  A    between atoms: C_24  and  O_25 
REMARK   10  A    between atoms: C_28  and  C_29 
ROOT
HETATM    1  C   UNL     1      25.522  46.419  50.509  1.00  0.00     0.191 C 
HETATM    2  S   UNL     1      26.697  47.326  49.721  1.00  0.00    -0.039 SA
ENDROOT
BRANCH   1   3
HETATM    3  N   UNL     1      25.959  45.438  51.366  1.00  0.00    -0.325 N 
HETATM    4  H   UNL     1      25.389  44.602  51.276  1.00  0.00     0.169 HD
BRANCH   3   5
HETATM    5  C   UNL     1      26.424  45.649  52.654  1.00  0.00     0.094 C 
HETATM    6  S   UNL     1      25.842  47.133  53.260  1.00  0.00    -0.075 SA
HETATM    7  C   UNL     1      26.904  47.082  54.594  1.00  0.00    -0.007 C 
HETATM    8  C   UNL     1      26.981  48.261  55.512  1.00  0.00     0.057 C 
HETATM    9  C   UNL     1      27.590  45.878  54.645  1.00  0.00     0.006 C 
HETATM   10  C   UNL     1      27.184  44.962  53.587  1.00  0.00     0.085 C 
BRANCH   9  11
HETATM   11  C   UNL     1      28.629  45.655  55.646  1.00  0.00    -0.024 A 
HETATM   12  C   UNL     1      28.444  46.161  56.940  1.00  0.00     0.012 A 
HETATM   13  C   UNL     1      29.412  45.953  57.922  1.00  0.00     0.001 A 
HETATM   14  C   UNL     1      30.569  45.238  57.617  1.00  0.00     0.000 A 
HETATM   15  C   UNL     1      30.760  44.734  56.330  1.00  0.00     0.001 A 
HETATM   16  C   UNL     1      29.794  44.943  55.343  1.00  0.00     0.012 A 
ENDBRANCH   9  11
BRANCH  10  17
HETATM   17  C   UNL     1      27.501  43.533  53.506  1.00  0.00     0.296 C 
HETATM   18  O   UNL     1      27.220  42.733  54.391  1.00  0.00    -0.259 OA
BRANCH  17  19
HETATM   19  O   UNL     1      28.187  43.188  52.380  1.00  0.00    -0.322 OA
HETATM   20  C   UNL     1      27.801  41.936  51.812  1.00  0.00     0.213 C 
ENDBRANCH  17  19
ENDBRANCH  10  17
ENDBRANCH   3   5
ENDBRANCH   1   3
BRANCH   1  21
HETATM   21  N   UNL     1      24.179  46.532  50.276  1.00  0.00    -0.273 N 
HETATM   22  H   UNL     1      23.591  45.874  50.793  1.00  0.00     0.189 HD
BRANCH  21  23
HETATM   23  N   UNL     1      23.567  47.790  50.117  1.00  0.00    -0.266 N 
HETATM   24  C   UNL     1      22.752  47.974  49.016  1.00  0.00     0.265 C 
HETATM   25  O   UNL     1      22.424  47.064  48.254  1.00  0.00    -0.269 OA
HETATM   26  H   UNL     1      24.017  48.582  50.574  1.00  0.00     0.190 HD
BRANCH  24  27
HETATM   27  C   UNL     1      22.270  49.414  48.820  1.00  0.00     0.218 C 
HETATM   28  C   UNL     1      23.353  50.235  48.128  1.00  0.00     0.050 C 
BRANCH  27  29
HETATM   29  O   UNL     1      21.108  49.451  47.990  1.00  0.00    -0.335 OA
BRANCH  29  30
HETATM   30  C   UNL     1      20.082  50.265  48.397  1.00  0.00     0.091 A 
HETATM   31  C   UNL     1      19.071  49.688  49.183  1.00  0.00     0.068 A 
HETATM   32 CL   UNL     1      19.095  48.005  49.576  1.00  0.00    -0.081 Cl
HETATM   33  C   UNL     1      18.005  50.457  49.654  1.00  0.00     0.046 A 
HETATM   34  C   UNL     1      17.955  51.814  49.351  1.00  0.00     0.012 A 
HETATM   35 BR   UNL     1      16.516  52.865  49.982  1.00  0.00    -0.051 Br
HETATM   36  C   UNL     1      18.961  52.407  48.591  1.00  0.00     0.022 A 
HETATM   37  C   UNL     1      20.027  51.635  48.120  1.00  0.00     0.040 A 
ENDBRANCH  29  30
ENDBRANCH  27  29
ENDBRANCH  24  27
ENDBRANCH  21  23
ENDBRANCH   1  21
TORSDOF 10
ENDMDL
MODEL 7
REMARK VINA RESULT:      -8.4      2.040      3.140
REMARK  10 active torsions:
REMARK  status: ('A' for Active; 'I' for Inactive)
REMARK    1  A    between atoms: C_4  and  N_5 
REMARK    2  A    between atoms: N_5  and  C_6 
REMARK    3  A    between atoms: C_6  and  N_7 
REMARK    4  A    between atoms: N_7  and  N_8 
REMARK       I    between atoms: N_8  and  C_9 
REMARK    5  A    between atoms: C_9  and  C_10 
REMARK    6  A    between atoms: C_10  and  O_11 
REMARK    7  A    between atoms: O_11  and  C_12 
REMARK    8  A    between atoms: C_23  and  C_24 
REMARK    9  A    between atoms: C_24  and  O_25 
REMARK   10  A    between atoms: C_28  and  C_29 
ROOT
HETATM    1  C   UNL     1      23.345  45.498  49.653  1.00  0.00     0.191 C 
HETATM    2  S   UNL     1      22.831  43.914  49.878  1.00  0.00    -0.039 SA
ENDROOT
BRANCH   1   3
HETATM    3  N   UNL     1      22.952  46.126  48.496  1.00  0.00    -0.325 N 
HETATM    4  H   UNL     1      23.546  45.854  47.719  1.00  0.00     0.169 HD
BRANCH   3   5
HETATM    5  C   UNL     1      22.499  47.433  48.411  1.00  0.00     0.094 C 
HETATM    6  S   UNL     1      23.804  48.524  48.528  1.00  0.00    -0.075 SA
HETATM    7  C   UNL     1      22.759  49.859  48.719  1.00  0.00    -0.007 C 
HETATM    8  C   UNL     1      23.340  51.203  49.025  1.00  0.00     0.057 C 
HETATM    9  C   UNL     1      21.433  49.488  48.553  1.00  0.00     0.006 C 
HETATM   10  C   UNL     1      21.290  48.079  48.208  1.00  0.00     0.085 C 
BRANCH   9  11
HETATM   11  C   UNL     1      20.357  50.449  48.775  1.00  0.00    -0.024 A 
HETATM   12  C   UNL     1      19.873  51.188  47.686  1.00  0.00     0.012 A 
HETATM   13  C   UNL     1      18.837  52.105  47.863  1.00  0.00     0.001 A 
HETATM   14  C   UNL     1      18.279  52.288  49.127  1.00  0.00     0.000 A 
HETATM   15  C   UNL     1      18.758  51.557  50.214  1.00  0.00     0.001 A 
HETATM   16  C   UNL     1      19.798  50.640  50.042  1.00  0.00     0.012 A 
ENDBRANCH   9  11
BRANCH  10  17
HETATM   17  C   UNL     1      20.076  47.428  47.706  1.00  0.00     0.296 C 
HETATM   18  O   UNL     1      19.821  47.313  46.512  1.00  0.00    -0.259 OA
BRANCH  17  19
HETATM   19  O   UNL     1      19.232  47.010  48.691  1.00  0.00    -0.322 OA
HETATM   20  C   UNL     1      17.936  47.607  48.654  1.00  0.00     0.213 C 
ENDBRANCH  17  19
ENDBRANCH  10  17
ENDBRANCH   3   5
ENDBRANCH   1   3
BRANCH   1  21
HETATM   21  N   UNL     1      24.202  46.154  50.494  1.00  0.00    -0.273 N 
HETATM   22  H   UNL     1      23.956  47.127  50.693  1.00  0.00     0.189 HD
BRANCH  21  23
HETATM   23  N   UNL     1      24.777  45.508  51.603  1.00  0.00    -0.266 N 
HETATM   24  C   UNL     1      25.412  46.292  52.547  1.00  0.00     0.265 C 
HETATM   25  O   UNL     1      25.377  47.524  52.541  1.00  0.00    -0.269 OA
HETATM   26  H   UNL     1      25.024  44.525  51.488  1.00  0.00     0.190 HD
BRANCH  24  27
HETATM   27  C   UNL     1      26.162  45.504  53.625  1.00  0.00     0.218 C 
HETATM   28  C   UNL     1      25.331  44.303  54.063  1.00  0.00     0.050 C 
BRANCH  27  29
HETATM   29  O   UNL     1      27.402  45.006  53.120  1.00  0.00    -0.335 OA
BRANCH  29  30
HETATM   30  C   UNL     1      28.371  44.707  54.043  1.00  0.00     0.091 A 
HETATM   31  C   UNL     1      29.132  43.546  53.831  1.00  0.00     0.068 A 
HETATM   32 CL   UNL     1      28.822  42.508  52.483  1.00  0.00    -0.081 Cl
HETATM   33  C   UNL     1      30.150  43.187  54.716  1.00  0.00     0.046 A 
HETATM   34  C   UNL     1      30.421  43.999  55.812  1.00  0.00     0.012 A 
HETATM   35 BR   UNL     1      31.797  43.522  57.017  1.00  0.00    -0.051 Br
HETATM   36  C   UNL     1      29.691  45.166  56.025  1.00  0.00     0.022 A 
HETATM   37  C   UNL     1      28.671  45.523  55.139  1.00  0.00     0.040 A 
ENDBRANCH  29  30
ENDBRANCH  27  29
ENDBRANCH  24  27
ENDBRANCH  21  23
ENDBRANCH   1  21
TORSDOF 10
ENDMDL
MODEL 8
REMARK VINA RESULT:      -8.4      1.904      2.832
REMARK  10 active torsions:
REMARK  status: ('A' for Active; 'I' for Inactive)
REMARK    1  A    between atoms: C_4  and  N_5 
REMARK    2  A    between atoms: N_5  and  C_6 
REMARK    3  A    between atoms: C_6  and  N_7 
REMARK    4  A    between atoms: N_7  and  N_8 
REMARK       I    between atoms: N_8  and  C_9 
REMARK    5  A    between atoms: C_9  and  C_10 
REMARK    6  A    between atoms: C_10  and  O_11 
REMARK    7  A    between atoms: O_11  and  C_12 
REMARK    8  A    between atoms: C_23  and  C_24 
REMARK    9  A    between atoms: C_24  and  O_25 
REMARK   10  A    between atoms: C_28  and  C_29 
ROOT
HETATM    1  C   UNL     1      23.321  45.396  49.567  1.00  0.00     0.191 C 
HETATM    2  S   UNL     1      22.310  44.055  49.594  1.00  0.00    -0.039 SA
ENDROOT
BRANCH   1   3
HETATM    3  N   UNL     1      23.247  46.214  48.465  1.00  0.00    -0.325 N 
HETATM    4  H   UNL     1      24.080  46.123  47.892  1.00  0.00     0.169 HD
BRANCH   3   5
HETATM    5  C   UNL     1      22.709  47.492  48.453  1.00  0.00     0.094 C 
HETATM    6  S   UNL     1      23.925  48.652  48.740  1.00  0.00    -0.075 SA
HETATM    7  C   UNL     1      22.780  49.896  48.967  1.00  0.00    -0.007 C 
HETATM    8  C   UNL     1      23.247  51.245  49.414  1.00  0.00     0.057 C 
HETATM    9  C   UNL     1      21.496  49.454  48.686  1.00  0.00     0.006 C 
HETATM   10  C   UNL     1      21.473  48.073  48.222  1.00  0.00     0.085 C 
BRANCH   9  11
HETATM   11  C   UNL     1      20.344  50.322  48.911  1.00  0.00    -0.024 A 
HETATM   12  C   UNL     1      19.465  50.023  49.962  1.00  0.00     0.012 A 
HETATM   13  C   UNL     1      18.363  50.840  50.211  1.00  0.00     0.001 A 
HETATM   14  C   UNL     1      18.134  51.961  49.414  1.00  0.00     0.000 A 
HETATM   15  C   UNL     1      19.005  52.262  48.367  1.00  0.00     0.001 A 
HETATM   16  C   UNL     1      20.107  51.445  48.111  1.00  0.00     0.012 A 
ENDBRANCH   9  11
BRANCH  10  17
HETATM   17  C   UNL     1      20.340  47.388  47.592  1.00  0.00     0.296 C 
HETATM   18  O   UNL     1      20.035  47.539  46.415  1.00  0.00    -0.259 OA
BRANCH  17  19
HETATM   19  O   UNL     1      19.625  46.609  48.453  1.00  0.00    -0.322 OA
HETATM   20  C   UNL     1      18.220  46.863  48.455  1.00  0.00     0.213 C 
ENDBRANCH  17  19
ENDBRANCH  10  17
ENDBRANCH   3   5
ENDBRANCH   1   3
BRANCH   1  21
HETATM   21  N   UNL     1      24.270  45.663  50.515  1.00  0.00    -0.273 N 
HETATM   22  H   UNL     1      23.923  46.125  51.360  1.00  0.00     0.189 HD
BRANCH  21  23
HETATM   23  N   UNL     1      25.307  44.752  50.788  1.00  0.00    -0.266 N 
HETATM   24  C   UNL     1      25.414  44.265  52.077  1.00  0.00     0.265 C 
HETATM   25  O   UNL     1      24.573  44.473  52.953  1.00  0.00    -0.269 OA
HETATM   26  H   UNL     1      26.118  44.778  50.170  1.00  0.00     0.190 HD
BRANCH  24  27
HETATM   27  C   UNL     1      26.667  43.424  52.335  1.00  0.00     0.218 C 
HETATM   28  C   UNL     1      26.837  42.392  51.225  1.00  0.00     0.050 C 
BRANCH  27  29
HETATM   29  O   UNL     1      27.837  44.244  52.341  1.00  0.00    -0.335 OA
BRANCH  29  30
HETATM   30  C   UNL     1      28.734  44.034  53.356  1.00  0.00     0.091 A 
HETATM   31  C   UNL     1      28.659  44.883  54.472  1.00  0.00     0.068 A 
HETATM   32 CL   UNL     1      27.511  46.174  54.539  1.00  0.00    -0.081 Cl
HETATM   33  C   UNL     1      29.525  44.718  55.555  1.00  0.00     0.046 A 
HETATM   34  C   UNL     1      30.463  43.690  55.530  1.00  0.00     0.012 A 
HETATM   35 BR   UNL     1      31.641  43.458  56.990  1.00  0.00    -0.051 Br
HETATM   36  C   UNL     1      30.536  42.826  54.441  1.00  0.00     0.022 A 
HETATM   37  C   UNL     1      29.669  42.993  53.357  1.00  0.00     0.040 A 
ENDBRANCH  29  30
ENDBRANCH  27  29
ENDBRANCH  24  27
ENDBRANCH  21  23
ENDBRANCH   1  21
TORSDOF 10
ENDMDL
MODEL 9
REMARK VINA RESULT:      -8.0      2.512      3.568
REMARK  10 active torsions:
REMARK  status: ('A' for Active; 'I' for Inactive)
REMARK    1  A    between atoms: C_4  and  N_5 
REMARK    2  A    between atoms: N_5  and  C_6 
REMARK    3  A    between atoms: C_6  and  N_7 
REMARK    4  A    between atoms: N_7  and  N_8 
REMARK       I    between atoms: N_8  and  C_9 
REMARK    5  A    between atoms: C_9  and  C_10 
REMARK    6  A    between atoms: C_10  and  O_11 
REMARK    7  A    between atoms: O_11  and  C_12 
REMARK    8  A    between atoms: C_23  and  C_24 
REMARK    9  A    between atoms: C_24  and  O_25 
REMARK   10  A    between atoms: C_28  and  C_29 
ROOT
HETATM    1  C   UNL     1      25.134  47.570  49.831  1.00  0.00     0.191 C 
HETATM    2  S   UNL     1      26.593  48.351  49.540  1.00  0.00    -0.039 SA
ENDROOT
BRANCH   1   3
HETATM    3  N   UNL     1      24.302  47.376  48.756  1.00  0.00    -0.325 N 
HETATM    4  H   UNL     1      24.837  47.295  47.896  1.00  0.00     0.169 HD
BRANCH   3   5
HETATM    5  C   UNL     1      23.068  47.982  48.579  1.00  0.00     0.094 C 
HETATM    6  S   UNL     1      23.123  49.605  49.099  1.00  0.00    -0.075 SA
HETATM    7  C   UNL     1      21.426  49.759  49.018  1.00  0.00    -0.007 C 
HETATM    8  C   UNL     1      20.782  51.014  49.516  1.00  0.00     0.057 C 
HETATM    9  C   UNL     1      20.844  48.628  48.465  1.00  0.00     0.006 C 
HETATM   10  C   UNL     1      21.832  47.639  48.054  1.00  0.00     0.085 C 
BRANCH   9  11
HETATM   11  C   UNL     1      19.392  48.497  48.394  1.00  0.00    -0.024 A 
HETATM   12  C   UNL     1      18.723  48.974  47.257  1.00  0.00     0.012 A 
HETATM   13  C   UNL     1      17.338  48.851  47.152  1.00  0.00     0.001 A 
HETATM   14  C   UNL     1      16.614  48.251  48.181  1.00  0.00     0.000 A 
HETATM   15  C   UNL     1      17.274  47.777  49.315  1.00  0.00     0.001 A 
HETATM   16  C   UNL     1      18.660  47.901  49.425  1.00  0.00     0.012 A 
ENDBRANCH   9  11
BRANCH  10  17
HETATM   17  C   UNL     1      21.589  46.469  47.205  1.00  0.00     0.296 C 
HETATM   18  O   UNL     1      21.773  46.470  45.992  1.00  0.00    -0.259 OA
BRANCH  17  19
HETATM   19  O   UNL     1      21.086  45.398  47.881  1.00  0.00    -0.322 OA
HETATM   20  C   UNL     1      19.806  44.958  47.427  1.00  0.00     0.213 C 
ENDBRANCH  17  19
ENDBRANCH  10  17
ENDBRANCH   3   5
ENDBRANCH   1   3
BRANCH   1  21
HETATM   21  N   UNL     1      24.689  47.212  51.074  1.00  0.00    -0.273 N 
HETATM   22  H   UNL     1      23.778  46.747  51.093  1.00  0.00     0.189 HD
BRANCH  21  23
HETATM   23  N   UNL     1      25.569  46.707  52.049  1.00  0.00    -0.266 N 
HETATM   24  C   UNL     1      25.314  45.447  52.557  1.00  0.00     0.265 C 
HETATM   25  O   UNL     1      24.451  44.695  52.103  1.00  0.00    -0.269 OA
HETATM   26  H   UNL     1      26.102  47.390  52.588  1.00  0.00     0.190 HD
BRANCH  24  27
HETATM   27  C   UNL     1      26.207  45.045  53.734  1.00  0.00     0.218 C 
HETATM   28  C   UNL     1      25.485  44.027  54.610  1.00  0.00     0.050 C 
BRANCH  27  29
HETATM   29  O   UNL     1      27.413  44.434  53.271  1.00  0.00    -0.335 OA
BRANCH  29  30
HETATM   30  C   UNL     1      28.423  44.287  54.186  1.00  0.00     0.091 A 
HETATM   31  C   UNL     1      29.055  43.036  54.259  1.00  0.00     0.068 A 
HETATM   32 CL   UNL     1      28.542  41.716  53.266  1.00  0.00    -0.081 Cl
HETATM   33  C   UNL     1      30.107  42.816  55.151  1.00  0.00     0.046 A 
HETATM   34  C   UNL     1      30.540  43.857  55.966  1.00  0.00     0.012 A 
HETATM   35 BR   UNL     1      31.962  43.571  57.179  1.00  0.00    -0.051 Br
HETATM   36  C   UNL     1      29.939  45.111  55.892  1.00  0.00     0.022 A 
HETATM   37  C   UNL     1      28.885  45.329  54.999  1.00  0.00     0.040 A 
ENDBRANCH  29  30
ENDBRANCH  27  29
ENDBRANCH  24  27
ENDBRANCH  21  23
ENDBRANCH   1  21
TORSDOF 10
ENDMDL
MODEL 10
REMARK VINA RESULT:      -7.9      2.592      3.546
REMARK  10 active torsions:
REMARK  status: ('A' for Active; 'I' for Inactive)
REMARK    1  A    between atoms: C_4  and  N_5 
REMARK    2  A    between atoms: N_5  and  C_6 
REMARK    3  A    between atoms: C_6  and  N_7 
REMARK    4  A    between atoms: N_7  and  N_8 
REMARK       I    between atoms: N_8  and  C_9 
REMARK    5  A    between atoms: C_9  and  C_10 
REMARK    6  A    between atoms: C_10  and  O_11 
REMARK    7  A    between atoms: O_11  and  C_12 
REMARK    8  A    between atoms: C_23  and  C_24 
REMARK    9  A    between atoms: C_24  and  O_25 
REMARK   10  A    between atoms: C_28  and  C_29 
ROOT
HETATM    1  C   UNL     1      21.264  47.547  48.056  1.00  0.00     0.191 C 
HETATM    2  S   UNL     1      21.597  46.051  47.368  1.00  0.00    -0.039 SA
ENDROOT
BRANCH   1   3
HETATM    3  N   UNL     1      20.501  48.420  47.319  1.00  0.00    -0.325 N 
HETATM    4  H   UNL     1      21.087  49.113  46.861  1.00  0.00     0.169 HD
BRANCH   3   5
HETATM    5  C   UNL     1      19.261  48.911  47.694  1.00  0.00     0.094 C 
HETATM    6  S   UNL     1      18.045  47.758  47.381  1.00  0.00    -0.075 SA
HETATM    7  C   UNL     1      16.802  48.894  47.652  1.00  0.00    -0.007 C 
HETATM    8  C   UNL     1      15.383  48.503  47.385  1.00  0.00     0.057 C 
HETATM    9  C   UNL     1      17.314  50.098  48.112  1.00  0.00     0.006 C 
HETATM   10  C   UNL     1      18.759  50.055  48.294  1.00  0.00     0.085 C 
BRANCH   9  11
HETATM   11  C   UNL     1      16.440  51.251  48.313  1.00  0.00    -0.024 A 
HETATM   12  C   UNL     1      16.121  51.640  49.622  1.00  0.00     0.012 A 
HETATM   13  C   UNL     1      15.300  52.745  49.847  1.00  0.00     0.001 A 
HETATM   14  C   UNL     1      14.793  53.466  48.767  1.00  0.00     0.000 A 
HETATM   15  C   UNL     1      15.106  53.081  47.462  1.00  0.00     0.001 A 
HETATM   16  C   UNL     1      15.925  51.974  47.233  1.00  0.00     0.012 A 
ENDBRANCH   9  11
BRANCH  10  17
HETATM   17  C   UNL     1      19.574  51.042  49.008  1.00  0.00     0.296 C 
HETATM   18  O   UNL     1      19.829  52.154  48.558  1.00  0.00    -0.259 OA
BRANCH  17  19
HETATM   19  O   UNL     1      20.069  50.588  50.194  1.00  0.00    -0.322 OA
HETATM   20  C   UNL     1      21.344  51.122  50.548  1.00  0.00     0.213 C 
ENDBRANCH  17  19
ENDBRANCH  10  17
ENDBRANCH   3   5
ENDBRANCH   1   3
BRANCH   1  21
HETATM   21  N   UNL     1      21.784  47.979  49.245  1.00  0.00    -0.273 N 
HETATM   22  H   UNL     1      21.102  48.109  49.997  1.00  0.00     0.189 HD
BRANCH  21  23
HETATM   23  N   UNL     1      23.022  47.504  49.718  1.00  0.00    -0.266 N 
HETATM   24  C   UNL     1      24.118  48.338  49.602  1.00  0.00     0.265 C 
HETATM   25  O   UNL     1      24.041  49.514  49.242  1.00  0.00    -0.269 OA
HETATM   26  H   UNL     1      23.137  46.493  49.772  1.00  0.00     0.190 HD
BRANCH  24  27
HETATM   27  C   UNL     1      25.452  47.685  49.973  1.00  0.00     0.218 C 
HETATM   28  C   UNL     1      26.607  48.505  49.406  1.00  0.00     0.050 C 
BRANCH  27  29
HETATM   29  O   UNL     1      25.617  47.637  51.391  1.00  0.00    -0.335 OA
BRANCH  29  30
HETATM   30  C   UNL     1      26.172  46.496  51.911  1.00  0.00     0.091 A 
HETATM   31  C   UNL     1      26.379  46.450  53.299  1.00  0.00     0.068 A 
HETATM   32 CL   UNL     1      25.996  47.803  54.305  1.00  0.00    -0.081 Cl
HETATM   33  C   UNL     1      26.920  45.314  53.905  1.00  0.00     0.046 A 
HETATM   34  C   UNL     1      27.242  44.210  53.121  1.00  0.00     0.012 A 
HETATM   35 BR   UNL     1      27.975  42.667  53.930  1.00  0.00    -0.051 Br
HETATM   36  C   UNL     1      27.022  44.230  51.746  1.00  0.00     0.022 A 
HETATM   37  C   UNL     1      26.483  45.369  51.141  1.00  0.00     0.040 A 
ENDBRANCH  29  30
ENDBRANCH  27  29
ENDBRANCH  24  27
ENDBRANCH  21  23
ENDBRANCH   1  21
TORSDOF 10
ENDMDL
