MODEL 1
REMARK VINA RESULT:      -8.7      0.000      0.000
REMARK  3 active torsions:
REMARK  status: ('A' for Active; 'I' for Inactive)
REMARK    1  A    between atoms: C_8  and  C_9 
REMARK    2  A    between atoms: C_10  and  O_11 
REMARK    3  A    between atoms: C_24  and  N_25 
ROOT
HETATM    1  C   UNL     1      27.567  47.709  49.634  1.00  0.00     0.070 C 
HETATM    2  C   UNL     1      26.149  47.284  49.641  1.00  0.00     0.035 A 
HETATM    3  N   UNL     1      25.117  48.164  49.409  1.00  0.00    -0.280 N 
HETATM    4  H   UNL     1      25.176  49.159  49.220  1.00  0.00     0.189 HD
HETATM    5  N   UNL     1      23.897  47.594  49.428  1.00  0.00    -0.148 NA
HETATM    6  C   UNL     1      24.178  46.333  49.735  1.00  0.00     0.199 A 
HETATM    7  C   UNL     1      25.543  46.065  49.883  1.00  0.00     0.034 A 
HETATM    8  C   UNL     1      26.010  44.688  50.194  1.00  0.00     0.108 A 
HETATM    9  C   UNL     1      24.840  43.708  50.244  1.00  0.00     0.081 A 
HETATM   10  C   UNL     1      25.165  42.329  50.413  1.00  0.00     0.100 C 
HETATM   11  N   UNL     1      25.437  41.205  50.507  1.00  0.00    -0.191 NA
HETATM   12  C   UNL     1      23.547  44.095  50.091  1.00  0.00     0.140 A 
HETATM   13  O   UNL     1      23.189  45.429  49.855  1.00  0.00    -0.277 OA
ENDROOT
BRANCH   8  14
HETATM   14  C   UNL     1      26.824  44.706  51.485  1.00  0.00    -0.010 A 
HETATM   15  C   UNL     1      26.446  45.364  52.668  1.00  0.00     0.076 A 
HETATM   16  C   UNL     1      27.236  45.285  53.822  1.00  0.00     0.049 A 
HETATM   17  C   UNL     1      28.381  44.477  53.858  1.00  0.00    -0.023 A 
HETATM   18  C   UNL     1      28.753  43.763  52.701  1.00  0.00    -0.025 A 
HETATM   19  C   UNL     1      29.155  44.352  55.023  1.00  0.00     0.012 A 
HETATM   20  C   UNL     1      27.983  43.899  51.532  1.00  0.00     0.023 A 
HETATM   21  C   UNL     1      29.879  42.925  52.744  1.00  0.00     0.012 A 
HETATM   22  C   UNL     1      30.631  42.797  53.913  1.00  0.00     0.001 A 
HETATM   23  C   UNL     1      30.272  43.515  55.051  1.00  0.00     0.001 A 
BRANCH  15  24
HETATM   24  O   UNL     1      25.329  46.156  52.672  1.00  0.00    -0.355 OA
HETATM   25  C   UNL     1      25.538  47.393  53.349  1.00  0.00     0.210 C 
ENDBRANCH  15  24
ENDBRANCH   8  14
BRANCH  12  26
HETATM   26  N   UNL     1      22.456  43.251  50.122  1.00  0.00    -0.282 NA
HETATM   27  H   UNL     1      22.366  42.676  50.957  1.00  0.00     0.126 HD
HETATM   28  H   UNL     1      22.370  42.717  49.259  1.00  0.00     0.126 HD
ENDBRANCH  12  26
TORSDOF 3
ENDMDL
MODEL 2
REMARK VINA RESULT:      -8.6      2.046      3.280
REMARK  3 active torsions:
REMARK  status: ('A' for Active; 'I' for Inactive)
REMARK    1  A    between atoms: C_8  and  C_9 
REMARK    2  A    between atoms: C_10  and  O_11 
REMARK    3  A    between atoms: C_24  and  N_25 
ROOT
HETATM    1  C   UNL     1      28.013  48.441  49.248  1.00  0.00     0.070 C 
HETATM    2  C   UNL     1      26.557  48.672  49.125  1.00  0.00     0.035 A 
HETATM    3  N   UNL     1      26.029  49.916  48.864  1.00  0.00    -0.280 N 
HETATM    4  H   UNL     1      26.527  50.791  48.734  1.00  0.00     0.189 HD
HETATM    5  N   UNL     1      24.686  49.930  48.762  1.00  0.00    -0.148 NA
HETATM    6  C   UNL     1      24.368  48.668  49.021  1.00  0.00     0.199 A 
HETATM    7  C   UNL     1      25.467  47.833  49.255  1.00  0.00     0.034 A 
HETATM    8  C   UNL     1      25.265  46.384  49.525  1.00  0.00     0.108 A 
HETATM    9  C   UNL     1      23.789  46.007  49.435  1.00  0.00     0.081 A 
HETATM   10  C   UNL     1      23.471  44.621  49.554  1.00  0.00     0.100 C 
HETATM   11  N   UNL     1      23.224  43.488  49.607  1.00  0.00    -0.191 NA
HETATM   12  C   UNL     1      22.807  46.918  49.207  1.00  0.00     0.140 A 
HETATM   13  O   UNL     1      23.081  48.279  49.017  1.00  0.00    -0.277 OA
ENDROOT
BRANCH   8  14
HETATM   14  C   UNL     1      25.887  46.027  50.873  1.00  0.00    -0.010 A 
HETATM   15  C   UNL     1      26.690  44.900  51.118  1.00  0.00     0.076 A 
HETATM   16  C   UNL     1      27.259  44.679  52.379  1.00  0.00     0.049 A 
HETATM   17  C   UNL     1      27.116  45.619  53.409  1.00  0.00    -0.023 A 
HETATM   18  C   UNL     1      26.361  46.786  53.173  1.00  0.00    -0.025 A 
HETATM   19  C   UNL     1      27.721  45.432  54.663  1.00  0.00     0.012 A 
HETATM   20  C   UNL     1      25.747  46.965  51.921  1.00  0.00     0.023 A 
HETATM   21  C   UNL     1      26.246  47.747  54.191  1.00  0.00     0.012 A 
HETATM   22  C   UNL     1      26.865  47.556  55.427  1.00  0.00     0.001 A 
HETATM   23  C   UNL     1      27.598  46.396  55.665  1.00  0.00     0.001 A 
BRANCH  15  24
HETATM   24  O   UNL     1      26.857  43.965  50.133  1.00  0.00    -0.355 OA
HETATM   25  C   UNL     1      26.917  42.635  50.645  1.00  0.00     0.210 C 
ENDBRANCH  15  24
ENDBRANCH   8  14
BRANCH  12  26
HETATM   26  N   UNL     1      21.461  46.629  49.111  1.00  0.00    -0.282 NA
HETATM   27  H   UNL     1      20.848  47.427  48.963  1.00  0.00     0.126 HD
HETATM   28  H   UNL     1      21.153  46.023  49.869  1.00  0.00     0.126 HD
ENDBRANCH  12  26
TORSDOF 3
ENDMDL
MODEL 3
REMARK VINA RESULT:      -8.5      4.707      8.468
REMARK  3 active torsions:
REMARK  status: ('A' for Active; 'I' for Inactive)
REMARK    1  A    between atoms: C_8  and  C_9 
REMARK    2  A    between atoms: C_10  and  O_11 
REMARK    3  A    between atoms: C_24  and  N_25 
ROOT
HETATM    1  C   UNL     1      20.270  46.961  45.331  1.00  0.00     0.070 C 
HETATM    2  C   UNL     1      20.512  45.989  46.421  1.00  0.00     0.035 A 
HETATM    3  N   UNL     1      19.797  44.818  46.533  1.00  0.00    -0.280 N 
HETATM    4  H   UNL     1      19.053  44.481  45.932  1.00  0.00     0.189 HD
HETATM    5  N   UNL     1      20.173  44.046  47.571  1.00  0.00    -0.148 NA
HETATM    6  C   UNL     1      21.110  44.786  48.151  1.00  0.00     0.199 A 
HETATM    7  C   UNL     1      21.374  45.996  47.501  1.00  0.00     0.034 A 
HETATM    8  C   UNL     1      22.424  46.914  48.017  1.00  0.00     0.108 A 
HETATM    9  C   UNL     1      23.136  46.311  49.226  1.00  0.00     0.081 A 
HETATM   10  C   UNL     1      24.249  47.038  49.744  1.00  0.00     0.100 C 
HETATM   11  N   UNL     1      25.181  47.610  50.133  1.00  0.00    -0.191 NA
HETATM   12  C   UNL     1      22.780  45.120  49.774  1.00  0.00     0.140 A 
HETATM   13  O   UNL     1      21.737  44.342  49.255  1.00  0.00    -0.277 OA
ENDROOT
BRANCH   8  14
HETATM   14  C   UNL     1      21.807  48.279  48.313  1.00  0.00    -0.010 A 
HETATM   15  C   UNL     1      22.339  49.511  47.898  1.00  0.00     0.076 A 
HETATM   16  C   UNL     1      21.676  50.713  48.175  1.00  0.00     0.049 A 
HETATM   17  C   UNL     1      20.419  50.717  48.797  1.00  0.00    -0.023 A 
HETATM   18  C   UNL     1      19.837  49.490  49.174  1.00  0.00    -0.025 A 
HETATM   19  C   UNL     1      19.722  51.912  49.037  1.00  0.00     0.012 A 
HETATM   20  C   UNL     1      20.542  48.296  48.943  1.00  0.00     0.023 A 
HETATM   21  C   UNL     1      18.563  49.487  49.765  1.00  0.00     0.012 A 
HETATM   22  C   UNL     1      17.874  50.681  49.984  1.00  0.00     0.001 A 
HETATM   23  C   UNL     1      18.456  51.894  49.625  1.00  0.00     0.001 A 
BRANCH  15  24
HETATM   24  O   UNL     1      23.561  49.545  47.282  1.00  0.00    -0.355 OA
HETATM   25  C   UNL     1      24.506  50.349  47.984  1.00  0.00     0.210 C 
ENDBRANCH  15  24
ENDBRANCH   8  14
BRANCH  12  26
HETATM   26  N   UNL     1      23.393  44.530  50.860  1.00  0.00    -0.282 NA
HETATM   27  H   UNL     1      22.821  43.876  51.389  1.00  0.00     0.126 HD
HETATM   28  H   UNL     1      23.859  45.219  51.448  1.00  0.00     0.126 HD
ENDBRANCH  12  26
TORSDOF 3
ENDMDL
MODEL 4
REMARK VINA RESULT:      -8.4      2.429      5.544
REMARK  3 active torsions:
REMARK  status: ('A' for Active; 'I' for Inactive)
REMARK    1  A    between atoms: C_8  and  C_9 
REMARK    2  A    between atoms: C_10  and  O_11 
REMARK    3  A    between atoms: C_24  and  N_25 
ROOT
HETATM    1  C   UNL     1      26.097  46.137  54.456  1.00  0.00     0.070 C 
HETATM    2  C   UNL     1      27.116  45.183  53.964  1.00  0.00     0.035 A 
HETATM    3  N   UNL     1      28.376  45.106  54.514  1.00  0.00    -0.280 N 
HETATM    4  H   UNL     1      28.760  45.656  55.275  1.00  0.00     0.189 HD
HETATM    5  N   UNL     1      29.159  44.162  53.956  1.00  0.00    -0.148 NA
HETATM    6  C   UNL     1      28.380  43.678  52.996  1.00  0.00     0.199 A 
HETATM    7  C   UNL     1      27.107  44.257  52.939  1.00  0.00     0.034 A 
HETATM    8  C   UNL     1      26.114  43.790  51.936  1.00  0.00     0.108 A 
HETATM    9  C   UNL     1      26.666  42.628  51.113  1.00  0.00     0.081 A 
HETATM   10  C   UNL     1      25.767  42.007  50.196  1.00  0.00     0.100 C 
HETATM   11  N   UNL     1      25.019  41.477  49.484  1.00  0.00    -0.191 NA
HETATM   12  C   UNL     1      27.932  42.157  51.259  1.00  0.00     0.140 A 
HETATM   13  O   UNL     1      28.825  42.694  52.195  1.00  0.00    -0.277 OA
ENDROOT
BRANCH   8  14
HETATM   14  C   UNL     1      25.670  44.969  51.073  1.00  0.00    -0.010 A 
HETATM   15  C   UNL     1      24.340  45.256  50.723  1.00  0.00     0.076 A 
HETATM   16  C   UNL     1      24.022  46.390  49.965  1.00  0.00     0.049 A 
HETATM   17  C   UNL     1      25.010  47.319  49.608  1.00  0.00    -0.023 A 
HETATM   18  C   UNL     1      26.345  47.083  49.994  1.00  0.00    -0.025 A 
HETATM   19  C   UNL     1      24.696  48.484  48.889  1.00  0.00     0.012 A 
HETATM   20  C   UNL     1      26.657  45.910  50.703  1.00  0.00     0.023 A 
HETATM   21  C   UNL     1      27.331  48.029  49.669  1.00  0.00     0.012 A 
HETATM   22  C   UNL     1      27.003  49.190  48.968  1.00  0.00     0.001 A 
HETATM   23  C   UNL     1      25.687  49.416  48.574  1.00  0.00     0.001 A 
BRANCH  15  24
HETATM   24  O   UNL     1      23.348  44.375  51.061  1.00  0.00    -0.355 OA
HETATM   25  C   UNL     1      22.596  43.937  49.932  1.00  0.00     0.210 C 
ENDBRANCH  15  24
ENDBRANCH   8  14
BRANCH  12  26
HETATM   26  N   UNL     1      28.476  41.108  50.546  1.00  0.00    -0.282 NA
HETATM   27  H   UNL     1      29.141  41.365  49.820  1.00  0.00     0.126 HD
HETATM   28  H   UNL     1      27.759  40.463  50.221  1.00  0.00     0.126 HD
ENDBRANCH  12  26
TORSDOF 3
ENDMDL
MODEL 5
REMARK VINA RESULT:      -8.3     11.915     13.555
REMARK  3 active torsions:
REMARK  status: ('A' for Active; 'I' for Inactive)
REMARK    1  A    between atoms: C_8  and  C_9 
REMARK    2  A    between atoms: C_10  and  O_11 
REMARK    3  A    between atoms: C_24  and  N_25 
ROOT
HETATM    1  C   UNL     1      33.462  48.481  41.649  1.00  0.00     0.070 C 
HETATM    2  C   UNL     1      33.045  49.885  41.864  1.00  0.00     0.035 A 
HETATM    3  N   UNL     1      33.559  50.656  42.881  1.00  0.00    -0.280 N 
HETATM    4  H   UNL     1      34.243  50.390  43.582  1.00  0.00     0.189 HD
HETATM    5  N   UNL     1      33.082  51.916  42.907  1.00  0.00    -0.148 NA
HETATM    6  C   UNL     1      32.206  51.908  41.909  1.00  0.00     0.199 A 
HETATM    7  C   UNL     1      32.127  50.693  41.221  1.00  0.00     0.034 A 
HETATM    8  C   UNL     1      31.212  50.546  40.058  1.00  0.00     0.108 A 
HETATM    9  C   UNL     1      30.504  51.862  39.745  1.00  0.00     0.081 A 
HETATM   10  C   UNL     1      29.688  51.890  38.574  1.00  0.00     0.100 C 
HETATM   11  N   UNL     1      29.062  51.921  37.598  1.00  0.00    -0.191 NA
HETATM   12  C   UNL     1      30.660  52.981  40.499  1.00  0.00     0.140 A 
HETATM   13  O   UNL     1      31.503  53.017  41.617  1.00  0.00    -0.277 OA
ENDROOT
BRANCH   8  14
HETATM   14  C   UNL     1      30.241  49.397  40.315  1.00  0.00    -0.010 A 
HETATM   15  C   UNL     1      29.082  49.482  41.105  1.00  0.00     0.076 A 
HETATM   16  C   UNL     1      28.222  48.385  41.246  1.00  0.00     0.049 A 
HETATM   17  C   UNL     1      28.445  47.198  40.534  1.00  0.00    -0.023 A 
HETATM   18  C   UNL     1      29.572  47.105  39.692  1.00  0.00    -0.025 A 
HETATM   19  C   UNL     1      27.565  46.108  40.630  1.00  0.00     0.012 A 
HETATM   20  C   UNL     1      30.458  48.193  39.607  1.00  0.00     0.023 A 
HETATM   21  C   UNL     1      29.779  45.931  38.950  1.00  0.00     0.012 A 
HETATM   22  C   UNL     1      28.888  44.861  39.042  1.00  0.00     0.001 A 
HETATM   23  C   UNL     1      27.784  44.947  39.886  1.00  0.00     0.001 A 
BRANCH  15  24
HETATM   24  O   UNL     1      28.828  50.629  41.808  1.00  0.00    -0.355 OA
HETATM   25  C   UNL     1      27.576  51.218  41.461  1.00  0.00     0.210 C 
ENDBRANCH  15  24
ENDBRANCH   8  14
BRANCH  12  26
HETATM   26  N   UNL     1      30.048  54.195  40.257  1.00  0.00    -0.282 NA
HETATM   27  H   UNL     1      30.453  54.996  40.734  1.00  0.00     0.126 HD
HETATM   28  H   UNL     1      29.037  54.133  40.366  1.00  0.00     0.126 HD
ENDBRANCH  12  26
TORSDOF 3
ENDMDL
MODEL 6
REMARK VINA RESULT:      -7.9      7.465     11.047
REMARK  3 active torsions:
REMARK  status: ('A' for Active; 'I' for Inactive)
REMARK    1  A    between atoms: C_8  and  C_9 
REMARK    2  A    between atoms: C_10  and  O_11 
REMARK    3  A    between atoms: C_24  and  N_25 
ROOT
HETATM    1  C   UNL     1      21.809  51.246  48.820  1.00  0.00     0.070 C 
HETATM    2  C   UNL     1      21.797  49.814  48.448  1.00  0.00     0.035 A 
HETATM    3  N   UNL     1      22.938  49.144  48.068  1.00  0.00    -0.280 N 
HETATM    4  H   UNL     1      23.881  49.511  47.989  1.00  0.00     0.189 HD
HETATM    5  N   UNL     1      22.740  47.841  47.790  1.00  0.00    -0.148 NA
HETATM    6  C   UNL     1      21.428  47.713  47.950  1.00  0.00     0.199 A 
HETATM    7  C   UNL     1      20.779  48.885  48.353  1.00  0.00     0.034 A 
HETATM    8  C   UNL     1      19.313  48.884  48.604  1.00  0.00     0.108 A 
HETATM    9  C   UNL     1      18.725  47.486  48.426  1.00  0.00     0.081 A 
HETATM   10  C   UNL     1      17.347  47.322  48.757  1.00  0.00     0.100 C 
HETATM   11  N   UNL     1      16.237  47.185  49.069  1.00  0.00    -0.191 NA
HETATM   12  C   UNL     1      19.464  46.421  48.020  1.00  0.00     0.140 A 
HETATM   13  O   UNL     1      20.835  46.523  47.751  1.00  0.00    -0.277 OA
ENDROOT
BRANCH   8  14
HETATM   14  C   UNL     1      18.643  49.926  47.712  1.00  0.00    -0.010 A 
HETATM   15  C   UNL     1      18.053  51.117  48.167  1.00  0.00     0.076 A 
HETATM   16  C   UNL     1      17.504  52.040  47.268  1.00  0.00     0.049 A 
HETATM   17  C   UNL     1      17.604  51.845  45.883  1.00  0.00    -0.023 A 
HETATM   18  C   UNL     1      18.240  50.684  45.399  1.00  0.00    -0.025 A 
HETATM   19  C   UNL     1      17.099  52.786  44.971  1.00  0.00     0.012 A 
HETATM   20  C   UNL     1      18.734  49.739  46.314  1.00  0.00     0.023 A 
HETATM   21  C   UNL     1      18.374  50.503  44.013  1.00  0.00     0.012 A 
HETATM   22  C   UNL     1      17.882  51.453  43.117  1.00  0.00     0.001 A 
HETATM   23  C   UNL     1      17.240  52.592  43.595  1.00  0.00     0.001 A 
BRANCH  15  24
HETATM   24  O   UNL     1      17.945  51.345  49.513  1.00  0.00    -0.355 OA
HETATM   25  C   UNL     1      16.968  52.337  49.823  1.00  0.00     0.210 C 
ENDBRANCH  15  24
ENDBRANCH   8  14
BRANCH  12  26
HETATM   26  N   UNL     1      18.983  45.139  47.850  1.00  0.00    -0.282 NA
HETATM   27  H   UNL     1      19.562  44.521  47.285  1.00  0.00     0.126 HD
HETATM   28  H   UNL     1      18.005  45.140  47.566  1.00  0.00     0.126 HD
ENDBRANCH  12  26
TORSDOF 3
ENDMDL
MODEL 7
REMARK VINA RESULT:      -7.7      9.397     12.860
REMARK  3 active torsions:
REMARK  status: ('A' for Active; 'I' for Inactive)
REMARK    1  A    between atoms: C_8  and  C_9 
REMARK    2  A    between atoms: C_10  and  O_11 
REMARK    3  A    between atoms: C_24  and  N_25 
ROOT
HETATM    1  C   UNL     1      19.321  52.363  48.437  1.00  0.00     0.070 C 
HETATM    2  C   UNL     1      19.401  50.889  48.327  1.00  0.00     0.035 A 
HETATM    3  N   UNL     1      20.528  50.186  48.687  1.00  0.00    -0.280 N 
HETATM    4  H   UNL     1      21.404  50.551  49.046  1.00  0.00     0.189 HD
HETATM    5  N   UNL     1      20.409  48.851  48.544  1.00  0.00    -0.148 NA
HETATM    6  C   UNL     1      19.192  48.729  48.029  1.00  0.00     0.199 A 
HETATM    7  C   UNL     1      18.509  49.939  47.866  1.00  0.00     0.034 A 
HETATM    8  C   UNL     1      17.122  49.954  47.332  1.00  0.00     0.108 A 
HETATM    9  C   UNL     1      16.610  48.537  47.089  1.00  0.00     0.081 A 
HETATM   10  C   UNL     1      15.246  48.406  46.690  1.00  0.00     0.100 C 
HETATM   11  N   UNL     1      14.125  48.303  46.410  1.00  0.00    -0.191 NA
HETATM   12  C   UNL     1      17.378  47.432  47.279  1.00  0.00     0.140 A 
HETATM   13  O   UNL     1      18.700  47.512  47.735  1.00  0.00    -0.277 OA
ENDROOT
BRANCH   8  14
HETATM   14  C   UNL     1      17.068  50.827  46.080  1.00  0.00    -0.010 A 
HETATM   15  C   UNL     1      16.394  52.056  45.982  1.00  0.00     0.076 A 
HETATM   16  C   UNL     1      16.440  52.812  44.804  1.00  0.00     0.049 A 
HETATM   17  C   UNL     1      17.230  52.409  43.718  1.00  0.00    -0.023 A 
HETATM   18  C   UNL     1      17.961  51.207  43.811  1.00  0.00    -0.025 A 
HETATM   19  C   UNL     1      17.323  53.182  42.550  1.00  0.00     0.012 A 
HETATM   20  C   UNL     1      17.857  50.429  44.978  1.00  0.00     0.023 A 
HETATM   21  C   UNL     1      18.782  50.818  42.740  1.00  0.00     0.012 A 
HETATM   22  C   UNL     1      18.877  51.604  41.591  1.00  0.00     0.001 A 
HETATM   23  C   UNL     1      18.143  52.783  41.493  1.00  0.00     0.001 A 
BRANCH  15  24
HETATM   24  O   UNL     1      15.618  52.485  47.025  1.00  0.00    -0.355 OA
HETATM   25  C   UNL     1      14.594  53.386  46.611  1.00  0.00     0.210 C 
ENDBRANCH  15  24
ENDBRANCH   8  14
BRANCH  12  26
HETATM   26  N   UNL     1      16.963  46.132  47.080  1.00  0.00    -0.282 NA
HETATM   27  H   UNL     1      16.004  45.927  47.351  1.00  0.00     0.126 HD
HETATM   28  H   UNL     1      17.634  45.462  47.452  1.00  0.00     0.126 HD
ENDBRANCH  12  26
TORSDOF 3
ENDMDL
MODEL 8
REMARK VINA RESULT:      -7.7      8.436     10.920
REMARK  3 active torsions:
REMARK  status: ('A' for Active; 'I' for Inactive)
REMARK    1  A    between atoms: C_8  and  C_9 
REMARK    2  A    between atoms: C_10  and  O_11 
REMARK    3  A    between atoms: C_24  and  N_25 
ROOT
HETATM    1  C   UNL     1      16.824  47.436  49.035  1.00  0.00     0.070 C 
HETATM    2  C   UNL     1      16.952  47.412  47.561  1.00  0.00     0.035 A 
HETATM    3  N   UNL     1      16.963  46.238  46.843  1.00  0.00    -0.280 N 
HETATM    4  H   UNL     1      16.897  45.289  47.197  1.00  0.00     0.189 HD
HETATM    5  N   UNL     1      17.061  46.412  45.511  1.00  0.00    -0.148 NA
HETATM    6  C   UNL     1      17.167  47.731  45.404  1.00  0.00     0.199 A 
HETATM    7  C   UNL     1      17.109  48.415  46.623  1.00  0.00     0.034 A 
HETATM    8  C   UNL     1      17.182  49.900  46.656  1.00  0.00     0.108 A 
HETATM    9  C   UNL     1      17.251  50.480  45.245  1.00  0.00     0.081 A 
HETATM   10  C   UNL     1      17.201  51.901  45.131  1.00  0.00     0.100 C 
HETATM   11  N   UNL     1      17.116  53.055  45.042  1.00  0.00    -0.191 NA
HETATM   12  C   UNL     1      17.309  49.704  44.131  1.00  0.00     0.140 A 
HETATM   13  O   UNL     1      17.292  48.304  44.194  1.00  0.00    -0.277 OA
ENDROOT
BRANCH   8  14
HETATM   14  C   UNL     1      18.354  50.333  47.533  1.00  0.00    -0.010 A 
HETATM   15  C   UNL     1      18.244  50.805  48.852  1.00  0.00     0.076 A 
HETATM   16  C   UNL     1      19.382  51.134  49.598  1.00  0.00     0.049 A 
HETATM   17  C   UNL     1      20.669  50.921  49.082  1.00  0.00    -0.023 A 
HETATM   18  C   UNL     1      20.808  50.398  47.781  1.00  0.00    -0.025 A 
HETATM   19  C   UNL     1      21.819  51.203  49.838  1.00  0.00     0.012 A 
HETATM   20  C   UNL     1      19.656  50.127  47.023  1.00  0.00     0.023 A 
HETATM   21  C   UNL     1      22.095  50.149  47.275  1.00  0.00     0.012 A 
HETATM   22  C   UNL     1      23.229  50.418  48.043  1.00  0.00     0.001 A 
HETATM   23  C   UNL     1      23.091  50.950  49.322  1.00  0.00     0.001 A 
BRANCH  15  24
HETATM   24  O   UNL     1      17.004  51.018  49.390  1.00  0.00    -0.355 OA
HETATM   25  C   UNL     1      16.813  52.368  49.808  1.00  0.00     0.210 C 
ENDBRANCH  15  24
ENDBRANCH   8  14
BRANCH  12  26
HETATM   26  N   UNL     1      17.367  50.177  42.836  1.00  0.00    -0.282 NA
HETATM   27  H   UNL     1      18.288  50.462  42.511  1.00  0.00     0.126 HD
HETATM   28  H   UNL     1      16.646  50.874  42.658  1.00  0.00     0.126 HD
ENDBRANCH  12  26
TORSDOF 3
ENDMDL
MODEL 9
REMARK VINA RESULT:      -7.6      7.549     10.198
REMARK  3 active torsions:
REMARK  status: ('A' for Active; 'I' for Inactive)
REMARK    1  A    between atoms: C_8  and  C_9 
REMARK    2  A    between atoms: C_10  and  O_11 
REMARK    3  A    between atoms: C_24  and  N_25 
ROOT
HETATM    1  C   UNL     1      16.876  47.518  49.250  1.00  0.00     0.070 C 
HETATM    2  C   UNL     1      17.270  46.634  48.130  1.00  0.00     0.035 A 
HETATM    3  N   UNL     1      17.315  45.264  48.257  1.00  0.00    -0.280 N 
HETATM    4  H   UNL     1      17.106  44.706  49.078  1.00  0.00     0.189 HD
HETATM    5  N   UNL     1      17.669  44.622  47.127  1.00  0.00    -0.148 NA
HETATM    6  C   UNL     1      17.904  45.626  46.291  1.00  0.00     0.199 A 
HETATM    7  C   UNL     1      17.680  46.895  46.837  1.00  0.00     0.034 A 
HETATM    8  C   UNL     1      17.868  48.114  46.006  1.00  0.00     0.108 A 
HETATM    9  C   UNL     1      18.243  47.750  44.571  1.00  0.00     0.081 A 
HETATM   10  C   UNL     1      18.334  48.826  43.639  1.00  0.00     0.100 C 
HETATM   11  N   UNL     1      18.363  49.700  42.875  1.00  0.00    -0.191 NA
HETATM   12  C   UNL     1      18.441  46.470  44.162  1.00  0.00     0.140 A 
HETATM   13  O   UNL     1      18.295  45.378  45.029  1.00  0.00    -0.277 OA
ENDROOT
BRANCH   8  14
HETATM   14  C   UNL     1      18.892  49.030  46.672  1.00  0.00    -0.010 A 
HETATM   15  C   UNL     1      18.640  50.343  47.102  1.00  0.00     0.076 A 
HETATM   16  C   UNL     1      19.629  51.094  47.749  1.00  0.00     0.049 A 
HETATM   17  C   UNL     1      20.873  50.528  48.064  1.00  0.00    -0.023 A 
HETATM   18  C   UNL     1      21.133  49.194  47.692  1.00  0.00    -0.025 A 
HETATM   19  C   UNL     1      21.857  51.255  48.755  1.00  0.00     0.012 A 
HETATM   20  C   UNL     1      20.151  48.472  46.991  1.00  0.00     0.023 A 
HETATM   21  C   UNL     1      22.364  48.612  48.038  1.00  0.00     0.012 A 
HETATM   22  C   UNL     1      23.327  49.340  48.738  1.00  0.00     0.001 A 
HETATM   23  C   UNL     1      23.076  50.663  49.092  1.00  0.00     0.001 A 
BRANCH  15  24
HETATM   24  O   UNL     1      17.434  50.926  46.819  1.00  0.00    -0.355 OA
HETATM   25  C   UNL     1      17.520  51.874  45.757  1.00  0.00     0.210 C 
ENDBRANCH  15  24
ENDBRANCH   8  14
BRANCH  12  26
HETATM   26  N   UNL     1      18.775  46.088  42.879  1.00  0.00    -0.282 NA
HETATM   27  H   UNL     1      18.895  45.089  42.733  1.00  0.00     0.126 HD
HETATM   28  H   UNL     1      19.546  46.642  42.512  1.00  0.00     0.126 HD
ENDBRANCH  12  26
TORSDOF 3
ENDMDL
MODEL 10
REMARK VINA RESULT:      -7.5      3.597      7.372
REMARK  3 active torsions:
REMARK  status: ('A' for Active; 'I' for Inactive)
REMARK    1  A    between atoms: C_8  and  C_9 
REMARK    2  A    between atoms: C_10  and  O_11 
REMARK    3  A    between atoms: C_24  and  N_25 
ROOT
HETATM    1  C   UNL     1      22.777  45.315  46.339  1.00  0.00     0.070 C 
HETATM    2  C   UNL     1      22.812  44.661  47.666  1.00  0.00     0.035 A 
HETATM    3  N   UNL     1      22.156  43.478  47.920  1.00  0.00    -0.280 N 
HETATM    4  H   UNL     1      21.590  42.929  47.281  1.00  0.00     0.189 HD
HETATM    5  N   UNL     1      22.322  43.019  49.175  1.00  0.00    -0.148 NA
HETATM    6  C   UNL     1      23.058  43.974  49.732  1.00  0.00     0.199 A 
HETATM    7  C   UNL     1      23.399  45.018  48.865  1.00  0.00     0.034 A 
HETATM    8  C   UNL     1      24.250  46.142  49.340  1.00  0.00     0.108 A 
HETATM    9  C   UNL     1      24.694  45.924  50.784  1.00  0.00     0.081 A 
HETATM   10  C   UNL     1      25.616  46.871  51.323  1.00  0.00     0.100 C 
HETATM   11  N   UNL     1      26.399  47.618  51.740  1.00  0.00    -0.191 NA
HETATM   12  C   UNL     1      24.285  44.864  51.530  1.00  0.00     0.140 A 
HETATM   13  O   UNL     1      23.435  43.875  51.018  1.00  0.00    -0.277 OA
ENDROOT
BRANCH   8  14
HETATM   14  C   UNL     1      23.507  47.461  49.141  1.00  0.00    -0.010 A 
HETATM   15  C   UNL     1      24.111  48.683  48.798  1.00  0.00     0.076 A 
HETATM   16  C   UNL     1      23.343  49.834  48.588  1.00  0.00     0.049 A 
HETATM   17  C   UNL     1      21.942  49.784  48.629  1.00  0.00    -0.023 A 
HETATM   18  C   UNL     1      21.308  48.558  48.917  1.00  0.00    -0.025 A 
HETATM   19  C   UNL     1      21.158  50.920  48.373  1.00  0.00     0.012 A 
HETATM   20  C   UNL     1      22.095  47.424  49.183  1.00  0.00     0.023 A 
HETATM   21  C   UNL     1      19.905  48.495  48.922  1.00  0.00     0.012 A 
HETATM   22  C   UNL     1      19.138  49.629  48.651  1.00  0.00     0.001 A 
HETATM   23  C   UNL     1      19.764  50.843  48.382  1.00  0.00     0.001 A 
BRANCH  15  24
HETATM   24  O   UNL     1      25.476  48.768  48.742  1.00  0.00    -0.355 OA
HETATM   25  C   UNL     1      25.925  49.923  48.037  1.00  0.00     0.210 C 
ENDBRANCH  15  24
ENDBRANCH   8  14
BRANCH  12  26
HETATM   26  N   UNL     1      24.661  44.618  52.834  1.00  0.00    -0.282 NA
HETATM   27  H   UNL     1      25.658  44.489  52.990  1.00  0.00     0.126 HD
HETATM   28  H   UNL     1      24.093  43.887  53.257  1.00  0.00     0.126 HD
ENDBRANCH  12  26
TORSDOF 3
ENDMDL
