MODEL 1
REMARK VINA RESULT:      -9.3      0.000      0.000
REMARK  9 active torsions:
REMARK  status: ('A' for Active; 'I' for Inactive)
REMARK    1  A    between atoms: C_2  and  C_3 
REMARK    2  A    between atoms: C_6  and  C_7 
REMARK    3  A    between atoms: C_7  and  C_8 
REMARK    4  A    between atoms: C_8  and  N_9 
REMARK    5  A    between atoms: N_9  and  C_11 
REMARK    6  A    between atoms: N_9  and  C_25 
REMARK    7  A    between atoms: C_11  and  C_12 
REMARK       I    between atoms: C_12  and  N_13 
REMARK    8  A    between atoms: N_13  and  C_14 
REMARK    9  A    between atoms: C_17  and  N_18 
REMARK       I    between atoms: N_18  and  C_19 
ROOT
HETATM    1  N   UNL     1      24.756  46.856  50.806  1.00  0.00    -0.056 N 
HETATM    2  H   UNL     1      24.150  47.234  51.552  1.00  0.00     0.280 HD
ENDROOT
BRANCH   1   3
HETATM    3  C   UNL     1      26.158  46.718  51.456  1.00  0.00     0.319 C 
BRANCH   3   4
HETATM    4  C   UNL     1      26.096  47.061  52.936  1.00  0.00     0.187 C 
HETATM    5  O   UNL     1      25.222  47.865  53.282  1.00  0.00    -0.290 OA
BRANCH   4   6
HETATM    6  C   UNL     1      27.109  46.577  53.867  1.00  0.00     0.039 A 
HETATM    7  C   UNL     1      27.784  45.309  53.982  1.00  0.00     0.006 A 
HETATM    8  C   UNL     1      28.755  45.447  54.983  1.00  0.00     0.049 A 
HETATM    9  C   UNL     1      27.688  44.053  53.340  1.00  0.00     0.015 A 
HETATM   10  C   UNL     1      29.665  44.432  55.338  1.00  0.00    -0.031 A 
HETATM   11  N   UNL     1      28.618  46.710  55.511  1.00  0.00    -0.364 N 
HETATM   12  C   UNL     1      29.541  43.212  54.654  1.00  0.00     0.009 A 
HETATM   13  C   UNL     1      28.570  43.021  53.679  1.00  0.00     0.002 A 
HETATM   14  C   UNL     1      27.640  47.393  54.851  1.00  0.00     0.104 A 
HETATM   15  H   UNL     1      29.174  47.073  56.276  1.00  0.00     0.165 HD
BRANCH  10  16
HETATM   16  C   UNL     1      30.719  44.586  56.408  1.00  0.00     0.036 C 
HETATM   17  C   UNL     1      31.411  43.267  56.711  1.00  0.00     0.010 C 
ENDBRANCH  10  16
ENDBRANCH   4   6
ENDBRANCH   3   4
ENDBRANCH   1   3
BRANCH   1  18
HETATM   18  C   UNL     1      24.753  47.931  49.694  1.00  0.00     0.338 C 
BRANCH  18  19
HETATM   19  C   UNL     1      23.368  48.180  49.077  1.00  0.00     0.248 C 
HETATM   20  N   UNL     1      22.542  48.966  49.856  1.00  0.00    -0.326 N 
HETATM   21  H   UNL     1      22.773  49.103  50.834  1.00  0.00     0.169 HD
HETATM   22  O   UNL     1      23.113  47.739  47.959  1.00  0.00    -0.271 OA
BRANCH  20  23
HETATM   23  C   UNL     1      21.322  49.556  49.453  1.00  0.00     0.034 A 
HETATM   24  C   UNL     1      21.354  50.897  49.062  1.00  0.00     0.032 A 
HETATM   25  C   UNL     1      20.187  51.550  48.638  1.00  0.00     0.032 A 
HETATM   26  C   UNL     1      18.972  50.870  48.585  1.00  0.00     0.034 A 
HETATM   27  C   UNL     1      18.946  49.523  48.958  1.00  0.00     0.032 A 
HETATM   28  C   UNL     1      20.109  48.870  49.389  1.00  0.00     0.032 A 
BRANCH  26  29
HETATM   29  N   UNL     1      17.754  51.454  48.186  1.00  0.00    -0.328 N 
HETATM   30  C   UNL     1      16.744  51.933  49.001  1.00  0.00     0.218 C 
HETATM   31  C   UNL     1      15.566  52.462  48.222  1.00  0.00     0.117 C 
HETATM   32  O   UNL     1      16.754  51.978  50.227  1.00  0.00    -0.274 OA
HETATM   33  H   UNL     1      17.601  51.527  47.188  1.00  0.00     0.169 HD
ENDBRANCH  26  29
ENDBRANCH  20  23
ENDBRANCH  18  19
ENDBRANCH   1  18
BRANCH   1  34
HETATM   34  C   UNL     1      24.196  45.535  50.334  1.00  0.00     0.231 C 
HETATM   35  C   UNL     1      24.539  44.440  51.328  1.00  0.00     0.034 C 
ENDBRANCH   1  34
TORSDOF 9
ENDMDL
MODEL 2
REMARK VINA RESULT:      -9.3      1.639      2.319
REMARK  9 active torsions:
REMARK  status: ('A' for Active; 'I' for Inactive)
REMARK    1  A    between atoms: C_2  and  C_3 
REMARK    2  A    between atoms: C_6  and  C_7 
REMARK    3  A    between atoms: C_7  and  C_8 
REMARK    4  A    between atoms: C_8  and  N_9 
REMARK    5  A    between atoms: N_9  and  C_11 
REMARK    6  A    between atoms: N_9  and  C_25 
REMARK    7  A    between atoms: C_11  and  C_12 
REMARK       I    between atoms: C_12  and  N_13 
REMARK    8  A    between atoms: N_13  and  C_14 
REMARK    9  A    between atoms: C_17  and  N_18 
REMARK       I    between atoms: N_18  and  C_19 
ROOT
HETATM    1  N   UNL     1      25.380  44.822  50.291  1.00  0.00    -0.056 N 
HETATM    2  H   UNL     1      24.526  45.036  50.832  1.00  0.00     0.280 HD
ENDROOT
BRANCH   1   3
HETATM    3  C   UNL     1      26.367  44.214  51.322  1.00  0.00     0.319 C 
BRANCH   3   4
HETATM    4  C   UNL     1      25.892  44.484  52.741  1.00  0.00     0.187 C 
HETATM    5  O   UNL     1      24.669  44.472  52.927  1.00  0.00    -0.290 OA
BRANCH   4   6
HETATM    6  C   UNL     1      26.826  44.881  53.788  1.00  0.00     0.039 A 
HETATM    7  C   UNL     1      28.058  44.295  54.253  1.00  0.00     0.006 A 
HETATM    8  C   UNL     1      28.601  45.172  55.200  1.00  0.00     0.049 A 
HETATM    9  C   UNL     1      28.783  43.115  53.969  1.00  0.00     0.015 A 
HETATM   10  C   UNL     1      29.845  44.971  55.833  1.00  0.00    -0.031 A 
HETATM   11  N   UNL     1      27.702  46.199  55.368  1.00  0.00    -0.364 N 
HETATM   12  C   UNL     1      30.535  43.795  55.498  1.00  0.00     0.009 A 
HETATM   13  C   UNL     1      30.015  42.881  54.591  1.00  0.00     0.002 A 
HETATM   14  C   UNL     1      26.639  46.036  54.528  1.00  0.00     0.104 A 
HETATM   15  H   UNL     1      27.823  46.965  56.018  1.00  0.00     0.165 HD
BRANCH  10  16
HETATM   16  C   UNL     1      30.435  45.923  56.844  1.00  0.00     0.036 C 
HETATM   17  C   UNL     1      30.489  45.307  58.233  1.00  0.00     0.010 C 
ENDBRANCH  10  16
ENDBRANCH   4   6
ENDBRANCH   3   4
ENDBRANCH   1   3
BRANCH   1  18
HETATM   18  C   UNL     1      25.883  46.188  49.767  1.00  0.00     0.338 C 
BRANCH  18  19
HETATM   19  C   UNL     1      24.954  47.362  50.111  1.00  0.00     0.248 C 
HETATM   20  N   UNL     1      24.298  47.896  49.019  1.00  0.00    -0.326 N 
HETATM   21  H   UNL     1      24.639  47.680  48.088  1.00  0.00     0.169 HD
HETATM   22  O   UNL     1      24.811  47.700  51.284  1.00  0.00    -0.271 OA
BRANCH  20  23
HETATM   23  C   UNL     1      23.216  48.805  49.053  1.00  0.00     0.034 A 
HETATM   24  C   UNL     1      21.926  48.276  48.961  1.00  0.00     0.032 A 
HETATM   25  C   UNL     1      20.801  49.112  48.998  1.00  0.00     0.032 A 
HETATM   26  C   UNL     1      20.947  50.491  49.142  1.00  0.00     0.034 A 
HETATM   27  C   UNL     1      22.237  51.017  49.254  1.00  0.00     0.032 A 
HETATM   28  C   UNL     1      23.363  50.184  49.209  1.00  0.00     0.032 A 
BRANCH  26  29
HETATM   29  N   UNL     1      19.872  51.402  49.174  1.00  0.00    -0.328 N 
HETATM   30  C   UNL     1      18.690  51.282  49.883  1.00  0.00     0.218 C 
HETATM   31  C   UNL     1      17.750  52.439  49.650  1.00  0.00     0.117 C 
HETATM   32  O   UNL     1      18.389  50.378  50.655  1.00  0.00    -0.274 OA
HETATM   33  H   UNL     1      19.978  52.235  48.610  1.00  0.00     0.169 HD
ENDBRANCH  26  29
ENDBRANCH  20  23
ENDBRANCH  18  19
ENDBRANCH   1  18
BRANCH   1  34
HETATM   34  C   UNL     1      25.035  43.866  49.175  1.00  0.00     0.231 C 
HETATM   35  C   UNL     1      23.694  44.238  48.568  1.00  0.00     0.034 C 
ENDBRANCH   1  34
TORSDOF 9
ENDMDL
MODEL 3
REMARK VINA RESULT:      -9.2      1.268      1.843
REMARK  9 active torsions:
REMARK  status: ('A' for Active; 'I' for Inactive)
REMARK    1  A    between atoms: C_2  and  C_3 
REMARK    2  A    between atoms: C_6  and  C_7 
REMARK    3  A    between atoms: C_7  and  C_8 
REMARK    4  A    between atoms: C_8  and  N_9 
REMARK    5  A    between atoms: N_9  and  C_11 
REMARK    6  A    between atoms: N_9  and  C_25 
REMARK    7  A    between atoms: C_11  and  C_12 
REMARK       I    between atoms: C_12  and  N_13 
REMARK    8  A    between atoms: N_13  and  C_14 
REMARK    9  A    between atoms: C_17  and  N_18 
REMARK       I    between atoms: N_18  and  C_19 
ROOT
HETATM    1  N   UNL     1      24.539  46.666  50.295  1.00  0.00    -0.056 N 
HETATM    2  H   UNL     1      23.555  46.415  50.489  1.00  0.00     0.280 HD
ENDROOT
BRANCH   1   3
HETATM    3  C   UNL     1      25.224  46.716  51.686  1.00  0.00     0.319 C 
BRANCH   3   4
HETATM    4  C   UNL     1      25.353  45.317  52.268  1.00  0.00     0.187 C 
HETATM    5  O   UNL     1      24.305  44.672  52.398  1.00  0.00    -0.290 OA
BRANCH   4   6
HETATM    6  C   UNL     1      26.627  44.825  52.779  1.00  0.00     0.039 A 
HETATM    7  C   UNL     1      27.445  45.242  53.890  1.00  0.00     0.006 A 
HETATM    8  C   UNL     1      28.501  44.328  53.992  1.00  0.00     0.049 A 
HETATM    9  C   UNL     1      27.404  46.294  54.834  1.00  0.00     0.015 A 
HETATM   10  C   UNL     1      29.479  44.369  55.007  1.00  0.00    -0.031 A 
HETATM   11  N   UNL     1      28.382  43.448  52.941  1.00  0.00    -0.364 N 
HETATM   12  C   UNL     1      29.378  45.420  55.931  1.00  0.00     0.009 A 
HETATM   13  C   UNL     1      28.367  46.369  55.846  1.00  0.00     0.002 A 
HETATM   14  C   UNL     1      27.265  43.735  52.212  1.00  0.00     0.104 A 
HETATM   15  H   UNL     1      29.030  42.695  52.749  1.00  0.00     0.165 HD
BRANCH  10  16
HETATM   16  C   UNL     1      30.610  43.376  55.122  1.00  0.00     0.036 C 
HETATM   17  C   UNL     1      31.275  43.436  56.488  1.00  0.00     0.010 C 
ENDBRANCH  10  16
ENDBRANCH   4   6
ENDBRANCH   3   4
ENDBRANCH   1   3
BRANCH   1  18
HETATM   18  C   UNL     1      24.481  48.068  49.645  1.00  0.00     0.338 C 
BRANCH  18  19
HETATM   19  C   UNL     1      23.130  48.390  48.988  1.00  0.00     0.248 C 
HETATM   20  N   UNL     1      22.235  49.020  49.830  1.00  0.00    -0.326 N 
HETATM   21  H   UNL     1      22.402  48.997  50.831  1.00  0.00     0.169 HD
HETATM   22  O   UNL     1      22.957  48.137  47.798  1.00  0.00    -0.271 OA
BRANCH  20  23
HETATM   23  C   UNL     1      21.025  49.647  49.450  1.00  0.00     0.034 A 
HETATM   24  C   UNL     1      21.099  50.966  48.996  1.00  0.00     0.032 A 
HETATM   25  C   UNL     1      19.945  51.652  48.591  1.00  0.00     0.032 A 
HETATM   26  C   UNL     1      18.700  51.026  48.621  1.00  0.00     0.034 A 
HETATM   27  C   UNL     1      18.631  49.700  49.057  1.00  0.00     0.032 A 
HETATM   28  C   UNL     1      19.782  49.015  49.470  1.00  0.00     0.032 A 
BRANCH  26  29
HETATM   29  N   UNL     1      17.492  51.648  48.246  1.00  0.00    -0.328 N 
HETATM   30  C   UNL     1      16.534  52.195  49.080  1.00  0.00     0.218 C 
HETATM   31  C   UNL     1      15.349  52.746  48.325  1.00  0.00     0.117 C 
HETATM   32  O   UNL     1      16.592  52.281  50.301  1.00  0.00    -0.274 OA
HETATM   33  H   UNL     1      17.305  51.692  47.252  1.00  0.00     0.169 HD
ENDBRANCH  26  29
ENDBRANCH  20  23
ENDBRANCH  18  19
ENDBRANCH   1  18
BRANCH   1  34
HETATM   34  C   UNL     1      25.144  45.628  49.380  1.00  0.00     0.231 C 
HETATM   35  C   UNL     1      24.050  44.764  48.778  1.00  0.00     0.034 C 
ENDBRANCH   1  34
TORSDOF 9
ENDMDL
MODEL 4
REMARK VINA RESULT:      -9.0     12.215     14.995
REMARK  9 active torsions:
REMARK  status: ('A' for Active; 'I' for Inactive)
REMARK    1  A    between atoms: C_2  and  C_3 
REMARK    2  A    between atoms: C_6  and  C_7 
REMARK    3  A    between atoms: C_7  and  C_8 
REMARK    4  A    between atoms: C_8  and  N_9 
REMARK    5  A    between atoms: N_9  and  C_11 
REMARK    6  A    between atoms: N_9  and  C_25 
REMARK    7  A    between atoms: C_11  and  C_12 
REMARK       I    between atoms: C_12  and  N_13 
REMARK    8  A    between atoms: N_13  and  C_14 
REMARK    9  A    between atoms: C_17  and  N_18 
REMARK       I    between atoms: N_18  and  C_19 
ROOT
HETATM    1  N   UNL     1      33.951  50.841  41.476  1.00  0.00    -0.056 N 
HETATM    2  H   UNL     1      32.925  50.886  41.362  1.00  0.00     0.280 HD
ENDROOT
BRANCH   1   3
HETATM    3  C   UNL     1      34.525  51.660  40.290  1.00  0.00     0.319 C 
BRANCH   3   4
HETATM    4  C   UNL     1      33.448  52.545  39.683  1.00  0.00     0.187 C 
HETATM    5  O   UNL     1      33.690  53.758  39.632  1.00  0.00    -0.290 OA
BRANCH   4   6
HETATM    6  C   UNL     1      32.144  52.006  39.315  1.00  0.00     0.039 A 
HETATM    7  C   UNL     1      30.863  52.051  39.973  1.00  0.00     0.006 A 
HETATM    8  C   UNL     1      29.930  51.476  39.101  1.00  0.00     0.049 A 
HETATM    9  C   UNL     1      30.383  52.526  41.215  1.00  0.00     0.015 A 
HETATM   10  C   UNL     1      28.548  51.399  39.370  1.00  0.00    -0.031 A 
HETATM   11  N   UNL     1      30.623  51.023  38.003  1.00  0.00    -0.364 N 
HETATM   12  C   UNL     1      28.122  51.906  40.608  1.00  0.00     0.009 A 
HETATM   13  C   UNL     1      29.019  52.453  41.516  1.00  0.00     0.002 A 
HETATM   14  C   UNL     1      31.945  51.336  38.119  1.00  0.00     0.104 A 
HETATM   15  H   UNL     1      30.203  50.535  37.222  1.00  0.00     0.165 HD
BRANCH  10  16
HETATM   16  C   UNL     1      27.542  50.789  38.424  1.00  0.00     0.036 C 
HETATM   17  C   UNL     1      26.370  50.172  39.170  1.00  0.00     0.010 C 
ENDBRANCH  10  16
ENDBRANCH   4   6
ENDBRANCH   3   4
ENDBRANCH   1   3
BRANCH   1  18
HETATM   18  C   UNL     1      34.310  49.341  41.351  1.00  0.00     0.338 C 
BRANCH  18  19
HETATM   19  C   UNL     1      33.088  48.410  41.364  1.00  0.00     0.248 C 
HETATM   20  N   UNL     1      31.878  49.073  41.296  1.00  0.00    -0.326 N 
HETATM   21  H   UNL     1      31.851  50.067  41.496  1.00  0.00     0.169 HD
HETATM   22  O   UNL     1      33.253  47.192  41.372  1.00  0.00    -0.271 OA
BRANCH  20  23
HETATM   23  C   UNL     1      30.615  48.488  41.049  1.00  0.00     0.034 A 
HETATM   24  C   UNL     1      29.607  48.710  41.990  1.00  0.00     0.032 A 
HETATM   25  C   UNL     1      28.324  48.173  41.811  1.00  0.00     0.032 A 
HETATM   26  C   UNL     1      28.024  47.414  40.681  1.00  0.00     0.034 A 
HETATM   27  C   UNL     1      29.028  47.208  39.731  1.00  0.00     0.032 A 
HETATM   28  C   UNL     1      30.313  47.738  39.911  1.00  0.00     0.032 A 
BRANCH  26  29
HETATM   29  N   UNL     1      26.767  46.827  40.432  1.00  0.00    -0.328 N 
HETATM   30  C   UNL     1      26.396  45.512  40.647  1.00  0.00     0.218 C 
HETATM   31  C   UNL     1      24.974  45.231  40.231  1.00  0.00     0.117 C 
HETATM   32  O   UNL     1      27.089  44.630  41.143  1.00  0.00    -0.274 OA
HETATM   33  H   UNL     1      26.058  47.439  40.048  1.00  0.00     0.169 HD
ENDBRANCH  26  29
ENDBRANCH  20  23
ENDBRANCH  18  19
ENDBRANCH   1  18
BRANCH   1  34
HETATM   34  C   UNL     1      34.325  51.415  42.822  1.00  0.00     0.231 C 
HETATM   35  C   UNL     1      33.078  51.632  43.660  1.00  0.00     0.034 C 
ENDBRANCH   1  34
TORSDOF 9
ENDMDL
MODEL 5
REMARK VINA RESULT:      -8.9      3.365      5.552
REMARK  9 active torsions:
REMARK  status: ('A' for Active; 'I' for Inactive)
REMARK    1  A    between atoms: C_2  and  C_3 
REMARK    2  A    between atoms: C_6  and  C_7 
REMARK    3  A    between atoms: C_7  and  C_8 
REMARK    4  A    between atoms: C_8  and  N_9 
REMARK    5  A    between atoms: N_9  and  C_11 
REMARK    6  A    between atoms: N_9  and  C_25 
REMARK    7  A    between atoms: C_11  and  C_12 
REMARK       I    between atoms: C_12  and  N_13 
REMARK    8  A    between atoms: N_13  and  C_14 
REMARK    9  A    between atoms: C_17  and  N_18 
REMARK       I    between atoms: N_18  and  C_19 
ROOT
HETATM    1  N   UNL     1      26.835  40.691  50.442  1.00  0.00    -0.056 N 
HETATM    2  H   UNL     1      26.450  40.439  51.366  1.00  0.00     0.280 HD
ENDROOT
BRANCH   1   3
HETATM    3  C   UNL     1      27.887  41.794  50.731  1.00  0.00     0.319 C 
BRANCH   3   4
HETATM    4  C   UNL     1      28.437  41.651  52.141  1.00  0.00     0.187 C 
HETATM    5  O   UNL     1      28.889  40.541  52.449  1.00  0.00    -0.290 OA
BRANCH   4   6
HETATM    6  C   UNL     1      28.302  42.725  53.118  1.00  0.00     0.039 A 
HETATM    7  C   UNL     1      29.193  43.218  54.137  1.00  0.00     0.006 A 
HETATM    8  C   UNL     1      28.594  44.353  54.697  1.00  0.00     0.049 A 
HETATM    9  C   UNL     1      30.455  42.832  54.646  1.00  0.00     0.015 A 
HETATM   10  C   UNL     1      29.200  45.153  55.687  1.00  0.00    -0.031 A 
HETATM   11  N   UNL     1      27.359  44.494  54.108  1.00  0.00    -0.364 N 
HETATM   12  C   UNL     1      30.463  44.738  56.141  1.00  0.00     0.009 A 
HETATM   13  C   UNL     1      31.077  43.598  55.638  1.00  0.00     0.002 A 
HETATM   14  C   UNL     1      27.175  43.528  53.163  1.00  0.00     0.104 A 
HETATM   15  H   UNL     1      26.692  45.217  54.345  1.00  0.00     0.165 HD
BRANCH  10  16
HETATM   16  C   UNL     1      28.558  46.383  56.281  1.00  0.00     0.036 C 
HETATM   17  C   UNL     1      28.585  46.353  57.801  1.00  0.00     0.010 C 
ENDBRANCH  10  16
ENDBRANCH   4   6
ENDBRANCH   3   4
ENDBRANCH   1   3
BRANCH   1  18
HETATM   18  C   UNL     1      25.636  41.253  49.640  1.00  0.00     0.338 C 
BRANCH  18  19
HETATM   19  C   UNL     1      25.173  42.640  50.111  1.00  0.00     0.248 C 
HETATM   20  N   UNL     1      25.446  43.655  49.215  1.00  0.00    -0.326 N 
HETATM   21  H   UNL     1      26.121  43.490  48.476  1.00  0.00     0.169 HD
HETATM   22  O   UNL     1      24.565  42.749  51.174  1.00  0.00    -0.271 OA
BRANCH  20  23
HETATM   23  C   UNL     1      24.934  44.972  49.260  1.00  0.00     0.034 A 
HETATM   24  C   UNL     1      23.628  45.172  48.801  1.00  0.00     0.032 A 
HETATM   25  C   UNL     1      23.046  46.447  48.823  1.00  0.00     0.032 A 
HETATM   26  C   UNL     1      23.753  47.542  49.316  1.00  0.00     0.034 A 
HETATM   27  C   UNL     1      25.052  47.338  49.791  1.00  0.00     0.032 A 
HETATM   28  C   UNL     1      25.639  46.065  49.763  1.00  0.00     0.032 A 
BRANCH  26  29
HETATM   29  N   UNL     1      23.248  48.857  49.360  1.00  0.00    -0.328 N 
HETATM   30  C   UNL     1      23.471  49.874  48.449  1.00  0.00     0.218 C 
HETATM   31  C   UNL     1      22.793  51.164  48.838  1.00  0.00     0.117 C 
HETATM   32  O   UNL     1      24.113  49.794  47.408  1.00  0.00    -0.274 OA
HETATM   33  H   UNL     1      22.658  49.080  50.152  1.00  0.00     0.169 HD
ENDBRANCH  26  29
ENDBRANCH  20  23
ENDBRANCH  18  19
ENDBRANCH   1  18
BRANCH   1  34
HETATM   34  C   UNL     1      27.434  39.462  49.801  1.00  0.00     0.231 C 
HETATM   35  C   UNL     1      28.532  39.863  48.833  1.00  0.00     0.034 C 
ENDBRANCH   1  34
TORSDOF 9
ENDMDL
MODEL 6
REMARK VINA RESULT:      -8.6      4.446      8.621
REMARK  9 active torsions:
REMARK  status: ('A' for Active; 'I' for Inactive)
REMARK    1  A    between atoms: C_2  and  C_3 
REMARK    2  A    between atoms: C_6  and  C_7 
REMARK    3  A    between atoms: C_7  and  C_8 
REMARK    4  A    between atoms: C_8  and  N_9 
REMARK    5  A    between atoms: N_9  and  C_11 
REMARK    6  A    between atoms: N_9  and  C_25 
REMARK    7  A    between atoms: C_11  and  C_12 
REMARK       I    between atoms: C_12  and  N_13 
REMARK    8  A    between atoms: N_13  and  C_14 
REMARK    9  A    between atoms: C_17  and  N_18 
REMARK       I    between atoms: N_18  and  C_19 
ROOT
HETATM    1  N   UNL     1      23.881  45.705  49.856  1.00  0.00    -0.056 N 
HETATM    2  H   UNL     1      23.519  45.313  50.740  1.00  0.00     0.280 HD
ENDROOT
BRANCH   1   3
HETATM    3  C   UNL     1      25.157  44.880  49.542  1.00  0.00     0.319 C 
BRANCH   3   4
HETATM    4  C   UNL     1      25.215  43.635  50.412  1.00  0.00     0.187 C 
HETATM    5  O   UNL     1      24.547  43.655  51.454  1.00  0.00    -0.290 OA
BRANCH   4   6
HETATM    6  C   UNL     1      26.124  42.537  50.102  1.00  0.00     0.039 A 
HETATM    7  C   UNL     1      27.097  41.838  50.903  1.00  0.00     0.006 A 
HETATM    8  C   UNL     1      27.592  40.784  50.124  1.00  0.00     0.049 A 
HETATM    9  C   UNL     1      27.612  41.975  52.212  1.00  0.00     0.015 A 
HETATM   10  C   UNL     1      28.522  39.833  50.591  1.00  0.00    -0.031 A 
HETATM   11  N   UNL     1      27.013  40.889  48.881  1.00  0.00    -0.364 N 
HETATM   12  C   UNL     1      28.983  40.002  51.906  1.00  0.00     0.009 A 
HETATM   13  C   UNL     1      28.545  41.054  52.700  1.00  0.00     0.002 A 
HETATM   14  C   UNL     1      26.133  41.930  48.858  1.00  0.00     0.104 A 
HETATM   15  H   UNL     1      27.212  40.272  48.103  1.00  0.00     0.165 HD
BRANCH  10  16
HETATM   16  C   UNL     1      29.045  38.690  49.755  1.00  0.00     0.036 C 
HETATM   17  C   UNL     1      28.051  37.542  49.684  1.00  0.00     0.010 C 
ENDBRANCH  10  16
ENDBRANCH   4   6
ENDBRANCH   3   4
ENDBRANCH   1   3
BRANCH   1  18
HETATM   18  C   UNL     1      24.227  47.179  50.174  1.00  0.00     0.338 C 
BRANCH  18  19
HETATM   19  C   UNL     1      25.445  47.343  51.097  1.00  0.00     0.248 C 
HETATM   20  N   UNL     1      25.323  46.686  52.306  1.00  0.00    -0.326 N 
HETATM   21  H   UNL     1      24.405  46.380  52.608  1.00  0.00     0.169 HD
HETATM   22  O   UNL     1      26.428  47.964  50.700  1.00  0.00    -0.271 OA
BRANCH  20  23
HETATM   23  C   UNL     1      26.357  46.455  53.242  1.00  0.00     0.034 A 
HETATM   24  C   UNL     1      26.723  47.518  54.072  1.00  0.00     0.032 A 
HETATM   25  C   UNL     1      27.733  47.365  55.033  1.00  0.00     0.032 A 
HETATM   26  C   UNL     1      28.385  46.142  55.189  1.00  0.00     0.034 A 
HETATM   27  C   UNL     1      28.004  45.075  54.371  1.00  0.00     0.032 A 
HETATM   28  C   UNL     1      27.001  45.228  53.404  1.00  0.00     0.032 A 
BRANCH  26  29
HETATM   29  N   UNL     1      29.418  45.909  56.119  1.00  0.00    -0.328 N 
HETATM   30  C   UNL     1      29.346  46.006  57.497  1.00  0.00     0.218 C 
HETATM   31  C   UNL     1      30.664  45.715  58.172  1.00  0.00     0.117 C 
HETATM   32  O   UNL     1      28.348  46.266  58.160  1.00  0.00    -0.274 OA
HETATM   33  H   UNL     1      30.314  45.644  55.730  1.00  0.00     0.169 HD
ENDBRANCH  26  29
ENDBRANCH  20  23
ENDBRANCH  18  19
ENDBRANCH   1  18
BRANCH   1  34
HETATM   34  C   UNL     1      22.823  45.578  48.786  1.00  0.00     0.231 C 
HETATM   35  C   UNL     1      21.891  44.424  49.111  1.00  0.00     0.034 C 
ENDBRANCH   1  34
TORSDOF 9
ENDMDL
MODEL 7
REMARK VINA RESULT:      -8.3     13.487     15.480
REMARK  9 active torsions:
REMARK  status: ('A' for Active; 'I' for Inactive)
REMARK    1  A    between atoms: C_2  and  C_3 
REMARK    2  A    between atoms: C_6  and  C_7 
REMARK    3  A    between atoms: C_7  and  C_8 
REMARK    4  A    between atoms: C_8  and  N_9 
REMARK    5  A    between atoms: N_9  and  C_11 
REMARK    6  A    between atoms: N_9  and  C_25 
REMARK    7  A    between atoms: C_11  and  C_12 
REMARK       I    between atoms: C_12  and  N_13 
REMARK    8  A    between atoms: N_13  and  C_14 
REMARK    9  A    between atoms: C_17  and  N_18 
REMARK       I    between atoms: N_18  and  C_19 
ROOT
HETATM    1  N   UNL     1      36.744  53.491  39.706  1.00  0.00    -0.056 N 
HETATM    2  H   UNL     1      36.738  52.490  39.453  1.00  0.00     0.280 HD
ENDROOT
BRANCH   1   3
HETATM    3  C   UNL     1      36.938  53.518  41.245  1.00  0.00     0.319 C 
BRANCH   3   4
HETATM    4  C   UNL     1      37.035  52.104  41.795  1.00  0.00     0.187 C 
HETATM    5  O   UNL     1      38.153  51.731  42.173  1.00  0.00    -0.290 OA
BRANCH   4   6
HETATM    6  C   UNL     1      35.898  51.192  41.741  1.00  0.00     0.039 A 
HETATM    7  C   UNL     1      34.663  51.148  42.482  1.00  0.00     0.006 A 
HETATM    8  C   UNL     1      33.882  50.129  41.922  1.00  0.00     0.049 A 
HETATM    9  C   UNL     1      34.111  51.868  43.566  1.00  0.00     0.015 A 
HETATM   10  C   UNL     1      32.570  49.826  42.341  1.00  0.00    -0.031 A 
HETATM   11  N   UNL     1      34.638  49.524  40.946  1.00  0.00    -0.364 N 
HETATM   12  C   UNL     1      32.062  50.586  43.406  1.00  0.00     0.009 A 
HETATM   13  C   UNL     1      32.816  51.583  44.013  1.00  0.00     0.002 A 
HETATM   14  C   UNL     1      35.843  50.153  40.828  1.00  0.00     0.104 A 
HETATM   15  H   UNL     1      34.334  48.732  40.395  1.00  0.00     0.165 HD
BRANCH  10  16
HETATM   16  C   UNL     1      31.725  48.735  41.729  1.00  0.00     0.036 C 
HETATM   17  C   UNL     1      30.339  48.679  42.354  1.00  0.00     0.010 C 
ENDBRANCH  10  16
ENDBRANCH   4   6
ENDBRANCH   3   4
ENDBRANCH   1   3
BRANCH   1  18
HETATM   18  C   UNL     1      35.348  54.022  39.304  1.00  0.00     0.338 C 
BRANCH  18  19
HETATM   19  C   UNL     1      34.256  52.941  39.290  1.00  0.00     0.248 C 
HETATM   20  N   UNL     1      33.137  53.266  40.031  1.00  0.00    -0.326 N 
HETATM   21  H   UNL     1      33.197  54.019  40.708  1.00  0.00     0.169 HD
HETATM   22  O   UNL     1      34.411  51.931  38.607  1.00  0.00    -0.271 OA
BRANCH  20  23
HETATM   23  C   UNL     1      31.894  52.593  40.010  1.00  0.00     0.034 A 
HETATM   24  C   UNL     1      30.921  53.007  40.924  1.00  0.00     0.032 A 
HETATM   25  C   UNL     1      29.660  52.395  40.959  1.00  0.00     0.032 A 
HETATM   26  C   UNL     1      29.344  51.369  40.070  1.00  0.00     0.034 A 
HETATM   27  C   UNL     1      30.311  50.969  39.143  1.00  0.00     0.032 A 
HETATM   28  C   UNL     1      31.575  51.573  39.112  1.00  0.00     0.032 A 
BRANCH  26  29
HETATM   29  N   UNL     1      28.108  50.693  40.048  1.00  0.00    -0.328 N 
HETATM   30  C   UNL     1      27.241  50.561  38.978  1.00  0.00     0.218 C 
HETATM   31  C   UNL     1      25.990  49.796  39.331  1.00  0.00     0.117 C 
HETATM   32  O   UNL     1      27.423  50.971  37.836  1.00  0.00    -0.274 OA
HETATM   33  H   UNL     1      27.822  50.260  40.917  1.00  0.00     0.169 HD
ENDBRANCH  26  29
ENDBRANCH  20  23
ENDBRANCH  18  19
ENDBRANCH   1  18
BRANCH   1  34
HETATM   34  C   UNL     1      37.862  54.183  38.962  1.00  0.00     0.231 C 
HETATM   35  C   UNL     1      38.037  53.560  37.589  1.00  0.00     0.034 C 
ENDBRANCH   1  34
TORSDOF 9
ENDMDL
MODEL 8
REMARK VINA RESULT:      -8.3      5.014      9.060
REMARK  9 active torsions:
REMARK  status: ('A' for Active; 'I' for Inactive)
REMARK    1  A    between atoms: C_2  and  C_3 
REMARK    2  A    between atoms: C_6  and  C_7 
REMARK    3  A    between atoms: C_7  and  C_8 
REMARK    4  A    between atoms: C_8  and  N_9 
REMARK    5  A    between atoms: N_9  and  C_11 
REMARK    6  A    between atoms: N_9  and  C_25 
REMARK    7  A    between atoms: C_11  and  C_12 
REMARK       I    between atoms: C_12  and  N_13 
REMARK    8  A    between atoms: N_13  and  C_14 
REMARK    9  A    between atoms: C_17  and  N_18 
REMARK       I    between atoms: N_18  and  C_19 
ROOT
HETATM    1  N   UNL     1      26.058  46.113  50.190  1.00  0.00    -0.056 N 
HETATM    2  H   UNL     1      26.715  45.386  50.516  1.00  0.00     0.280 HD
ENDROOT
BRANCH   1   3
HETATM    3  C   UNL     1      25.292  46.564  51.461  1.00  0.00     0.319 C 
BRANCH   3   4
HETATM    4  C   UNL     1      25.468  45.548  52.579  1.00  0.00     0.187 C 
HETATM    5  O   UNL     1      24.631  44.638  52.637  1.00  0.00    -0.290 OA
BRANCH   4   6
HETATM    6  C   UNL     1      26.483  45.727  53.610  1.00  0.00     0.039 A 
HETATM    7  C   UNL     1      27.585  44.899  54.030  1.00  0.00     0.006 A 
HETATM    8  C   UNL     1      28.311  45.627  54.981  1.00  0.00     0.049 A 
HETATM    9  C   UNL     1      28.059  43.608  53.701  1.00  0.00     0.015 A 
HETATM   10  C   UNL     1      29.504  45.170  55.577  1.00  0.00    -0.031 A 
HETATM   11  N   UNL     1      27.634  46.806  55.194  1.00  0.00    -0.364 N 
HETATM   12  C   UNL     1      29.942  43.891  55.198  1.00  0.00     0.009 A 
HETATM   13  C   UNL     1      29.233  43.121  54.285  1.00  0.00     0.002 A 
HETATM   14  C   UNL     1      26.543  46.876  54.380  1.00  0.00     0.104 A 
HETATM   15  H   UNL     1      27.917  47.515  55.859  1.00  0.00     0.165 HD
BRANCH  10  16
HETATM   16  C   UNL     1      30.291  45.961  56.593  1.00  0.00     0.036 C 
HETATM   17  C   UNL     1      29.721  45.802  57.994  1.00  0.00     0.010 C 
ENDBRANCH  10  16
ENDBRANCH   4   6
ENDBRANCH   3   4
ENDBRANCH   1   3
BRANCH   1  18
HETATM   18  C   UNL     1      25.119  45.396  49.191  1.00  0.00     0.338 C 
BRANCH  18  19
HETATM   19  C   UNL     1      25.252  43.866  49.207  1.00  0.00     0.248 C 
HETATM   20  N   UNL     1      26.558  43.417  49.209  1.00  0.00    -0.326 N 
HETATM   21  H   UNL     1      27.299  44.060  48.949  1.00  0.00     0.169 HD
HETATM   22  O   UNL     1      24.242  43.169  49.275  1.00  0.00    -0.271 OA
BRANCH  20  23
HETATM   23  C   UNL     1      26.990  42.095  49.463  1.00  0.00     0.034 A 
HETATM   24  C   UNL     1      27.251  41.747  50.791  1.00  0.00     0.032 A 
HETATM   25  C   UNL     1      27.673  40.452  51.125  1.00  0.00     0.032 A 
HETATM   26  C   UNL     1      27.827  39.479  50.138  1.00  0.00     0.034 A 
HETATM   27  C   UNL     1      27.547  39.824  48.813  1.00  0.00     0.032 A 
HETATM   28  C   UNL     1      27.133  41.120  48.476  1.00  0.00     0.032 A 
BRANCH  26  29
HETATM   29  N   UNL     1      28.259  38.161  50.387  1.00  0.00    -0.328 N 
HETATM   30  C   UNL     1      29.431  37.763  51.004  1.00  0.00     0.218 C 
HETATM   31  C   UNL     1      29.578  36.263  51.067  1.00  0.00     0.117 C 
HETATM   32  O   UNL     1      30.285  38.495  51.493  1.00  0.00    -0.274 OA
HETATM   33  H   UNL     1      27.642  37.424  50.072  1.00  0.00     0.169 HD
ENDBRANCH  26  29
ENDBRANCH  20  23
ENDBRANCH  18  19
ENDBRANCH   1  18
BRANCH   1  34
HETATM   34  C   UNL     1      26.839  47.234  49.547  1.00  0.00     0.231 C 
HETATM   35  C   UNL     1      26.056  48.532  49.636  1.00  0.00     0.034 C 
ENDBRANCH   1  34
TORSDOF 9
ENDMDL
MODEL 9
REMARK VINA RESULT:      -8.2      1.942      2.764
REMARK  9 active torsions:
REMARK  status: ('A' for Active; 'I' for Inactive)
REMARK    1  A    between atoms: C_2  and  C_3 
REMARK    2  A    between atoms: C_6  and  C_7 
REMARK    3  A    between atoms: C_7  and  C_8 
REMARK    4  A    between atoms: C_8  and  N_9 
REMARK    5  A    between atoms: N_9  and  C_11 
REMARK    6  A    between atoms: N_9  and  C_25 
REMARK    7  A    between atoms: C_11  and  C_12 
REMARK       I    between atoms: C_12  and  N_13 
REMARK    8  A    between atoms: N_13  and  C_14 
REMARK    9  A    between atoms: C_17  and  N_18 
REMARK       I    between atoms: N_18  and  C_19 
ROOT
HETATM    1  N   UNL     1      24.869  44.171  50.173  1.00  0.00    -0.056 N 
HETATM    2  H   UNL     1      24.142  44.382  50.877  1.00  0.00     0.280 HD
ENDROOT
BRANCH   1   3
HETATM    3  C   UNL     1      26.215  44.472  50.883  1.00  0.00     0.319 C 
BRANCH   3   4
HETATM    4  C   UNL     1      26.156  44.051  52.343  1.00  0.00     0.187 C 
HETATM    5  O   UNL     1      25.044  44.091  52.886  1.00  0.00    -0.290 OA
BRANCH   4   6
HETATM    6  C   UNL     1      27.370  43.760  53.096  1.00  0.00     0.039 A 
HETATM    7  C   UNL     1      28.109  44.527  54.067  1.00  0.00     0.006 A 
HETATM    8  C   UNL     1      29.125  43.700  54.561  1.00  0.00     0.049 A 
HETATM    9  C   UNL     1      28.024  45.837  54.593  1.00  0.00     0.015 A 
HETATM   10  C   UNL     1      30.020  44.080  55.581  1.00  0.00    -0.031 A 
HETATM   11  N   UNL     1      29.063  42.516  53.862  1.00  0.00    -0.364 N 
HETATM   12  C   UNL     1      29.878  45.383  56.085  1.00  0.00     0.009 A 
HETATM   13  C   UNL     1      28.906  46.248  55.598  1.00  0.00     0.002 A 
HETATM   14  C   UNL     1      28.017  42.541  52.987  1.00  0.00     0.104 A 
HETATM   15  H   UNL     1      29.702  41.742  53.991  1.00  0.00     0.165 HD
BRANCH  10  16
HETATM   16  C   UNL     1      31.107  43.183  56.121  1.00  0.00     0.036 C 
HETATM   17  C   UNL     1      31.680  43.714  57.426  1.00  0.00     0.010 C 
ENDBRANCH  10  16
ENDBRANCH   4   6
ENDBRANCH   3   4
ENDBRANCH   1   3
BRANCH   1  18
HETATM   18  C   UNL     1      24.611  45.158  49.011  1.00  0.00     0.338 C 
BRANCH  18  19
HETATM   19  C   UNL     1      23.967  46.481  49.455  1.00  0.00     0.248 C 
HETATM   20  N   UNL     1      22.952  46.916  48.625  1.00  0.00    -0.326 N 
HETATM   21  H   UNL     1      22.872  46.516  47.696  1.00  0.00     0.169 HD
HETATM   22  O   UNL     1      24.333  47.013  50.501  1.00  0.00    -0.271 OA
BRANCH  20  23
HETATM   23  C   UNL     1      22.029  47.950  48.902  1.00  0.00     0.034 A 
HETATM   24  C   UNL     1      20.678  47.602  48.989  1.00  0.00     0.032 A 
HETATM   25  C   UNL     1      19.703  48.569  49.270  1.00  0.00     0.032 A 
HETATM   26  C   UNL     1      20.063  49.899  49.483  1.00  0.00     0.034 A 
HETATM   27  C   UNL     1      21.416  50.242  49.415  1.00  0.00     0.032 A 
HETATM   28  C   UNL     1      22.392  49.279  49.126  1.00  0.00     0.032 A 
BRANCH  26  29
HETATM   29  N   UNL     1      19.146  50.933  49.757  1.00  0.00    -0.328 N 
HETATM   30  C   UNL     1      18.531  51.774  48.846  1.00  0.00     0.218 C 
HETATM   31  C   UNL     1      17.631  52.790  49.505  1.00  0.00     0.117 C 
HETATM   32  O   UNL     1      18.639  51.733  47.626  1.00  0.00    -0.274 OA
HETATM   33  H   UNL     1      18.917  51.078  50.732  1.00  0.00     0.169 HD
ENDBRANCH  26  29
ENDBRANCH  20  23
ENDBRANCH  18  19
ENDBRANCH   1  18
BRANCH   1  34
HETATM   34  C   UNL     1      24.741  42.728  49.746  1.00  0.00     0.231 C 
HETATM   35  C   UNL     1      25.977  42.303  48.974  1.00  0.00     0.034 C 
ENDBRANCH   1  34
TORSDOF 9
ENDMDL
MODEL 10
REMARK VINA RESULT:      -7.7      2.535     10.508
REMARK  9 active torsions:
REMARK  status: ('A' for Active; 'I' for Inactive)
REMARK    1  A    between atoms: C_2  and  C_3 
REMARK    2  A    between atoms: C_6  and  C_7 
REMARK    3  A    between atoms: C_7  and  C_8 
REMARK    4  A    between atoms: C_8  and  N_9 
REMARK    5  A    between atoms: N_9  and  C_11 
REMARK    6  A    between atoms: N_9  and  C_25 
REMARK    7  A    between atoms: C_11  and  C_12 
REMARK       I    between atoms: C_12  and  N_13 
REMARK    8  A    between atoms: N_13  and  C_14 
REMARK    9  A    between atoms: C_17  and  N_18 
REMARK       I    between atoms: N_18  and  C_19 
ROOT
HETATM    1  N   UNL     1      23.111  44.707  48.239  1.00  0.00    -0.056 N 
HETATM    2  H   UNL     1      24.076  45.021  48.434  1.00  0.00     0.280 HD
ENDROOT
BRANCH   1   3
HETATM    3  C   UNL     1      22.348  45.991  47.816  1.00  0.00     0.319 C 
BRANCH   3   4
HETATM    4  C   UNL     1      22.824  47.186  48.626  1.00  0.00     0.187 C 
HETATM    5  O   UNL     1      23.891  47.051  49.239  1.00  0.00    -0.290 OA
BRANCH   4   6
HETATM    6  C   UNL     1      21.992  48.373  48.784  1.00  0.00     0.039 A 
HETATM    7  C   UNL     1      20.593  48.534  49.092  1.00  0.00     0.006 A 
HETATM    8  C   UNL     1      20.359  49.906  49.247  1.00  0.00     0.049 A 
HETATM    9  C   UNL     1      19.492  47.664  49.267  1.00  0.00     0.015 A 
HETATM   10  C   UNL     1      19.114  50.453  49.619  1.00  0.00    -0.031 A 
HETATM   11  N   UNL     1      21.538  50.555  48.961  1.00  0.00    -0.364 N 
HETATM   12  C   UNL     1      18.061  49.544  49.803  1.00  0.00     0.009 A 
HETATM   13  C   UNL     1      18.241  48.178  49.625  1.00  0.00     0.002 A 
HETATM   14  C   UNL     1      22.519  49.649  48.686  1.00  0.00     0.104 A 
HETATM   15  H   UNL     1      21.653  51.561  48.964  1.00  0.00     0.165 HD
BRANCH  10  16
HETATM   16  C   UNL     1      18.867  51.932  49.797  1.00  0.00     0.036 C 
HETATM   17  C   UNL     1      18.628  52.626  48.465  1.00  0.00     0.010 C 
ENDBRANCH  10  16
ENDBRANCH   4   6
ENDBRANCH   3   4
ENDBRANCH   1   3
BRANCH   1  18
HETATM   18  C   UNL     1      22.582  44.156  49.585  1.00  0.00     0.338 C 
BRANCH  18  19
HETATM   19  C   UNL     1      23.692  43.688  50.539  1.00  0.00     0.248 C 
HETATM   20  N   UNL     1      24.625  44.663  50.834  1.00  0.00    -0.326 N 
HETATM   21  H   UNL     1      24.678  45.486  50.243  1.00  0.00     0.169 HD
HETATM   22  O   UNL     1      23.651  42.553  51.008  1.00  0.00    -0.271 OA
BRANCH  20  23
HETATM   23  C   UNL     1      25.604  44.606  51.852  1.00  0.00     0.034 A 
HETATM   24  C   UNL     1      26.875  44.143  51.498  1.00  0.00     0.032 A 
HETATM   25  C   UNL     1      27.903  44.067  52.449  1.00  0.00     0.032 A 
HETATM   26  C   UNL     1      27.681  44.465  53.766  1.00  0.00     0.034 A 
HETATM   27  C   UNL     1      26.415  44.945  54.114  1.00  0.00     0.032 A 
HETATM   28  C   UNL     1      25.384  45.014  53.167  1.00  0.00     0.032 A 
BRANCH  26  29
HETATM   29  N   UNL     1      28.654  44.407  54.785  1.00  0.00    -0.328 N 
HETATM   30  C   UNL     1      29.296  45.469  55.395  1.00  0.00     0.218 C 
HETATM   31  C   UNL     1      30.306  45.027  56.425  1.00  0.00     0.117 C 
HETATM   32  O   UNL     1      29.094  46.661  55.189  1.00  0.00    -0.274 OA
HETATM   33  H   UNL     1      28.913  43.480  55.100  1.00  0.00     0.169 HD
ENDBRANCH  26  29
ENDBRANCH  20  23
ENDBRANCH  18  19
ENDBRANCH   1  18
BRANCH   1  34
HETATM   34  C   UNL     1      23.139  43.657  47.155  1.00  0.00     0.231 C 
HETATM   35  C   UNL     1      23.018  44.315  45.791  1.00  0.00     0.034 C 
ENDBRANCH   1  34
TORSDOF 9
ENDMDL
