MODEL 1
REMARK VINA RESULT:      -9.6      0.000      0.000
REMARK  10 active torsions:
REMARK  status: ('A' for Active; 'I' for Inactive)
REMARK    1  A    between atoms: C_2  and  O_3 
REMARK    2  A    between atoms: O_3  and  C_4 
REMARK    3  A    between atoms: C_9  and  C_10 
REMARK    4  A    between atoms: C_10  and  O_11 
REMARK    5  A    between atoms: O_11  and  C_12 
REMARK    6  A    between atoms: C_12  and  C_13 
REMARK       I    between atoms: C_13  and  N_14 
REMARK    7  A    between atoms: N_14  and  C_15 
REMARK    8  A    between atoms: C_16  and  C_17 
REMARK       I    between atoms: C_17  and  N_18 
REMARK    9  A    between atoms: N_18  and  C_19 
REMARK   10  A    between atoms: C_19  and  C_20 
ROOT
HETATM    1  C   UNL     1      27.027  42.600  51.724  1.00  0.00     0.050 A 
HETATM    2  C   UNL     1      27.763  42.526  52.925  1.00  0.00     0.058 A 
HETATM    3  C   UNL     1      28.706  41.506  53.127  1.00  0.00     0.019 A 
HETATM    4  C   UNL     1      28.898  40.527  52.156  1.00  0.00     0.001 A 
HETATM    5  C   UNL     1      28.146  40.565  50.986  1.00  0.00     0.002 A 
HETATM    6  C   UNL     1      27.221  41.592  50.771  1.00  0.00     0.030 A 
ENDROOT
BRANCH   1   7
HETATM    7  N   UNL     1      26.186  43.718  51.478  1.00  0.00    -0.324 N 
HETATM    8  C   UNL     1      24.815  43.711  51.284  1.00  0.00     0.246 C 
HETATM    9  O   UNL     1      24.067  42.759  51.496  1.00  0.00    -0.271 OA
HETATM   10  H   UNL     1      26.671  44.598  51.306  1.00  0.00     0.169 HD
BRANCH   8  11
HETATM   11  C   UNL     1      24.260  45.044  50.766  1.00  0.00     0.282 C 
BRANCH  11  12
HETATM   12  O   UNL     1      25.285  45.878  50.227  1.00  0.00    -0.308 OA
BRANCH  12  13
HETATM   13  C   UNL     1      25.349  47.109  50.784  1.00  0.00     0.298 C 
HETATM   14  O   UNL     1      25.211  47.343  51.977  1.00  0.00    -0.259 OA
BRANCH  13  15
HETATM   15  C   UNL     1      25.530  48.181  49.782  1.00  0.00     0.092 A 
HETATM   16  C   UNL     1      24.502  48.764  49.044  1.00  0.00     0.180 A 
HETATM   17  N   UNL     1      24.717  49.735  48.117  1.00  0.00    -0.236 NA
HETATM   18  C   UNL     1      25.992  50.128  47.908  1.00  0.00     0.119 A 
HETATM   19  C   UNL     1      27.078  49.600  48.580  1.00  0.00     0.020 A 
HETATM   20  C   UNL     1      26.840  48.610  49.529  1.00  0.00     0.023 A 
BRANCH  16  21
HETATM   21  O   UNL     1      23.211  48.315  49.217  1.00  0.00    -0.334 OA
BRANCH  21  22
HETATM   22  C   UNL     1      22.220  49.341  49.180  1.00  0.00     0.173 C 
HETATM   23  C   UNL     1      20.934  48.730  48.652  1.00  0.00     0.034 C 
ENDBRANCH  21  22
ENDBRANCH  16  21
ENDBRANCH  13  15
ENDBRANCH  12  13
ENDBRANCH  11  12
ENDBRANCH   8  11
ENDBRANCH   1   7
BRANCH   2  24
HETATM   24  C   UNL     1      27.550  43.453  54.068  1.00  0.00     0.254 C 
HETATM   25  N   UNL     1      28.515  44.426  54.222  1.00  0.00    -0.349 N 
HETATM   26  H   UNL     1      29.296  44.450  53.578  1.00  0.00     0.163 HD
HETATM   27  O   UNL     1      26.548  43.362  54.766  1.00  0.00    -0.268 OA
BRANCH  25  28
HETATM   28  C   UNL     1      28.474  45.401  55.297  1.00  0.00     0.114 C 
HETATM   29  C   UNL     1      28.501  46.818  54.720  1.00  0.00     0.037 C 
BRANCH  28  30
HETATM   30  C   UNL     1      29.589  45.113  56.288  1.00  0.00    -0.036 A 
HETATM   31  C   UNL     1      30.566  44.129  56.075  1.00  0.00     0.009 A 
HETATM   32  C   UNL     1      31.567  43.902  57.024  1.00  0.00     0.001 A 
HETATM   33  C   UNL     1      31.599  44.645  58.202  1.00  0.00     0.000 A 
HETATM   34  C   UNL     1      30.626  45.611  58.439  1.00  0.00     0.001 A 
HETATM   35  C   UNL     1      29.626  45.838  57.493  1.00  0.00     0.009 A 
ENDBRANCH  28  30
ENDBRANCH  25  28
ENDBRANCH   2  24
TORSDOF 10
ENDMDL
MODEL 2
REMARK VINA RESULT:      -9.5      2.099      9.621
REMARK  10 active torsions:
REMARK  status: ('A' for Active; 'I' for Inactive)
REMARK    1  A    between atoms: C_2  and  O_3 
REMARK    2  A    between atoms: O_3  and  C_4 
REMARK    3  A    between atoms: C_9  and  C_10 
REMARK    4  A    between atoms: C_10  and  O_11 
REMARK    5  A    between atoms: O_11  and  C_12 
REMARK    6  A    between atoms: C_12  and  C_13 
REMARK       I    between atoms: C_13  and  N_14 
REMARK    7  A    between atoms: N_14  and  C_15 
REMARK    8  A    between atoms: C_16  and  C_17 
REMARK       I    between atoms: C_17  and  N_18 
REMARK    9  A    between atoms: N_18  and  C_19 
REMARK   10  A    between atoms: C_19  and  C_20 
ROOT
HETATM    1  C   UNL     1      25.956  47.983  49.740  1.00  0.00     0.050 A 
HETATM    2  C   UNL     1      24.852  48.500  49.030  1.00  0.00     0.058 A 
HETATM    3  C   UNL     1      25.000  49.607  48.179  1.00  0.00     0.019 A 
HETATM    4  C   UNL     1      26.236  50.236  48.057  1.00  0.00     0.001 A 
HETATM    5  C   UNL     1      27.321  49.762  48.785  1.00  0.00     0.002 A 
HETATM    6  C   UNL     1      27.184  48.645  49.618  1.00  0.00     0.030 A 
ENDROOT
BRANCH   1   7
HETATM    7  N   UNL     1      25.820  46.778  50.479  1.00  0.00    -0.324 N 
HETATM    8  C   UNL     1      25.603  46.650  51.841  1.00  0.00     0.246 C 
HETATM    9  O   UNL     1      25.287  47.559  52.605  1.00  0.00    -0.271 OA
HETATM   10  H   UNL     1      26.029  45.925  49.964  1.00  0.00     0.169 HD
BRANCH   8  11
HETATM   11  C   UNL     1      25.785  45.217  52.360  1.00  0.00     0.282 C 
BRANCH  11  12
HETATM   12  O   UNL     1      27.139  44.947  52.721  1.00  0.00    -0.308 OA
BRANCH  12  13
HETATM   13  C   UNL     1      27.277  44.046  53.721  1.00  0.00     0.298 C 
HETATM   14  O   UNL     1      26.508  43.120  53.937  1.00  0.00    -0.259 OA
BRANCH  13  15
HETATM   15  C   UNL     1      28.431  44.339  54.598  1.00  0.00     0.092 A 
HETATM   16  C   UNL     1      28.506  45.410  55.486  1.00  0.00     0.180 A 
HETATM   17  N   UNL     1      29.597  45.653  56.260  1.00  0.00    -0.236 NA
HETATM   18  C   UNL     1      30.649  44.815  56.139  1.00  0.00     0.119 A 
HETATM   19  C   UNL     1      30.674  43.736  55.276  1.00  0.00     0.020 A 
HETATM   20  C   UNL     1      29.548  43.498  54.494  1.00  0.00     0.023 A 
BRANCH  16  21
HETATM   21  O   UNL     1      27.455  46.297  55.560  1.00  0.00    -0.334 OA
BRANCH  21  22
HETATM   22  C   UNL     1      27.754  47.607  55.078  1.00  0.00     0.173 C 
HETATM   23  C   UNL     1      26.658  48.543  55.556  1.00  0.00     0.034 C 
ENDBRANCH  21  22
ENDBRANCH  16  21
ENDBRANCH  13  15
ENDBRANCH  12  13
ENDBRANCH  11  12
ENDBRANCH   8  11
ENDBRANCH   1   7
BRANCH   2  24
HETATM   24  C   UNL     1      23.469  47.973  49.181  1.00  0.00     0.254 C 
HETATM   25  N   UNL     1      22.465  48.896  48.982  1.00  0.00    -0.349 N 
HETATM   26  H   UNL     1      22.712  49.853  48.762  1.00  0.00     0.163 HD
HETATM   27  O   UNL     1      23.277  46.786  49.410  1.00  0.00    -0.268 OA
BRANCH  25  28
HETATM   28  C   UNL     1      21.059  48.557  49.109  1.00  0.00     0.114 C 
HETATM   29  C   UNL     1      20.652  47.584  47.999  1.00  0.00     0.037 C 
BRANCH  28  30
HETATM   30  C   UNL     1      20.230  49.830  49.153  1.00  0.00    -0.036 A 
HETATM   31  C   UNL     1      20.601  51.007  48.483  1.00  0.00     0.009 A 
HETATM   32  C   UNL     1      19.803  52.152  48.562  1.00  0.00     0.001 A 
HETATM   33  C   UNL     1      18.633  52.142  49.319  1.00  0.00     0.000 A 
HETATM   34  C   UNL     1      18.262  50.990  50.006  1.00  0.00     0.001 A 
HETATM   35  C   UNL     1      19.058  49.847  49.928  1.00  0.00     0.009 A 
ENDBRANCH  28  30
ENDBRANCH  25  28
ENDBRANCH   2  24
TORSDOF 10
ENDMDL
MODEL 3
REMARK VINA RESULT:      -9.5      2.270      9.613
REMARK  10 active torsions:
REMARK  status: ('A' for Active; 'I' for Inactive)
REMARK    1  A    between atoms: C_2  and  O_3 
REMARK    2  A    between atoms: O_3  and  C_4 
REMARK    3  A    between atoms: C_9  and  C_10 
REMARK    4  A    between atoms: C_10  and  O_11 
REMARK    5  A    between atoms: O_11  and  C_12 
REMARK    6  A    between atoms: C_12  and  C_13 
REMARK       I    between atoms: C_13  and  N_14 
REMARK    7  A    between atoms: N_14  and  C_15 
REMARK    8  A    between atoms: C_16  and  C_17 
REMARK       I    between atoms: C_17  and  N_18 
REMARK    9  A    between atoms: N_18  and  C_19 
REMARK   10  A    between atoms: C_19  and  C_20 
ROOT
HETATM    1  C   UNL     1      25.736  47.993  49.616  1.00  0.00     0.050 A 
HETATM    2  C   UNL     1      24.628  48.545  48.940  1.00  0.00     0.058 A 
HETATM    3  C   UNL     1      24.777  49.680  48.126  1.00  0.00     0.019 A 
HETATM    4  C   UNL     1      26.017  50.301  48.009  1.00  0.00     0.001 A 
HETATM    5  C   UNL     1      27.107  49.791  48.705  1.00  0.00     0.002 A 
HETATM    6  C   UNL     1      26.970  48.648  49.500  1.00  0.00     0.030 A 
ENDROOT
BRANCH   1   7
HETATM    7  N   UNL     1      25.598  46.765  50.314  1.00  0.00    -0.324 N 
HETATM    8  C   UNL     1      26.241  45.569  50.044  1.00  0.00     0.246 C 
HETATM    9  O   UNL     1      27.194  45.423  49.281  1.00  0.00    -0.271 OA
HETATM   10  H   UNL     1      24.852  46.740  51.008  1.00  0.00     0.169 HD
BRANCH   8  11
HETATM   11  C   UNL     1      25.658  44.371  50.807  1.00  0.00     0.282 C 
BRANCH  11  12
HETATM   12  O   UNL     1      26.477  43.991  51.912  1.00  0.00    -0.308 OA
BRANCH  12  13
HETATM   13  C   UNL     1      25.994  44.371  53.117  1.00  0.00     0.298 C 
HETATM   14  O   UNL     1      24.867  44.125  53.526  1.00  0.00    -0.259 OA
BRANCH  13  15
HETATM   15  C   UNL     1      26.952  45.198  53.882  1.00  0.00     0.092 A 
HETATM   16  C   UNL     1      28.070  44.707  54.552  1.00  0.00     0.180 A 
HETATM   17  N   UNL     1      28.914  45.502  55.262  1.00  0.00    -0.236 NA
HETATM   18  C   UNL     1      28.631  46.821  55.318  1.00  0.00     0.119 A 
HETATM   19  C   UNL     1      27.538  47.398  54.699  1.00  0.00     0.020 A 
HETATM   20  C   UNL     1      26.687  46.571  53.973  1.00  0.00     0.023 A 
BRANCH  16  21
HETATM   21  O   UNL     1      28.319  43.352  54.544  1.00  0.00    -0.334 OA
BRANCH  21  22
HETATM   22  C   UNL     1      29.702  43.007  54.480  1.00  0.00     0.173 C 
HETATM   23  C   UNL     1      30.072  42.824  53.019  1.00  0.00     0.034 C 
ENDBRANCH  21  22
ENDBRANCH  16  21
ENDBRANCH  13  15
ENDBRANCH  12  13
ENDBRANCH  11  12
ENDBRANCH   8  11
ENDBRANCH   1   7
BRANCH   2  24
HETATM   24  C   UNL     1      23.243  48.027  49.090  1.00  0.00     0.254 C 
HETATM   25  N   UNL     1      22.246  48.973  48.970  1.00  0.00    -0.349 N 
HETATM   26  H   UNL     1      22.502  49.938  48.803  1.00  0.00     0.163 HD
HETATM   27  O   UNL     1      23.039  46.831  49.252  1.00  0.00    -0.268 OA
BRANCH  25  28
HETATM   28  C   UNL     1      20.839  48.644  49.109  1.00  0.00     0.114 C 
HETATM   29  C   UNL     1      20.413  47.685  47.995  1.00  0.00     0.037 C 
BRANCH  28  30
HETATM   30  C   UNL     1      20.022  49.922  49.174  1.00  0.00    -0.036 A 
HETATM   31  C   UNL     1      18.846  50.041  49.932  1.00  0.00     0.009 A 
HETATM   32  C   UNL     1      18.130  51.242  49.952  1.00  0.00     0.001 A 
HETATM   33  C   UNL     1      18.569  52.333  49.206  1.00  0.00     0.000 A 
HETATM   34  C   UNL     1      19.721  52.226  48.433  1.00  0.00     0.001 A 
HETATM   35  C   UNL     1      20.437  51.029  48.412  1.00  0.00     0.009 A 
ENDBRANCH  28  30
ENDBRANCH  25  28
ENDBRANCH   2  24
TORSDOF 10
ENDMDL
MODEL 4
REMARK VINA RESULT:      -9.2      1.813      3.133
REMARK  10 active torsions:
REMARK  status: ('A' for Active; 'I' for Inactive)
REMARK    1  A    between atoms: C_2  and  O_3 
REMARK    2  A    between atoms: O_3  and  C_4 
REMARK    3  A    between atoms: C_9  and  C_10 
REMARK    4  A    between atoms: C_10  and  O_11 
REMARK    5  A    between atoms: O_11  and  C_12 
REMARK    6  A    between atoms: C_12  and  C_13 
REMARK       I    between atoms: C_13  and  N_14 
REMARK    7  A    between atoms: N_14  and  C_15 
REMARK    8  A    between atoms: C_16  and  C_17 
REMARK       I    between atoms: C_17  and  N_18 
REMARK    9  A    between atoms: N_18  and  C_19 
REMARK   10  A    between atoms: C_19  and  C_20 
ROOT
HETATM    1  C   UNL     1      26.624  44.686  50.627  1.00  0.00     0.050 A 
HETATM    2  C   UNL     1      26.822  44.246  51.953  1.00  0.00     0.058 A 
HETATM    3  C   UNL     1      27.050  42.888  52.231  1.00  0.00     0.019 A 
HETATM    4  C   UNL     1      27.043  41.951  51.202  1.00  0.00     0.001 A 
HETATM    5  C   UNL     1      26.805  42.368  49.897  1.00  0.00     0.002 A 
HETATM    6  C   UNL     1      26.599  43.722  49.611  1.00  0.00     0.030 A 
ENDROOT
BRANCH   1   7
HETATM    7  N   UNL     1      26.541  46.076  50.350  1.00  0.00    -0.324 N 
HETATM    8  C   UNL     1      25.419  46.788  49.961  1.00  0.00     0.246 C 
HETATM    9  O   UNL     1      24.262  46.375  49.989  1.00  0.00    -0.271 OA
HETATM   10  H   UNL     1      27.433  46.568  50.316  1.00  0.00     0.169 HD
BRANCH   8  11
HETATM   11  C   UNL     1      25.732  48.209  49.472  1.00  0.00     0.282 C 
BRANCH  11  12
HETATM   12  O   UNL     1      24.593  49.066  49.553  1.00  0.00    -0.308 OA
BRANCH  12  13
HETATM   13  C   UNL     1      24.233  49.624  48.374  1.00  0.00     0.298 C 
HETATM   14  O   UNL     1      25.017  50.006  47.516  1.00  0.00    -0.259 OA
BRANCH  13  15
HETATM   15  C   UNL     1      22.771  49.804  48.249  1.00  0.00     0.092 A 
HETATM   16  C   UNL     1      21.881  48.822  47.820  1.00  0.00     0.180 A 
HETATM   17  N   UNL     1      20.544  49.037  47.701  1.00  0.00    -0.236 NA
HETATM   18  C   UNL     1      20.080  50.268  48.004  1.00  0.00     0.119 A 
HETATM   19  C   UNL     1      20.886  51.310  48.424  1.00  0.00     0.020 A 
HETATM   20  C   UNL     1      22.251  51.071  48.545  1.00  0.00     0.023 A 
BRANCH  16  21
HETATM   21  O   UNL     1      22.368  47.586  47.453  1.00  0.00    -0.334 OA
BRANCH  21  22
HETATM   22  C   UNL     1      21.376  46.682  46.967  1.00  0.00     0.173 C 
HETATM   23  C   UNL     1      21.248  45.548  47.967  1.00  0.00     0.034 C 
ENDBRANCH  21  22
ENDBRANCH  16  21
ENDBRANCH  13  15
ENDBRANCH  12  13
ENDBRANCH  11  12
ENDBRANCH   8  11
ENDBRANCH   1   7
BRANCH   2  24
HETATM   24  C   UNL     1      26.735  45.148  53.132  1.00  0.00     0.254 C 
HETATM   25  N   UNL     1      27.889  45.250  53.879  1.00  0.00    -0.349 N 
HETATM   26  H   UNL     1      28.703  44.715  53.603  1.00  0.00     0.163 HD
HETATM   27  O   UNL     1      25.712  45.781  53.357  1.00  0.00    -0.268 OA
BRANCH  25  28
HETATM   28  C   UNL     1      27.973  46.071  55.074  1.00  0.00     0.114 C 
HETATM   29  C   UNL     1      28.136  47.543  54.687  1.00  0.00     0.037 C 
BRANCH  28  30
HETATM   30  C   UNL     1      29.073  45.541  55.978  1.00  0.00    -0.036 A 
HETATM   31  C   UNL     1      29.973  44.540  55.582  1.00  0.00     0.009 A 
HETATM   32  C   UNL     1      30.964  44.086  56.458  1.00  0.00     0.001 A 
HETATM   33  C   UNL     1      31.061  44.616  57.743  1.00  0.00     0.000 A 
HETATM   34  C   UNL     1      30.164  45.595  58.159  1.00  0.00     0.001 A 
HETATM   35  C   UNL     1      29.175  46.048  57.286  1.00  0.00     0.009 A 
ENDBRANCH  28  30
ENDBRANCH  25  28
ENDBRANCH   2  24
TORSDOF 10
ENDMDL
MODEL 5
REMARK VINA RESULT:      -9.1      2.136      9.587
REMARK  10 active torsions:
REMARK  status: ('A' for Active; 'I' for Inactive)
REMARK    1  A    between atoms: C_2  and  O_3 
REMARK    2  A    between atoms: O_3  and  C_4 
REMARK    3  A    between atoms: C_9  and  C_10 
REMARK    4  A    between atoms: C_10  and  O_11 
REMARK    5  A    between atoms: O_11  and  C_12 
REMARK    6  A    between atoms: C_12  and  C_13 
REMARK       I    between atoms: C_13  and  N_14 
REMARK    7  A    between atoms: N_14  and  C_15 
REMARK    8  A    between atoms: C_16  and  C_17 
REMARK       I    between atoms: C_17  and  N_18 
REMARK    9  A    between atoms: N_18  and  C_19 
REMARK   10  A    between atoms: C_19  and  C_20 
ROOT
HETATM    1  C   UNL     1      25.824  47.965  49.850  1.00  0.00     0.050 A 
HETATM    2  C   UNL     1      24.763  48.464  49.066  1.00  0.00     0.058 A 
HETATM    3  C   UNL     1      24.974  49.515  48.158  1.00  0.00     0.019 A 
HETATM    4  C   UNL     1      26.230  50.106  48.051  1.00  0.00     0.001 A 
HETATM    5  C   UNL     1      27.273  49.651  48.850  1.00  0.00     0.002 A 
HETATM    6  C   UNL     1      27.073  48.590  49.741  1.00  0.00     0.030 A 
ENDROOT
BRANCH   1   7
HETATM    7  N   UNL     1      25.627  46.810  50.652  1.00  0.00    -0.324 N 
HETATM    8  C   UNL     1      25.473  46.760  52.027  1.00  0.00     0.246 C 
HETATM    9  O   UNL     1      25.276  47.726  52.762  1.00  0.00    -0.271 OA
HETATM   10  H   UNL     1      25.737  45.920  50.169  1.00  0.00     0.169 HD
BRANCH   8  11
HETATM   11  C   UNL     1      25.562  45.342  52.606  1.00  0.00     0.282 C 
BRANCH  11  12
HETATM   12  O   UNL     1      26.280  45.310  53.838  1.00  0.00    -0.308 OA
BRANCH  12  13
HETATM   13  C   UNL     1      26.512  44.065  54.314  1.00  0.00     0.298 C 
HETATM   14  O   UNL     1      25.756  43.448  55.051  1.00  0.00    -0.259 OA
BRANCH  13  15
HETATM   15  C   UNL     1      27.833  43.536  53.911  1.00  0.00     0.092 A 
HETATM   16  C   UNL     1      28.054  42.679  52.836  1.00  0.00     0.180 A 
HETATM   17  N   UNL     1      29.285  42.200  52.513  1.00  0.00    -0.236 NA
HETATM   18  C   UNL     1      30.324  42.574  53.289  1.00  0.00     0.119 A 
HETATM   19  C   UNL     1      30.202  43.409  54.384  1.00  0.00     0.020 A 
HETATM   20  C   UNL     1      28.937  43.894  54.698  1.00  0.00     0.023 A 
BRANCH  16  21
HETATM   21  O   UNL     1      26.981  42.250  52.085  1.00  0.00    -0.334 OA
BRANCH  21  22
HETATM   22  C   UNL     1      27.278  42.025  50.707  1.00  0.00     0.173 C 
HETATM   23  C   UNL     1      26.901  43.279  49.937  1.00  0.00     0.034 C 
ENDBRANCH  21  22
ENDBRANCH  16  21
ENDBRANCH  13  15
ENDBRANCH  12  13
ENDBRANCH  11  12
ENDBRANCH   8  11
ENDBRANCH   1   7
BRANCH   2  24
HETATM   24  C   UNL     1      23.363  47.980  49.189  1.00  0.00     0.254 C 
HETATM   25  N   UNL     1      22.391  48.927  48.945  1.00  0.00    -0.349 N 
HETATM   26  H   UNL     1      22.672  49.872  48.713  1.00  0.00     0.163 HD
HETATM   27  O   UNL     1      23.130  46.803  49.436  1.00  0.00    -0.268 OA
BRANCH  25  28
HETATM   28  C   UNL     1      20.973  48.630  49.040  1.00  0.00     0.114 C 
HETATM   29  C   UNL     1      20.559  47.682  47.912  1.00  0.00     0.037 C 
BRANCH  28  30
HETATM   30  C   UNL     1      20.183  49.927  49.081  1.00  0.00    -0.036 A 
HETATM   31  C   UNL     1      20.511  51.047  48.300  1.00  0.00     0.009 A 
HETATM   32  C   UNL     1      19.752  52.218  48.382  1.00  0.00     0.001 A 
HETATM   33  C   UNL     1      18.666  52.292  49.252  1.00  0.00     0.000 A 
HETATM   34  C   UNL     1      18.340  51.199  50.049  1.00  0.00     0.001 A 
HETATM   35  C   UNL     1      19.097  50.029  49.968  1.00  0.00     0.009 A 
ENDBRANCH  28  30
ENDBRANCH  25  28
ENDBRANCH   2  24
TORSDOF 10
ENDMDL
MODEL 6
REMARK VINA RESULT:      -8.9      3.160      6.516
REMARK  10 active torsions:
REMARK  status: ('A' for Active; 'I' for Inactive)
REMARK    1  A    between atoms: C_2  and  O_3 
REMARK    2  A    between atoms: O_3  and  C_4 
REMARK    3  A    between atoms: C_9  and  C_10 
REMARK    4  A    between atoms: C_10  and  O_11 
REMARK    5  A    between atoms: O_11  and  C_12 
REMARK    6  A    between atoms: C_12  and  C_13 
REMARK       I    between atoms: C_13  and  N_14 
REMARK    7  A    between atoms: N_14  and  C_15 
REMARK    8  A    between atoms: C_16  and  C_17 
REMARK       I    between atoms: C_17  and  N_18 
REMARK    9  A    between atoms: N_18  and  C_19 
REMARK   10  A    between atoms: C_19  and  C_20 
ROOT
HETATM    1  C   UNL     1      24.567  48.413  49.344  1.00  0.00     0.050 A 
HETATM    2  C   UNL     1      25.549  47.651  50.010  1.00  0.00     0.058 A 
HETATM    3  C   UNL     1      26.909  47.986  49.907  1.00  0.00     0.019 A 
HETATM    4  C   UNL     1      27.309  49.055  49.110  1.00  0.00     0.001 A 
HETATM    5  C   UNL     1      26.353  49.787  48.414  1.00  0.00     0.002 A 
HETATM    6  C   UNL     1      24.995  49.470  48.531  1.00  0.00     0.030 A 
ENDROOT
BRANCH   1   7
HETATM    7  N   UNL     1      23.191  48.150  49.576  1.00  0.00    -0.324 N 
HETATM    8  C   UNL     1      22.224  47.846  48.633  1.00  0.00     0.246 C 
HETATM    9  O   UNL     1      22.436  47.552  47.458  1.00  0.00    -0.271 OA
HETATM   10  H   UNL     1      22.867  48.328  50.526  1.00  0.00     0.169 HD
BRANCH   8  11
HETATM   11  C   UNL     1      20.792  47.897  49.181  1.00  0.00     0.282 C 
BRANCH  11  12
HETATM   12  O   UNL     1      20.423  49.212  49.594  1.00  0.00    -0.308 OA
BRANCH  12  13
HETATM   13  C   UNL     1      19.192  49.294  50.149  1.00  0.00     0.298 C 
HETATM   14  O   UNL     1      18.788  48.584  51.060  1.00  0.00    -0.259 OA
BRANCH  13  15
HETATM   15  C   UNL     1      18.331  50.296  49.484  1.00  0.00     0.092 A 
HETATM   16  C   UNL     1      17.570  50.060  48.341  1.00  0.00     0.180 A 
HETATM   17  N   UNL     1      16.807  51.018  47.751  1.00  0.00    -0.236 NA
HETATM   18  C   UNL     1      16.811  52.249  48.305  1.00  0.00     0.119 A 
HETATM   19  C   UNL     1      17.544  52.583  49.428  1.00  0.00     0.020 A 
HETATM   20  C   UNL     1      18.316  51.590  50.023  1.00  0.00     0.023 A 
BRANCH  16  21
HETATM   21  O   UNL     1      17.619  48.819  47.745  1.00  0.00    -0.334 OA
BRANCH  21  22
HETATM   22  C   UNL     1      16.452  48.022  47.945  1.00  0.00     0.173 C 
HETATM   23  C   UNL     1      16.875  46.743  48.645  1.00  0.00     0.034 C 
ENDBRANCH  21  22
ENDBRANCH  16  21
ENDBRANCH  13  15
ENDBRANCH  12  13
ENDBRANCH  11  12
ENDBRANCH   8  11
ENDBRANCH   1   7
BRANCH   2  24
HETATM   24  C   UNL     1      25.237  46.424  50.790  1.00  0.00     0.254 C 
HETATM   25  N   UNL     1      26.079  46.175  51.853  1.00  0.00    -0.349 N 
HETATM   26  H   UNL     1      26.845  46.811  52.034  1.00  0.00     0.163 HD
HETATM   27  O   UNL     1      24.260  45.741  50.512  1.00  0.00    -0.268 OA
BRANCH  25  28
HETATM   28  C   UNL     1      25.930  45.011  52.708  1.00  0.00     0.114 C 
HETATM   29  C   UNL     1      25.162  45.388  53.977  1.00  0.00     0.037 C 
BRANCH  28  30
HETATM   30  C   UNL     1      27.294  44.393  52.969  1.00  0.00    -0.036 A 
HETATM   31  C   UNL     1      28.046  43.752  51.972  1.00  0.00     0.009 A 
HETATM   32  C   UNL     1      29.294  43.196  52.269  1.00  0.00     0.001 A 
HETATM   33  C   UNL     1      29.801  43.262  53.565  1.00  0.00     0.000 A 
HETATM   34  C   UNL     1      29.060  43.877  54.569  1.00  0.00     0.001 A 
HETATM   35  C   UNL     1      27.814  44.431  54.275  1.00  0.00     0.009 A 
ENDBRANCH  28  30
ENDBRANCH  25  28
ENDBRANCH   2  24
TORSDOF 10
ENDMDL
MODEL 7
REMARK VINA RESULT:      -8.9      1.718      5.059
REMARK  10 active torsions:
REMARK  status: ('A' for Active; 'I' for Inactive)
REMARK    1  A    between atoms: C_2  and  O_3 
REMARK    2  A    between atoms: O_3  and  C_4 
REMARK    3  A    between atoms: C_9  and  C_10 
REMARK    4  A    between atoms: C_10  and  O_11 
REMARK    5  A    between atoms: O_11  and  C_12 
REMARK    6  A    between atoms: C_12  and  C_13 
REMARK       I    between atoms: C_13  and  N_14 
REMARK    7  A    between atoms: N_14  and  C_15 
REMARK    8  A    between atoms: C_16  and  C_17 
REMARK       I    between atoms: C_17  and  N_18 
REMARK    9  A    between atoms: N_18  and  C_19 
REMARK   10  A    between atoms: C_19  and  C_20 
ROOT
HETATM    1  C   UNL     1      28.475  44.817  54.195  1.00  0.00     0.050 A 
HETATM    2  C   UNL     1      28.918  43.683  53.482  1.00  0.00     0.058 A 
HETATM    3  C   UNL     1      29.983  42.904  53.964  1.00  0.00     0.019 A 
HETATM    4  C   UNL     1      30.643  43.267  55.135  1.00  0.00     0.001 A 
HETATM    5  C   UNL     1      30.243  44.408  55.822  1.00  0.00     0.002 A 
HETATM    6  C   UNL     1      29.168  45.175  55.358  1.00  0.00     0.030 A 
ENDROOT
BRANCH   1   7
HETATM    7  N   UNL     1      27.307  45.505  53.771  1.00  0.00    -0.324 N 
HETATM    8  C   UNL     1      25.991  45.117  53.956  1.00  0.00     0.246 C 
HETATM    9  O   UNL     1      25.607  44.215  54.697  1.00  0.00    -0.271 OA
HETATM   10  H   UNL     1      27.470  46.304  53.160  1.00  0.00     0.169 HD
BRANCH   8  11
HETATM   11  C   UNL     1      24.987  45.938  53.135  1.00  0.00     0.282 C 
BRANCH  11  12
HETATM   12  O   UNL     1      25.635  46.777  52.180  1.00  0.00    -0.308 OA
BRANCH  12  13
HETATM   13  C   UNL     1      25.215  46.596  50.907  1.00  0.00     0.298 C 
HETATM   14  O   UNL     1      24.667  45.584  50.490  1.00  0.00    -0.259 OA
BRANCH  13  15
HETATM   15  C   UNL     1      25.555  47.733  50.026  1.00  0.00     0.092 A 
HETATM   16  C   UNL     1      24.633  48.631  49.491  1.00  0.00     0.180 A 
HETATM   17  N   UNL     1      24.989  49.652  48.668  1.00  0.00    -0.236 NA
HETATM   18  C   UNL     1      26.296  49.777  48.356  1.00  0.00     0.119 A 
HETATM   19  C   UNL     1      27.281  48.929  48.824  1.00  0.00     0.020 A 
HETATM   20  C   UNL     1      26.901  47.891  49.670  1.00  0.00     0.023 A 
BRANCH  16  21
HETATM   21  O   UNL     1      23.293  48.461  49.763  1.00  0.00    -0.334 OA
BRANCH  21  22
HETATM   22  C   UNL     1      22.456  48.433  48.607  1.00  0.00     0.173 C 
HETATM   23  C   UNL     1      22.414  47.004  48.096  1.00  0.00     0.034 C 
ENDBRANCH  21  22
ENDBRANCH  16  21
ENDBRANCH  13  15
ENDBRANCH  12  13
ENDBRANCH  11  12
ENDBRANCH   8  11
ENDBRANCH   1   7
BRANCH   2  24
HETATM   24  C   UNL     1      28.357  43.278  52.166  1.00  0.00     0.254 C 
HETATM   25  N   UNL     1      28.200  41.920  51.989  1.00  0.00    -0.349 N 
HETATM   26  H   UNL     1      28.476  41.291  52.733  1.00  0.00     0.163 HD
HETATM   27  O   UNL     1      28.018  44.122  51.347  1.00  0.00    -0.268 OA
BRANCH  25  28
HETATM   28  C   UNL     1      27.684  41.349  50.757  1.00  0.00     0.114 C 
HETATM   29  C   UNL     1      26.175  41.125  50.876  1.00  0.00     0.037 C 
BRANCH  28  30
HETATM   30  C   UNL     1      28.472  40.099  50.406  1.00  0.00    -0.036 A 
HETATM   31  C   UNL     1      28.531  39.572  49.106  1.00  0.00     0.009 A 
HETATM   32  C   UNL     1      29.269  38.415  48.840  1.00  0.00     0.001 A 
HETATM   33  C   UNL     1      29.945  37.761  49.868  1.00  0.00     0.000 A 
HETATM   34  C   UNL     1      29.880  38.259  51.166  1.00  0.00     0.001 A 
HETATM   35  C   UNL     1      29.144  39.414  51.433  1.00  0.00     0.009 A 
ENDBRANCH  28  30
ENDBRANCH  25  28
ENDBRANCH   2  24
TORSDOF 10
ENDMDL
MODEL 8
REMARK VINA RESULT:      -8.8      2.035      3.658
REMARK  10 active torsions:
REMARK  status: ('A' for Active; 'I' for Inactive)
REMARK    1  A    between atoms: C_2  and  O_3 
REMARK    2  A    between atoms: O_3  and  C_4 
REMARK    3  A    between atoms: C_9  and  C_10 
REMARK    4  A    between atoms: C_10  and  O_11 
REMARK    5  A    between atoms: O_11  and  C_12 
REMARK    6  A    between atoms: C_12  and  C_13 
REMARK       I    between atoms: C_13  and  N_14 
REMARK    7  A    between atoms: N_14  and  C_15 
REMARK    8  A    between atoms: C_16  and  C_17 
REMARK       I    between atoms: C_17  and  N_18 
REMARK    9  A    between atoms: N_18  and  C_19 
REMARK   10  A    between atoms: C_19  and  C_20 
ROOT
HETATM    1  C   UNL     1      25.297  43.961  50.056  1.00  0.00     0.050 A 
HETATM    2  C   UNL     1      25.747  43.410  51.274  1.00  0.00     0.058 A 
HETATM    3  C   UNL     1      26.161  42.070  51.345  1.00  0.00     0.019 A 
HETATM    4  C   UNL     1      26.092  41.254  50.219  1.00  0.00     0.001 A 
HETATM    5  C   UNL     1      25.608  41.775  49.024  1.00  0.00     0.002 A 
HETATM    6  C   UNL     1      25.215  43.116  48.942  1.00  0.00     0.030 A 
ENDROOT
BRANCH   1   7
HETATM    7  N   UNL     1      25.022  45.352  49.969  1.00  0.00    -0.324 N 
HETATM    8  C   UNL     1      25.924  46.371  49.715  1.00  0.00     0.246 C 
HETATM    9  O   UNL     1      27.079  46.224  49.319  1.00  0.00    -0.271 OA
HETATM   10  H   UNL     1      24.081  45.628  50.246  1.00  0.00     0.169 HD
BRANCH   8  11
HETATM   11  C   UNL     1      25.354  47.773  49.966  1.00  0.00     0.282 C 
BRANCH  11  12
HETATM   12  O   UNL     1      23.928  47.774  49.999  1.00  0.00    -0.308 OA
BRANCH  12  13
HETATM   13  C   UNL     1      23.348  48.265  48.880  1.00  0.00     0.298 C 
HETATM   14  O   UNL     1      23.906  48.984  48.063  1.00  0.00    -0.259 OA
BRANCH  13  15
HETATM   15  C   UNL     1      21.917  47.907  48.774  1.00  0.00     0.092 A 
HETATM   16  C   UNL     1      20.857  48.762  49.063  1.00  0.00     0.180 A 
HETATM   17  N   UNL     1      19.555  48.383  48.971  1.00  0.00    -0.236 NA
HETATM   18  C   UNL     1      19.299  47.113  48.592  1.00  0.00     0.119 A 
HETATM   19  C   UNL     1      20.283  46.187  48.298  1.00  0.00     0.020 A 
HETATM   20  C   UNL     1      21.610  46.593  48.393  1.00  0.00     0.023 A 
BRANCH  16  21
HETATM   21  O   UNL     1      21.125  50.038  49.509  1.00  0.00    -0.334 OA
BRANCH  21  22
HETATM   22  C   UNL     1      21.061  51.042  48.497  1.00  0.00     0.173 C 
HETATM   23  C   UNL     1      19.815  51.874  48.742  1.00  0.00     0.034 C 
ENDBRANCH  21  22
ENDBRANCH  16  21
ENDBRANCH  13  15
ENDBRANCH  12  13
ENDBRANCH  11  12
ENDBRANCH   8  11
ENDBRANCH   1   7
BRANCH   2  24
HETATM   24  C   UNL     1      25.750  44.163  52.556  1.00  0.00     0.254 C 
HETATM   25  N   UNL     1      26.989  44.594  52.981  1.00  0.00    -0.349 N 
HETATM   26  H   UNL     1      27.805  44.374  52.422  1.00  0.00     0.163 HD
HETATM   27  O   UNL     1      24.700  44.410  53.135  1.00  0.00    -0.268 OA
BRANCH  25  28
HETATM   28  C   UNL     1      27.177  45.326  54.221  1.00  0.00     0.114 C 
HETATM   29  C   UNL     1      27.018  46.828  53.971  1.00  0.00     0.037 C 
BRANCH  28  30
HETATM   30  C   UNL     1      28.506  44.937  54.845  1.00  0.00    -0.036 A 
HETATM   31  C   UNL     1      29.178  45.744  55.776  1.00  0.00     0.009 A 
HETATM   32  C   UNL     1      30.403  45.339  56.315  1.00  0.00     0.001 A 
HETATM   33  C   UNL     1      30.978  44.132  55.923  1.00  0.00     0.000 A 
HETATM   34  C   UNL     1      30.335  43.330  54.986  1.00  0.00     0.001 A 
HETATM   35  C   UNL     1      29.113  43.733  54.446  1.00  0.00     0.009 A 
ENDBRANCH  28  30
ENDBRANCH  25  28
ENDBRANCH   2  24
TORSDOF 10
ENDMDL
MODEL 9
REMARK VINA RESULT:      -8.6      3.211      7.658
REMARK  10 active torsions:
REMARK  status: ('A' for Active; 'I' for Inactive)
REMARK    1  A    between atoms: C_2  and  O_3 
REMARK    2  A    between atoms: O_3  and  C_4 
REMARK    3  A    between atoms: C_9  and  C_10 
REMARK    4  A    between atoms: C_10  and  O_11 
REMARK    5  A    between atoms: O_11  and  C_12 
REMARK    6  A    between atoms: C_12  and  C_13 
REMARK       I    between atoms: C_13  and  N_14 
REMARK    7  A    between atoms: N_14  and  C_15 
REMARK    8  A    between atoms: C_16  and  C_17 
REMARK       I    between atoms: C_17  and  N_18 
REMARK    9  A    between atoms: N_18  and  C_19 
REMARK   10  A    between atoms: C_19  and  C_20 
ROOT
HETATM    1  C   UNL     1      30.024  43.896  55.063  1.00  0.00     0.050 A 
HETATM    2  C   UNL     1      29.407  45.023  55.646  1.00  0.00     0.058 A 
HETATM    3  C   UNL     1      29.837  45.512  56.890  1.00  0.00     0.019 A 
HETATM    4  C   UNL     1      30.853  44.863  57.586  1.00  0.00     0.001 A 
HETATM    5  C   UNL     1      31.438  43.725  57.041  1.00  0.00     0.002 A 
HETATM    6  C   UNL     1      31.029  43.246  55.792  1.00  0.00     0.030 A 
ENDROOT
BRANCH   1   7
HETATM    7  N   UNL     1      29.677  43.504  53.743  1.00  0.00    -0.324 N 
HETATM    8  C   UNL     1      28.826  42.478  53.369  1.00  0.00     0.246 C 
HETATM    9  O   UNL     1      28.069  41.865  54.118  1.00  0.00    -0.271 OA
HETATM   10  H   UNL     1      30.213  43.952  53.001  1.00  0.00     0.169 HD
BRANCH   8  11
HETATM   11  C   UNL     1      28.889  42.141  51.873  1.00  0.00     0.282 C 
BRANCH  11  12
HETATM   12  O   UNL     1      28.502  40.794  51.610  1.00  0.00    -0.308 OA
BRANCH  12  13
HETATM   13  C   UNL     1      27.370  40.674  50.879  1.00  0.00     0.298 C 
HETATM   14  O   UNL     1      26.236  40.785  51.325  1.00  0.00    -0.259 OA
BRANCH  13  15
HETATM   15  C   UNL     1      27.635  40.314  49.470  1.00  0.00     0.092 A 
HETATM   16  C   UNL     1      28.080  39.067  49.036  1.00  0.00     0.180 A 
HETATM   17  N   UNL     1      28.331  38.785  47.730  1.00  0.00    -0.236 NA
HETATM   18  C   UNL     1      28.147  39.774  46.831  1.00  0.00     0.119 A 
HETATM   19  C   UNL     1      27.723  41.047  47.165  1.00  0.00     0.020 A 
HETATM   20  C   UNL     1      27.466  41.318  48.506  1.00  0.00     0.023 A 
BRANCH  16  21
HETATM   21  O   UNL     1      28.326  38.080  49.965  1.00  0.00    -0.334 OA
BRANCH  21  22
HETATM   22  C   UNL     1      29.698  37.702  50.075  1.00  0.00     0.173 C 
HETATM   23  C   UNL     1      29.923  37.160  51.476  1.00  0.00     0.034 C 
ENDBRANCH  21  22
ENDBRANCH  16  21
ENDBRANCH  13  15
ENDBRANCH  12  13
ENDBRANCH  11  12
ENDBRANCH   8  11
ENDBRANCH   1   7
BRANCH   2  24
HETATM   24  C   UNL     1      28.240  45.716  55.039  1.00  0.00     0.254 C 
HETATM   25  N   UNL     1      27.140  44.919  54.808  1.00  0.00    -0.349 N 
HETATM   26  H   UNL     1      27.186  43.935  55.044  1.00  0.00     0.163 HD
HETATM   27  O   UNL     1      28.273  46.921  54.827  1.00  0.00    -0.268 OA
BRANCH  25  28
HETATM   28  C   UNL     1      25.922  45.428  54.203  1.00  0.00     0.114 C 
HETATM   29  C   UNL     1      24.751  44.492  54.515  1.00  0.00     0.037 C 
BRANCH  28  30
HETATM   30  C   UNL     1      26.150  45.664  52.720  1.00  0.00    -0.036 A 
HETATM   31  C   UNL     1      26.540  44.647  51.835  1.00  0.00     0.009 A 
HETATM   32  C   UNL     1      26.741  44.921  50.479  1.00  0.00     0.001 A 
HETATM   33  C   UNL     1      26.568  46.215  49.992  1.00  0.00     0.000 A 
HETATM   34  C   UNL     1      26.201  47.239  50.859  1.00  0.00     0.001 A 
HETATM   35  C   UNL     1      26.001  46.967  52.213  1.00  0.00     0.009 A 
ENDBRANCH  28  30
ENDBRANCH  25  28
ENDBRANCH   2  24
TORSDOF 10
ENDMDL
MODEL 10
REMARK VINA RESULT:      -8.5      2.394      5.925
REMARK  10 active torsions:
REMARK  status: ('A' for Active; 'I' for Inactive)
REMARK    1  A    between atoms: C_2  and  O_3 
REMARK    2  A    between atoms: O_3  and  C_4 
REMARK    3  A    between atoms: C_9  and  C_10 
REMARK    4  A    between atoms: C_10  and  O_11 
REMARK    5  A    between atoms: O_11  and  C_12 
REMARK    6  A    between atoms: C_12  and  C_13 
REMARK       I    between atoms: C_13  and  N_14 
REMARK    7  A    between atoms: N_14  and  C_15 
REMARK    8  A    between atoms: C_16  and  C_17 
REMARK       I    between atoms: C_17  and  N_18 
REMARK    9  A    between atoms: N_18  and  C_19 
REMARK   10  A    between atoms: C_19  and  C_20 
ROOT
HETATM    1  C   UNL     1      27.418  43.097  52.184  1.00  0.00     0.050 A 
HETATM    2  C   UNL     1      28.038  41.831  52.249  1.00  0.00     0.058 A 
HETATM    3  C   UNL     1      29.116  41.604  53.120  1.00  0.00     0.019 A 
HETATM    4  C   UNL     1      29.613  42.641  53.905  1.00  0.00     0.001 A 
HETATM    5  C   UNL     1      29.038  43.904  53.816  1.00  0.00     0.002 A 
HETATM    6  C   UNL     1      27.950  44.130  52.965  1.00  0.00     0.030 A 
ENDROOT
BRANCH   1   7
HETATM    7  N   UNL     1      26.242  43.268  51.407  1.00  0.00    -0.324 N 
HETATM    8  C   UNL     1      26.160  43.678  50.087  1.00  0.00     0.246 C 
HETATM    9  O   UNL     1      27.104  43.765  49.304  1.00  0.00    -0.271 OA
HETATM   10  H   UNL     1      25.366  43.199  51.923  1.00  0.00     0.169 HD
BRANCH   8  11
HETATM   11  C   UNL     1      24.735  44.029  49.639  1.00  0.00     0.282 C 
BRANCH  11  12
HETATM   12  O   UNL     1      24.621  45.393  49.237  1.00  0.00    -0.308 OA
BRANCH  12  13
HETATM   13  C   UNL     1      24.906  46.285  50.213  1.00  0.00     0.298 C 
HETATM   14  O   UNL     1      24.678  46.113  51.403  1.00  0.00    -0.259 OA
BRANCH  13  15
HETATM   15  C   UNL     1      25.462  47.550  49.688  1.00  0.00     0.092 A 
HETATM   16  C   UNL     1      24.705  48.652  49.296  1.00  0.00     0.180 A 
HETATM   17  N   UNL     1      25.259  49.789  48.798  1.00  0.00    -0.236 NA
HETATM   18  C   UNL     1      26.603  49.828  48.674  1.00  0.00     0.119 A 
HETATM   19  C   UNL     1      27.436  48.781  49.022  1.00  0.00     0.020 A 
HETATM   20  C   UNL     1      26.853  47.626  49.534  1.00  0.00     0.023 A 
BRANCH  16  21
HETATM   21  O   UNL     1      23.331  48.583  49.366  1.00  0.00    -0.334 OA
BRANCH  21  22
HETATM   22  C   UNL     1      22.669  48.729  48.109  1.00  0.00     0.173 C 
HETATM   23  C   UNL     1      21.915  47.442  47.826  1.00  0.00     0.034 C 
ENDBRANCH  21  22
ENDBRANCH  16  21
ENDBRANCH  13  15
ENDBRANCH  12  13
ENDBRANCH  11  12
ENDBRANCH   8  11
ENDBRANCH   1   7
BRANCH   2  24
HETATM   24  C   UNL     1      27.658  40.693  51.371  1.00  0.00     0.254 C 
HETATM   25  N   UNL     1      28.713  39.975  50.850  1.00  0.00    -0.349 N 
HETATM   26  H   UNL     1      29.659  40.257  51.076  1.00  0.00     0.163 HD
HETATM   27  O   UNL     1      26.480  40.410  51.193  1.00  0.00    -0.268 OA
BRANCH  25  28
HETATM   28  C   UNL     1      28.523  38.845  49.959  1.00  0.00     0.114 C 
HETATM   29  C   UNL     1      29.761  37.945  49.983  1.00  0.00     0.037 C 
BRANCH  28  30
HETATM   30  C   UNL     1      28.147  39.346  48.575  1.00  0.00    -0.036 A 
HETATM   31  C   UNL     1      28.586  40.576  48.062  1.00  0.00     0.009 A 
HETATM   32  C   UNL     1      28.205  40.991  46.782  1.00  0.00     0.001 A 
HETATM   33  C   UNL     1      27.371  40.190  46.004  1.00  0.00     0.000 A 
HETATM   34  C   UNL     1      26.910  38.976  46.506  1.00  0.00     0.001 A 
HETATM   35  C   UNL     1      27.290  38.562  47.783  1.00  0.00     0.009 A 
ENDBRANCH  28  30
ENDBRANCH  25  28
ENDBRANCH   2  24
TORSDOF 10
ENDMDL
