MODEL 1
REMARK VINA RESULT:     -10.3      0.000      0.000
REMARK  5 active torsions:
REMARK  status: ('A' for Active; 'I' for Inactive)
REMARK    1  A    between atoms: C_3  and  N_4 
REMARK       I    between atoms: N_4  and  C_5 
REMARK    2  A    between atoms: C_9  and  N_10 
REMARK       I    between atoms: N_10  and  C_11 
REMARK    3  A    between atoms: C_11  and  C_12 
REMARK    4  A    between atoms: C_17  and  C_18 
REMARK    5  A    between atoms: C_24  and  C_25 
ROOT
HETATM    1  C   UNL     1      26.846  44.615  51.243  1.00  0.00     0.148 C 
HETATM    2  N   UNL     1      27.799  43.706  50.924  1.00  0.00    -0.165 NA
HETATM    3  N   UNL     1      28.176  43.230  52.123  1.00  0.00    -0.240 N 
HETATM    4  C   UNL     1      27.626  43.888  53.185  1.00  0.00     0.123 C 
HETATM    5  N   UNL     1      28.039  43.644  54.444  1.00  0.00    -0.364 N 
HETATM    6  C   UNL     1      29.267  42.898  54.748  1.00  0.00     0.143 C 
HETATM    7  C   UNL     1      30.085  42.598  53.469  1.00  0.00     0.068 C 
HETATM    8  C   UNL     1      29.201  42.217  52.276  1.00  0.00     0.221 C 
HETATM    9  C   UNL     1      26.688  44.730  52.653  1.00  0.00     0.089 C 
HETATM   10  H   UNL     1      27.611  44.111  55.241  1.00  0.00     0.162 HD
ENDROOT
BRANCH   1  11
HETATM   11  C   UNL     1      26.140  45.402  50.215  1.00  0.00     0.276 C 
HETATM   12  N   UNL     1      25.961  46.715  50.607  1.00  0.00    -0.322 N 
HETATM   13  H   UNL     1      26.352  46.918  51.525  1.00  0.00     0.169 HD
HETATM   14  O   UNL     1      25.745  44.887  49.175  1.00  0.00    -0.266 OA
BRANCH  12  15
HETATM   15  C   UNL     1      25.263  47.737  49.942  1.00  0.00     0.037 A 
HETATM   16  C   UNL     1      23.875  47.882  49.975  1.00  0.00     0.059 A 
HETATM   17  C   UNL     1      23.218  48.944  49.318  1.00  0.00     0.042 A 
HETATM   18  C   UNL     1      23.979  49.846  48.554  1.00  0.00    -0.035 A 
HETATM   19  C   UNL     1      23.411  50.943  47.699  1.00  0.00     0.050 C 
HETATM   20  C   UNL     1      25.380  49.703  48.543  1.00  0.00     0.011 A 
HETATM   21  C   UNL     1      26.014  48.662  49.223  1.00  0.00     0.030 A 
BRANCH  17  22
HETATM   22  N   UNL     1      21.811  48.944  49.470  1.00  0.00    -0.327 N 
HETATM   23  C   UNL     1      20.863  48.302  48.699  1.00  0.00     0.218 C 
HETATM   24  C   UNL     1      19.466  48.463  49.250  1.00  0.00     0.117 C 
HETATM   25  O   UNL     1      21.050  47.666  47.669  1.00  0.00    -0.274 OA
HETATM   26  H   UNL     1      21.449  49.681  50.064  1.00  0.00     0.169 HD
ENDBRANCH  17  22
ENDBRANCH  12  15
ENDBRANCH   1  11
BRANCH   8  27
HETATM   27  C   UNL     1      28.566  40.854  52.426  1.00  0.00     0.409 C 
HETATM   28  F   UNL     1      27.239  40.876  52.170  1.00  0.00    -0.169 F 
HETATM   29  F   UNL     1      29.116  39.993  51.531  1.00  0.00    -0.169 F 
HETATM   30  F   UNL     1      28.740  40.304  53.645  1.00  0.00    -0.169 F 
ENDBRANCH   8  27
BRANCH   6  31
HETATM   31  C   UNL     1      30.147  43.620  55.724  1.00  0.00     0.075 A 
HETATM   32  O   UNL     1      29.821  44.913  56.010  1.00  0.00    -0.325 OA
HETATM   33  C   UNL     1      30.728  45.357  56.919  1.00  0.00     0.142 A 
HETATM   34  C   UNL     1      31.630  44.366  57.226  1.00  0.00     0.027 A 
HETATM   35  C   UNL     1      31.257  43.242  56.454  1.00  0.00     0.037 A 
ENDBRANCH   6  31
TORSDOF 5
ENDMDL
MODEL 2
REMARK VINA RESULT:      -9.8      1.532      2.248
REMARK  5 active torsions:
REMARK  status: ('A' for Active; 'I' for Inactive)
REMARK    1  A    between atoms: C_3  and  N_4 
REMARK       I    between atoms: N_4  and  C_5 
REMARK    2  A    between atoms: C_9  and  N_10 
REMARK       I    between atoms: N_10  and  C_11 
REMARK    3  A    between atoms: C_11  and  C_12 
REMARK    4  A    between atoms: C_17  and  C_18 
REMARK    5  A    between atoms: C_24  and  C_25 
ROOT
HETATM    1  C   UNL     1      26.726  44.711  51.080  1.00  0.00     0.148 C 
HETATM    2  N   UNL     1      27.685  43.814  50.742  1.00  0.00    -0.165 NA
HETATM    3  N   UNL     1      28.059  43.309  51.930  1.00  0.00    -0.240 N 
HETATM    4  C   UNL     1      27.500  43.936  53.006  1.00  0.00     0.123 C 
HETATM    5  N   UNL     1      27.908  43.661  54.260  1.00  0.00    -0.364 N 
HETATM    6  C   UNL     1      29.138  42.913  54.551  1.00  0.00     0.143 C 
HETATM    7  C   UNL     1      29.963  42.650  53.269  1.00  0.00     0.068 C 
HETATM    8  C   UNL     1      29.087  42.297  52.062  1.00  0.00     0.221 C 
HETATM    9  C   UNL     1      26.561  44.788  52.492  1.00  0.00     0.089 C 
HETATM   10  H   UNL     1      27.474  44.106  55.068  1.00  0.00     0.162 HD
ENDROOT
BRANCH   1  11
HETATM   11  C   UNL     1      26.022  45.521  50.070  1.00  0.00     0.276 C 
HETATM   12  N   UNL     1      24.671  45.232  50.031  1.00  0.00    -0.322 N 
HETATM   13  H   UNL     1      24.392  44.523  50.706  1.00  0.00     0.169 HD
HETATM   14  O   UNL     1      26.623  46.311  49.351  1.00  0.00    -0.266 OA
BRANCH  12  15
HETATM   15  C   UNL     1      23.697  45.730  49.150  1.00  0.00     0.037 A 
HETATM   16  C   UNL     1      23.186  47.027  49.206  1.00  0.00     0.059 A 
HETATM   17  C   UNL     1      22.232  47.497  48.278  1.00  0.00     0.042 A 
HETATM   18  C   UNL     1      21.731  46.610  47.310  1.00  0.00    -0.035 A 
HETATM   19  C   UNL     1      20.624  46.924  46.344  1.00  0.00     0.050 C 
HETATM   20  C   UNL     1      22.266  45.308  47.249  1.00  0.00     0.011 A 
HETATM   21  C   UNL     1      23.231  44.871  48.158  1.00  0.00     0.030 A 
BRANCH  17  22
HETATM   22  N   UNL     1      21.837  48.842  48.475  1.00  0.00    -0.327 N 
HETATM   23  C   UNL     1      22.394  49.988  47.945  1.00  0.00     0.218 C 
HETATM   24  C   UNL     1      21.618  51.229  48.312  1.00  0.00     0.117 C 
HETATM   25  O   UNL     1      23.405  50.073  47.258  1.00  0.00    -0.274 OA
HETATM   26  H   UNL     1      21.230  48.993  49.272  1.00  0.00     0.169 HD
ENDBRANCH  17  22
ENDBRANCH  12  15
ENDBRANCH   1  11
BRANCH   8  27
HETATM   27  C   UNL     1      28.457  40.927  52.173  1.00  0.00     0.409 C 
HETATM   28  F   UNL     1      28.826  40.110  51.162  1.00  0.00    -0.169 F 
HETATM   29  F   UNL     1      28.867  40.327  53.322  1.00  0.00    -0.169 F 
HETATM   30  F   UNL     1      27.109  40.950  52.212  1.00  0.00    -0.169 F 
ENDBRANCH   8  27
BRANCH   6  31
HETATM   31  C   UNL     1      30.011  43.614  55.549  1.00  0.00     0.075 A 
HETATM   32  O   UNL     1      29.691  44.904  55.851  1.00  0.00    -0.325 OA
HETATM   33  C   UNL     1      30.589  45.327  56.779  1.00  0.00     0.142 A 
HETATM   34  C   UNL     1      31.479  44.324  57.083  1.00  0.00     0.027 A 
HETATM   35  C   UNL     1      31.108  43.215  56.289  1.00  0.00     0.037 A 
ENDBRANCH   6  31
TORSDOF 5
ENDMDL
MODEL 3
REMARK VINA RESULT:      -9.2      1.994      2.827
REMARK  5 active torsions:
REMARK  status: ('A' for Active; 'I' for Inactive)
REMARK    1  A    between atoms: C_3  and  N_4 
REMARK       I    between atoms: N_4  and  C_5 
REMARK    2  A    between atoms: C_9  and  N_10 
REMARK       I    between atoms: N_10  and  C_11 
REMARK    3  A    between atoms: C_11  and  C_12 
REMARK    4  A    between atoms: C_17  and  C_18 
REMARK    5  A    between atoms: C_24  and  C_25 
ROOT
HETATM    1  C   UNL     1      25.444  46.693  50.712  1.00  0.00     0.148 C 
HETATM    2  N   UNL     1      26.165  45.708  50.121  1.00  0.00    -0.165 NA
HETATM    3  N   UNL     1      26.550  44.950  51.163  1.00  0.00    -0.240 N 
HETATM    4  C   UNL     1      26.240  45.476  52.384  1.00  0.00     0.123 C 
HETATM    5  N   UNL     1      26.710  44.923  53.518  1.00  0.00    -0.364 N 
HETATM    6  C   UNL     1      27.790  43.928  53.530  1.00  0.00     0.143 C 
HETATM    7  C   UNL     1      28.411  43.741  52.126  1.00  0.00     0.068 C 
HETATM    8  C   UNL     1      27.364  43.761  51.007  1.00  0.00     0.221 C 
HETATM    9  C   UNL     1      25.442  46.558  52.129  1.00  0.00     0.089 C 
HETATM   10  H   UNL     1      26.458  45.295  54.432  1.00  0.00     0.162 HD
ENDROOT
BRANCH   1  11
HETATM   11  C   UNL     1      24.815  47.776  49.934  1.00  0.00     0.276 C 
HETATM   12  N   UNL     1      23.436  47.731  50.012  1.00  0.00    -0.322 N 
HETATM   13  H   UNL     1      23.091  46.973  50.597  1.00  0.00     0.169 HD
HETATM   14  O   UNL     1      25.487  48.567  49.281  1.00  0.00    -0.266 OA
BRANCH  12  15
HETATM   15  C   UNL     1      22.497  48.535  49.344  1.00  0.00     0.037 A 
HETATM   16  C   UNL     1      21.304  48.053  48.805  1.00  0.00     0.059 A 
HETATM   17  C   UNL     1      20.372  48.903  48.171  1.00  0.00     0.042 A 
HETATM   18  C   UNL     1      20.688  50.264  48.019  1.00  0.00    -0.035 A 
HETATM   19  C   UNL     1      19.861  51.260  47.256  1.00  0.00     0.050 C 
HETATM   20  C   UNL     1      21.885  50.744  48.584  1.00  0.00     0.011 A 
HETATM   21  C   UNL     1      22.781  49.893  49.233  1.00  0.00     0.030 A 
BRANCH  17  22
HETATM   22  N   UNL     1      19.211  48.248  47.696  1.00  0.00    -0.327 N 
HETATM   23  C   UNL     1      18.047  47.958  48.379  1.00  0.00     0.218 C 
HETATM   24  C   UNL     1      16.995  47.341  47.490  1.00  0.00     0.117 C 
HETATM   25  O   UNL     1      17.820  48.140  49.569  1.00  0.00    -0.274 OA
HETATM   26  H   UNL     1      19.339  47.730  46.835  1.00  0.00     0.169 HD
ENDBRANCH  17  22
ENDBRANCH  12  15
ENDBRANCH   1  11
BRANCH   8  27
HETATM   27  C   UNL     1      26.488  42.529  50.998  1.00  0.00     0.409 C 
HETATM   28  F   UNL     1      25.243  42.783  51.459  1.00  0.00    -0.169 F 
HETATM   29  F   UNL     1      26.343  42.081  49.724  1.00  0.00    -0.169 F 
HETATM   30  F   UNL     1      26.989  41.501  51.713  1.00  0.00    -0.169 F 
ENDBRANCH   8  27
BRANCH   6  31
HETATM   31  C   UNL     1      28.881  44.279  54.497  1.00  0.00     0.075 A 
HETATM   32  O   UNL     1      28.791  45.491  55.115  1.00  0.00    -0.325 OA
HETATM   33  C   UNL     1      29.859  45.589  55.950  1.00  0.00     0.142 A 
HETATM   34  C   UNL     1      30.632  44.454  55.881  1.00  0.00     0.027 A 
HETATM   35  C   UNL     1      30.002  43.605  54.941  1.00  0.00     0.037 A 
ENDBRANCH   6  31
TORSDOF 5
ENDMDL
MODEL 4
REMARK VINA RESULT:      -9.1      3.622     10.145
REMARK  5 active torsions:
REMARK  status: ('A' for Active; 'I' for Inactive)
REMARK    1  A    between atoms: C_3  and  N_4 
REMARK       I    between atoms: N_4  and  C_5 
REMARK    2  A    between atoms: C_9  and  N_10 
REMARK       I    between atoms: N_10  and  C_11 
REMARK    3  A    between atoms: C_11  and  C_12 
REMARK    4  A    between atoms: C_17  and  C_18 
REMARK    5  A    between atoms: C_24  and  C_25 
ROOT
HETATM    1  C   UNL     1      24.546  47.500  49.726  1.00  0.00     0.148 C 
HETATM    2  N   UNL     1      23.503  46.642  49.607  1.00  0.00    -0.165 NA
HETATM    3  N   UNL     1      22.604  47.354  48.905  1.00  0.00    -0.240 N 
HETATM    4  C   UNL     1      22.957  48.657  48.702  1.00  0.00     0.123 C 
HETATM    5  N   UNL     1      22.088  49.538  48.170  1.00  0.00    -0.364 N 
HETATM    6  C   UNL     1      20.651  49.260  48.042  1.00  0.00     0.143 C 
HETATM    7  C   UNL     1      20.261  47.935  48.740  1.00  0.00     0.068 C 
HETATM    8  C   UNL     1      21.304  46.830  48.539  1.00  0.00     0.221 C 
HETATM    9  C   UNL     1      24.249  48.763  49.138  1.00  0.00     0.089 C 
HETATM   10  H   UNL     1      22.356  50.504  47.990  1.00  0.00     0.162 HD
ENDROOT
BRANCH   1  11
HETATM   11  C   UNL     1      25.782  47.135  50.440  1.00  0.00     0.276 C 
HETATM   12  N   UNL     1      25.695  45.878  51.008  1.00  0.00    -0.322 N 
HETATM   13  H   UNL     1      24.805  45.417  50.829  1.00  0.00     0.169 HD
HETATM   14  O   UNL     1      26.727  47.912  50.522  1.00  0.00    -0.266 OA
BRANCH  12  15
HETATM   15  C   UNL     1      26.627  45.225  51.831  1.00  0.00     0.037 A 
HETATM   16  C   UNL     1      26.811  45.516  53.183  1.00  0.00     0.059 A 
HETATM   17  C   UNL     1      27.737  44.811  53.981  1.00  0.00     0.042 A 
HETATM   18  C   UNL     1      28.545  43.831  53.380  1.00  0.00    -0.035 A 
HETATM   19  C   UNL     1      29.659  43.093  54.067  1.00  0.00     0.050 C 
HETATM   20  C   UNL     1      28.338  43.530  52.019  1.00  0.00     0.011 A 
HETATM   21  C   UNL     1      27.397  44.219  51.253  1.00  0.00     0.030 A 
BRANCH  17  22
HETATM   22  N   UNL     1      27.781  45.229  55.333  1.00  0.00    -0.327 N 
HETATM   23  C   UNL     1      28.761  45.958  55.976  1.00  0.00     0.218 C 
HETATM   24  C   UNL     1      28.388  46.293  57.401  1.00  0.00     0.117 C 
HETATM   25  O   UNL     1      29.838  46.320  55.519  1.00  0.00    -0.274 OA
HETATM   26  H   UNL     1      27.141  44.741  55.948  1.00  0.00     0.169 HD
ENDBRANCH  17  22
ENDBRANCH  12  15
ENDBRANCH   1  11
BRANCH   8  27
HETATM   27  C   UNL     1      21.337  46.302  47.123  1.00  0.00     0.409 C 
HETATM   28  F   UNL     1      22.594  46.037  46.705  1.00  0.00    -0.169 F 
HETATM   29  F   UNL     1      20.654  45.129  47.057  1.00  0.00    -0.169 F 
HETATM   30  F   UNL     1      20.769  47.129  46.221  1.00  0.00    -0.169 F 
ENDBRANCH   8  27
BRANCH   6  31
HETATM   31  C   UNL     1      19.803  50.364  48.597  1.00  0.00     0.075 A 
HETATM   32  O   UNL     1      18.840  50.011  49.495  1.00  0.00    -0.325 OA
HETATM   33  C   UNL     1      18.216  51.157  49.876  1.00  0.00     0.142 A 
HETATM   34  C   UNL     1      18.769  52.243  49.240  1.00  0.00     0.027 A 
HETATM   35  C   UNL     1      19.796  51.733  48.412  1.00  0.00     0.037 A 
ENDBRANCH   6  31
TORSDOF 5
ENDMDL
MODEL 5
REMARK VINA RESULT:      -9.1      3.881     10.412
REMARK  5 active torsions:
REMARK  status: ('A' for Active; 'I' for Inactive)
REMARK    1  A    between atoms: C_3  and  N_4 
REMARK       I    between atoms: N_4  and  C_5 
REMARK    2  A    between atoms: C_9  and  N_10 
REMARK       I    between atoms: N_10  and  C_11 
REMARK    3  A    between atoms: C_11  and  C_12 
REMARK    4  A    between atoms: C_17  and  C_18 
REMARK    5  A    between atoms: C_24  and  C_25 
ROOT
HETATM    1  C   UNL     1      23.956  47.799  49.473  1.00  0.00     0.148 C 
HETATM    2  N   UNL     1      22.911  46.948  49.335  1.00  0.00    -0.165 NA
HETATM    3  N   UNL     1      22.012  47.679  48.655  1.00  0.00    -0.240 N 
HETATM    4  C   UNL     1      22.368  48.986  48.483  1.00  0.00     0.123 C 
HETATM    5  N   UNL     1      21.499  49.882  47.977  1.00  0.00    -0.364 N 
HETATM    6  C   UNL     1      20.062  49.612  47.846  1.00  0.00     0.143 C 
HETATM    7  C   UNL     1      19.670  48.271  48.512  1.00  0.00     0.068 C 
HETATM    8  C   UNL     1      20.709  47.168  48.279  1.00  0.00     0.221 C 
HETATM    9  C   UNL     1      23.662  49.077  48.919  1.00  0.00     0.089 C 
HETATM   10  H   UNL     1      21.770  50.852  47.820  1.00  0.00     0.162 HD
ENDROOT
BRANCH   1  11
HETATM   11  C   UNL     1      25.194  47.412  50.174  1.00  0.00     0.276 C 
HETATM   12  N   UNL     1      24.928  46.771  51.369  1.00  0.00    -0.322 N 
HETATM   13  H   UNL     1      23.933  46.666  51.556  1.00  0.00     0.169 HD
HETATM   14  O   UNL     1      26.299  47.691  49.721  1.00  0.00    -0.266 OA
BRANCH  12  15
HETATM   15  C   UNL     1      25.837  46.335  52.346  1.00  0.00     0.037 A 
HETATM   16  C   UNL     1      26.288  45.019  52.459  1.00  0.00     0.059 A 
HETATM   17  C   UNL     1      27.229  44.631  53.437  1.00  0.00     0.042 A 
HETATM   18  C   UNL     1      27.674  45.585  54.368  1.00  0.00    -0.035 A 
HETATM   19  C   UNL     1      28.569  45.294  55.539  1.00  0.00     0.050 C 
HETATM   20  C   UNL     1      27.228  46.915  54.234  1.00  0.00     0.011 A 
HETATM   21  C   UNL     1      26.319  47.285  53.242  1.00  0.00     0.030 A 
BRANCH  17  22
HETATM   22  N   UNL     1      27.585  43.262  53.395  1.00  0.00    -0.327 N 
HETATM   23  C   UNL     1      28.772  42.694  52.980  1.00  0.00     0.218 C 
HETATM   24  C   UNL     1      28.800  41.199  53.189  1.00  0.00     0.117 C 
HETATM   25  O   UNL     1      29.734  43.265  52.480  1.00  0.00    -0.274 OA
HETATM   26  H   UNL     1      26.804  42.619  53.456  1.00  0.00     0.169 HD
ENDBRANCH  17  22
ENDBRANCH  12  15
ENDBRANCH   1  11
BRANCH   8  27
HETATM   27  C   UNL     1      20.736  46.677  46.850  1.00  0.00     0.409 C 
HETATM   28  F   UNL     1      21.980  46.704  46.323  1.00  0.00    -0.169 F 
HETATM   29  F   UNL     1      20.327  45.382  46.805  1.00  0.00    -0.169 F 
HETATM   30  F   UNL     1      19.924  47.366  46.022  1.00  0.00    -0.169 F 
ENDBRANCH   8  27
BRANCH   6  31
HETATM   31  C   UNL     1      19.218  50.704  48.432  1.00  0.00     0.075 A 
HETATM   32  O   UNL     1      18.089  50.324  49.095  1.00  0.00    -0.325 OA
HETATM   33  C   UNL     1      17.500  51.459  49.554  1.00  0.00     0.142 A 
HETATM   34  C   UNL     1      18.237  52.564  49.200  1.00  0.00     0.027 A 
HETATM   35  C   UNL     1      19.350  52.079  48.474  1.00  0.00     0.037 A 
ENDBRANCH   6  31
TORSDOF 5
ENDMDL
MODEL 6
REMARK VINA RESULT:      -9.0      2.073      3.160
REMARK  5 active torsions:
REMARK  status: ('A' for Active; 'I' for Inactive)
REMARK    1  A    between atoms: C_3  and  N_4 
REMARK       I    between atoms: N_4  and  C_5 
REMARK    2  A    between atoms: C_9  and  N_10 
REMARK       I    between atoms: N_10  and  C_11 
REMARK    3  A    between atoms: C_11  and  C_12 
REMARK    4  A    between atoms: C_17  and  C_18 
REMARK    5  A    between atoms: C_24  and  C_25 
ROOT
HETATM    1  C   UNL     1      25.154  46.142  50.616  1.00  0.00     0.148 C 
HETATM    2  N   UNL     1      26.058  45.277  50.094  1.00  0.00    -0.165 NA
HETATM    3  N   UNL     1      26.518  44.629  51.179  1.00  0.00    -0.240 N 
HETATM    4  C   UNL     1      26.069  45.134  52.365  1.00  0.00     0.123 C 
HETATM    5  N   UNL     1      26.574  44.707  53.538  1.00  0.00    -0.364 N 
HETATM    6  C   UNL     1      27.806  43.912  53.632  1.00  0.00     0.143 C 
HETATM    7  C   UNL     1      28.513  43.790  52.261  1.00  0.00     0.068 C 
HETATM    8  C   UNL     1      27.529  43.594  51.102  1.00  0.00     0.221 C 
HETATM    9  C   UNL     1      25.111  46.054  52.036  1.00  0.00     0.089 C 
HETATM   10  H   UNL     1      26.222  45.059  54.426  1.00  0.00     0.162 HD
ENDROOT
BRANCH   1  11
HETATM   11  C   UNL     1      24.387  47.076  49.772  1.00  0.00     0.276 C 
HETATM   12  N   UNL     1      23.099  46.627  49.550  1.00  0.00    -0.322 N 
HETATM   13  H   UNL     1      22.896  45.743  50.011  1.00  0.00     0.169 HD
HETATM   14  O   UNL     1      24.898  48.092  49.316  1.00  0.00    -0.266 OA
BRANCH  12  15
HETATM   15  C   UNL     1      22.106  47.193  48.734  1.00  0.00     0.037 A 
HETATM   16  C   UNL     1      21.457  48.396  49.017  1.00  0.00     0.059 A 
HETATM   17  C   UNL     1      20.488  48.946  48.150  1.00  0.00     0.042 A 
HETATM   18  C   UNL     1      20.118  48.227  47.001  1.00  0.00    -0.035 A 
HETATM   19  C   UNL     1      19.015  48.618  46.058  1.00  0.00     0.050 C 
HETATM   20  C   UNL     1      20.792  47.024  46.714  1.00  0.00     0.011 A 
HETATM   21  C   UNL     1      21.768  46.510  47.569  1.00  0.00     0.030 A 
BRANCH  17  22
HETATM   22  N   UNL     1      19.945  50.178  48.587  1.00  0.00    -0.327 N 
HETATM   23  C   UNL     1      19.066  50.411  49.626  1.00  0.00     0.218 C 
HETATM   24  C   UNL     1      18.805  51.882  49.841  1.00  0.00     0.117 C 
HETATM   25  O   UNL     1      18.512  49.576  50.330  1.00  0.00    -0.274 OA
HETATM   26  H   UNL     1      20.026  50.936  47.920  1.00  0.00     0.169 HD
ENDBRANCH  17  22
ENDBRANCH  12  15
ENDBRANCH   1  11
BRANCH   8  27
HETATM   27  C   UNL     1      26.876  42.230  51.108  1.00  0.00     0.409 C 
HETATM   28  F   UNL     1      27.375  41.428  52.075  1.00  0.00    -0.169 F 
HETATM   29  F   UNL     1      25.548  42.360  51.363  1.00  0.00    -0.169 F 
HETATM   30  F   UNL     1      26.980  41.573  49.935  1.00  0.00    -0.169 F 
ENDBRANCH   8  27
BRANCH   6  31
HETATM   31  C   UNL     1      28.777  44.476  54.625  1.00  0.00     0.075 A 
HETATM   32  O   UNL     1      29.824  43.681  54.985  1.00  0.00    -0.325 OA
HETATM   33  C   UNL     1      30.576  44.392  55.865  1.00  0.00     0.142 A 
HETATM   34  C   UNL     1      30.030  45.637  56.072  1.00  0.00     0.027 A 
HETATM   35  C   UNL     1      28.866  45.694  55.271  1.00  0.00     0.037 A 
ENDBRANCH   6  31
TORSDOF 5
ENDMDL
MODEL 7
REMARK VINA RESULT:      -8.9     12.306     15.598
REMARK  5 active torsions:
REMARK  status: ('A' for Active; 'I' for Inactive)
REMARK    1  A    between atoms: C_3  and  N_4 
REMARK       I    between atoms: N_4  and  C_5 
REMARK    2  A    between atoms: C_9  and  N_10 
REMARK       I    between atoms: N_10  and  C_11 
REMARK    3  A    between atoms: C_11  and  C_12 
REMARK    4  A    between atoms: C_17  and  C_18 
REMARK    5  A    between atoms: C_24  and  C_25 
ROOT
HETATM    1  C   UNL     1      33.056  50.756  42.100  1.00  0.00     0.148 C 
HETATM    2  N   UNL     1      32.443  51.476  41.129  1.00  0.00    -0.165 NA
HETATM    3  N   UNL     1      31.158  51.097  41.238  1.00  0.00    -0.240 N 
HETATM    4  C   UNL     1      30.948  50.075  42.118  1.00  0.00     0.123 C 
HETATM    5  N   UNL     1      29.748  49.470  42.207  1.00  0.00    -0.364 N 
HETATM    6  C   UNL     1      28.689  49.650  41.204  1.00  0.00     0.143 C 
HETATM    7  C   UNL     1      29.189  50.459  39.984  1.00  0.00     0.068 C 
HETATM    8  C   UNL     1      30.113  51.616  40.378  1.00  0.00     0.221 C 
HETATM    9  C   UNL     1      32.140  49.891  42.762  1.00  0.00     0.089 C 
HETATM   10  H   UNL     1      29.578  48.727  42.882  1.00  0.00     0.162 HD
ENDROOT
BRANCH   1  11
HETATM   11  C   UNL     1      34.506  50.853  42.348  1.00  0.00     0.276 C 
HETATM   12  N   UNL     1      34.844  52.048  42.955  1.00  0.00    -0.322 N 
HETATM   13  H   UNL     1      34.042  52.648  43.135  1.00  0.00     0.169 HD
HETATM   14  O   UNL     1      35.276  49.965  41.998  1.00  0.00    -0.266 OA
BRANCH  12  15
HETATM   15  C   UNL     1      36.123  52.538  43.268  1.00  0.00     0.037 A 
HETATM   16  C   UNL     1      36.618  52.647  44.568  1.00  0.00     0.059 A 
HETATM   17  C   UNL     1      37.924  53.114  44.834  1.00  0.00     0.042 A 
HETATM   18  C   UNL     1      38.724  53.543  43.762  1.00  0.00    -0.035 A 
HETATM   19  C   UNL     1      40.077  54.182  43.899  1.00  0.00     0.050 C 
HETATM   20  C   UNL     1      38.223  53.410  42.452  1.00  0.00     0.011 A 
HETATM   21  C   UNL     1      36.939  52.920  42.207  1.00  0.00     0.030 A 
BRANCH  17  22
HETATM   22  N   UNL     1      38.264  53.145  46.207  1.00  0.00    -0.327 N 
HETATM   23  C   UNL     1      38.278  54.226  47.066  1.00  0.00     0.218 C 
HETATM   24  C   UNL     1      38.598  53.829  48.487  1.00  0.00     0.117 C 
HETATM   25  O   UNL     1      38.075  55.401  46.784  1.00  0.00    -0.274 OA
HETATM   26  H   UNL     1      38.776  52.335  46.536  1.00  0.00     0.169 HD
ENDBRANCH  17  22
ENDBRANCH  12  15
ENDBRANCH   1  11
BRANCH   8  27
HETATM   27  C   UNL     1      29.382  52.743  41.072  1.00  0.00     0.409 C 
HETATM   28  F   UNL     1      29.541  52.707  42.414  1.00  0.00    -0.169 F 
HETATM   29  F   UNL     1      29.882  53.936  40.657  1.00  0.00    -0.169 F 
HETATM   30  F   UNL     1      28.058  52.771  40.817  1.00  0.00    -0.169 F 
ENDBRANCH   8  27
BRANCH   6  31
HETATM   31  C   UNL     1      28.131  48.345  40.721  1.00  0.00     0.075 A 
HETATM   32  O   UNL     1      28.964  47.266  40.760  1.00  0.00    -0.325 OA
HETATM   33  C   UNL     1      28.253  46.202  40.302  1.00  0.00     0.142 A 
HETATM   34  C   UNL     1      26.972  46.581  39.975  1.00  0.00     0.027 A 
HETATM   35  C   UNL     1      26.891  47.967  40.244  1.00  0.00     0.037 A 
ENDBRANCH   6  31
TORSDOF 5
ENDMDL
MODEL 8
REMARK VINA RESULT:      -8.6      5.896     12.662
REMARK  5 active torsions:
REMARK  status: ('A' for Active; 'I' for Inactive)
REMARK    1  A    between atoms: C_3  and  N_4 
REMARK       I    between atoms: N_4  and  C_5 
REMARK    2  A    between atoms: C_9  and  N_10 
REMARK       I    between atoms: N_10  and  C_11 
REMARK    3  A    between atoms: C_11  and  C_12 
REMARK    4  A    between atoms: C_17  and  C_18 
REMARK    5  A    between atoms: C_24  and  C_25 
ROOT
HETATM    1  C   UNL     1      20.022  48.557  47.700  1.00  0.00     0.148 C 
HETATM    2  N   UNL     1      19.641  49.847  47.536  1.00  0.00    -0.165 NA
HETATM    3  N   UNL     1      18.300  49.778  47.608  1.00  0.00    -0.240 N 
HETATM    4  C   UNL     1      17.807  48.506  47.660  1.00  0.00     0.123 C 
HETATM    5  N   UNL     1      16.485  48.269  47.559  1.00  0.00    -0.364 N 
HETATM    6  C   UNL     1      15.526  49.286  47.108  1.00  0.00     0.143 C 
HETATM    7  C   UNL     1      16.240  50.565  46.613  1.00  0.00     0.068 C 
HETATM    8  C   UNL     1      17.448  50.942  47.478  1.00  0.00     0.221 C 
HETATM    9  C   UNL     1      18.896  47.693  47.815  1.00  0.00     0.089 C 
HETATM   10  H   UNL     1      16.110  47.324  47.626  1.00  0.00     0.162 HD
ENDROOT
BRANCH   1  11
HETATM   11  C   UNL     1      21.440  48.152  47.690  1.00  0.00     0.276 C 
HETATM   12  N   UNL     1      22.200  48.925  48.547  1.00  0.00    -0.322 N 
HETATM   13  H   UNL     1      21.657  49.628  49.044  1.00  0.00     0.169 HD
HETATM   14  O   UNL     1      21.843  47.258  46.955  1.00  0.00    -0.266 OA
BRANCH  12  15
HETATM   15  C   UNL     1      23.590  48.899  48.744  1.00  0.00     0.037 A 
HETATM   16  C   UNL     1      24.241  47.993  49.583  1.00  0.00     0.059 A 
HETATM   17  C   UNL     1      25.646  47.981  49.726  1.00  0.00     0.042 A 
HETATM   18  C   UNL     1      26.405  48.953  49.054  1.00  0.00    -0.035 A 
HETATM   19  C   UNL     1      27.887  49.148  49.209  1.00  0.00     0.050 C 
HETATM   20  C   UNL     1      25.742  49.851  48.194  1.00  0.00     0.011 A 
HETATM   21  C   UNL     1      24.354  49.828  48.044  1.00  0.00     0.030 A 
BRANCH  17  22
HETATM   22  N   UNL     1      26.135  46.986  50.605  1.00  0.00    -0.327 N 
HETATM   23  C   UNL     1      25.936  46.866  51.966  1.00  0.00     0.218 C 
HETATM   24  C   UNL     1      26.541  45.603  52.528  1.00  0.00     0.117 C 
HETATM   25  O   UNL     1      25.357  47.655  52.703  1.00  0.00    -0.274 OA
HETATM   26  H   UNL     1      26.904  46.437  50.238  1.00  0.00     0.169 HD
ENDBRANCH  17  22
ENDBRANCH  12  15
ENDBRANCH   1  11
BRANCH   8  27
HETATM   27  C   UNL     1      17.055  51.455  48.845  1.00  0.00     0.409 C 
HETATM   28  F   UNL     1      15.722  51.643  48.958  1.00  0.00    -0.169 F 
HETATM   29  F   UNL     1      17.397  50.541  49.791  1.00  0.00    -0.169 F 
HETATM   30  F   UNL     1      17.663  52.609  49.188  1.00  0.00    -0.169 F 
ENDBRANCH   8  27
BRANCH   6  31
HETATM   31  C   UNL     1      14.629  48.782  46.018  1.00  0.00     0.075 A 
HETATM   32  O   UNL     1      14.933  47.566  45.480  1.00  0.00    -0.325 OA
HETATM   33  C   UNL     1      13.989  47.303  44.539  1.00  0.00     0.142 A 
HETATM   34  C   UNL     1      13.079  48.330  44.466  1.00  0.00     0.027 A 
HETATM   35  C   UNL     1      13.490  49.289  45.422  1.00  0.00     0.037 A 
ENDBRANCH   6  31
TORSDOF 5
ENDMDL
MODEL 9
REMARK VINA RESULT:      -8.6      4.767     11.138
REMARK  5 active torsions:
REMARK  status: ('A' for Active; 'I' for Inactive)
REMARK    1  A    between atoms: C_3  and  N_4 
REMARK       I    between atoms: N_4  and  C_5 
REMARK    2  A    between atoms: C_9  and  N_10 
REMARK       I    between atoms: N_10  and  C_11 
REMARK    3  A    between atoms: C_11  and  C_12 
REMARK    4  A    between atoms: C_17  and  C_18 
REMARK    5  A    between atoms: C_24  and  C_25 
ROOT
HETATM    1  C   UNL     1      23.301  48.097  49.425  1.00  0.00     0.148 C 
HETATM    2  N   UNL     1      23.083  49.432  49.524  1.00  0.00    -0.165 NA
HETATM    3  N   UNL     1      21.810  49.561  49.113  1.00  0.00    -0.240 N 
HETATM    4  C   UNL     1      21.260  48.412  48.624  1.00  0.00     0.123 C 
HETATM    5  N   UNL     1      20.057  48.421  48.016  1.00  0.00    -0.364 N 
HETATM    6  C   UNL     1      19.394  49.657  47.582  1.00  0.00     0.143 C 
HETATM    7  C   UNL     1      20.314  50.889  47.752  1.00  0.00     0.068 C 
HETATM    8  C   UNL     1      21.136  50.842  49.045  1.00  0.00     0.221 C 
HETATM    9  C   UNL     1      22.165  47.423  48.896  1.00  0.00     0.089 C 
HETATM   10  H   UNL     1      19.630  47.561  47.676  1.00  0.00     0.162 HD
ENDROOT
BRANCH   1  11
HETATM   11  C   UNL     1      24.596  47.488  49.779  1.00  0.00     0.276 C 
HETATM   12  N   UNL     1      24.438  46.385  50.597  1.00  0.00    -0.322 N 
HETATM   13  H   UNL     1      23.464  46.175  50.805  1.00  0.00     0.169 HD
HETATM   14  O   UNL     1      25.656  47.972  49.398  1.00  0.00    -0.266 OA
BRANCH  12  15
HETATM   15  C   UNL     1      25.431  45.600  51.206  1.00  0.00     0.037 A 
HETATM   16  C   UNL     1      26.055  44.516  50.588  1.00  0.00     0.059 A 
HETATM   17  C   UNL     1      27.073  43.775  51.226  1.00  0.00     0.042 A 
HETATM   18  C   UNL     1      27.422  44.098  52.548  1.00  0.00    -0.035 A 
HETATM   19  C   UNL     1      28.389  43.323  53.398  1.00  0.00     0.050 C 
HETATM   20  C   UNL     1      26.801  45.207  53.157  1.00  0.00     0.011 A 
HETATM   21  C   UNL     1      25.816  45.945  52.499  1.00  0.00     0.030 A 
BRANCH  17  22
HETATM   22  N   UNL     1      27.604  42.720  50.447  1.00  0.00    -0.327 N 
HETATM   23  C   UNL     1      27.253  41.385  50.453  1.00  0.00     0.218 C 
HETATM   24  C   UNL     1      27.982  40.592  49.395  1.00  0.00     0.117 C 
HETATM   25  O   UNL     1      26.460  40.829  51.203  1.00  0.00    -0.274 OA
HETATM   26  H   UNL     1      28.495  42.923  50.009  1.00  0.00     0.169 HD
ENDBRANCH  17  22
ENDBRANCH  12  15
ENDBRANCH   1  11
BRANCH   8  27
HETATM   27  C   UNL     1      20.296  51.054  50.284  1.00  0.00     0.409 C 
HETATM   28  F   UNL     1      19.687  49.917  50.690  1.00  0.00    -0.169 F 
HETATM   29  F   UNL     1      21.090  51.452  51.312  1.00  0.00    -0.169 F 
HETATM   30  F   UNL     1      19.346  52.001  50.142  1.00  0.00    -0.169 F 
ENDBRANCH   8  27
BRANCH   6  31
HETATM   31  C   UNL     1      18.936  49.590  46.156  1.00  0.00     0.075 A 
HETATM   32  O   UNL     1      18.870  48.353  45.586  1.00  0.00    -0.325 OA
HETATM   33  C   UNL     1      18.419  48.527  44.317  1.00  0.00     0.142 A 
HETATM   34  C   UNL     1      18.188  49.858  44.063  1.00  0.00     0.027 A 
HETATM   35  C   UNL     1      18.522  50.549  45.252  1.00  0.00     0.037 A 
ENDBRANCH   6  31
TORSDOF 5
ENDMDL
MODEL 10
REMARK VINA RESULT:      -8.6      3.743      6.310
REMARK  5 active torsions:
REMARK  status: ('A' for Active; 'I' for Inactive)
REMARK    1  A    between atoms: C_3  and  N_4 
REMARK       I    between atoms: N_4  and  C_5 
REMARK    2  A    between atoms: C_9  and  N_10 
REMARK       I    between atoms: N_10  and  C_11 
REMARK    3  A    between atoms: C_11  and  C_12 
REMARK    4  A    between atoms: C_17  and  C_18 
REMARK    5  A    between atoms: C_24  and  C_25 
ROOT
HETATM    1  C   UNL     1      22.955  47.918  49.052  1.00  0.00     0.148 C 
HETATM    2  N   UNL     1      23.966  48.705  49.493  1.00  0.00    -0.165 NA
HETATM    3  N   UNL     1      24.914  47.816  49.836  1.00  0.00    -0.240 N 
HETATM    4  C   UNL     1      24.508  46.514  49.776  1.00  0.00     0.123 C 
HETATM    5  N   UNL     1      25.284  45.522  50.254  1.00  0.00    -0.364 N 
HETATM    6  C   UNL     1      26.452  45.766  51.111  1.00  0.00     0.143 C 
HETATM    7  C   UNL     1      26.558  47.254  51.520  1.00  0.00     0.068 C 
HETATM    8  C   UNL     1      26.199  48.211  50.378  1.00  0.00     0.221 C 
HETATM    9  C   UNL     1      23.276  46.537  49.184  1.00  0.00     0.089 C 
HETATM   10  H   UNL     1      24.998  44.546  50.185  1.00  0.00     0.162 HD
ENDROOT
BRANCH   1  11
HETATM   11  C   UNL     1      21.682  48.480  48.565  1.00  0.00     0.276 C 
HETATM   12  N   UNL     1      21.123  49.353  49.480  1.00  0.00    -0.322 N 
HETATM   13  H   UNL     1      21.685  49.468  50.320  1.00  0.00     0.169 HD
HETATM   14  O   UNL     1      21.204  48.142  47.488  1.00  0.00    -0.266 OA
BRANCH  12  15
HETATM   15  C   UNL     1      19.885  50.012  49.413  1.00  0.00     0.037 A 
HETATM   16  C   UNL     1      18.732  49.449  48.864  1.00  0.00     0.059 A 
HETATM   17  C   UNL     1      17.498  50.136  48.848  1.00  0.00     0.042 A 
HETATM   18  C   UNL     1      17.446  51.451  49.340  1.00  0.00    -0.035 A 
HETATM   19  C   UNL     1      16.244  52.350  49.271  1.00  0.00     0.050 C 
HETATM   20  C   UNL     1      18.610  52.003  49.910  1.00  0.00     0.011 A 
HETATM   21  C   UNL     1      19.814  51.297  49.942  1.00  0.00     0.030 A 
BRANCH  17  22
HETATM   22  N   UNL     1      16.432  49.409  48.266  1.00  0.00    -0.327 N 
HETATM   23  C   UNL     1      16.025  49.386  46.947  1.00  0.00     0.218 C 
HETATM   24  C   UNL     1      14.909  48.399  46.706  1.00  0.00     0.117 C 
HETATM   25  O   UNL     1      16.461  50.063  46.024  1.00  0.00    -0.274 OA
HETATM   26  H   UNL     1      15.753  49.052  48.927  1.00  0.00     0.169 HD
ENDBRANCH  17  22
ENDBRANCH  12  15
ENDBRANCH   1  11
BRANCH   8  27
HETATM   27  C   UNL     1      27.239  48.235  49.281  1.00  0.00     0.409 C 
HETATM   28  F   UNL     1      26.772  48.798  48.145  1.00  0.00    -0.169 F 
HETATM   29  F   UNL     1      28.301  48.987  49.675  1.00  0.00    -0.169 F 
HETATM   30  F   UNL     1      27.726  47.017  48.967  1.00  0.00    -0.169 F 
ENDBRANCH   8  27
BRANCH   6  31
HETATM   31  C   UNL     1      26.436  44.925  52.352  1.00  0.00     0.075 A 
HETATM   32  O   UNL     1      25.355  45.055  53.172  1.00  0.00    -0.325 OA
HETATM   33  C   UNL     1      25.540  44.197  54.209  1.00  0.00     0.142 A 
HETATM   34  C   UNL     1      26.723  43.512  54.065  1.00  0.00     0.027 A 
HETATM   35  C   UNL     1      27.306  43.982  52.864  1.00  0.00     0.037 A 
ENDBRANCH   6  31
TORSDOF 5
ENDMDL
