MODEL 1
REMARK VINA RESULT:      -8.2      0.000      0.000
REMARK  6 active torsions:
REMARK  status: ('A' for Active; 'I' for Inactive)
REMARK    1  A    between atoms: C_2  and  O_3 
REMARK    2  A    between atoms: O_3  and  C_4 
REMARK    3  A    between atoms: C_4  and  C_5 
REMARK    4  A    between atoms: C_6  and  O_7 
REMARK    5  A    between atoms: C_12  and  O_13 
REMARK    6  A    between atoms: C_17  and  C_18 
ROOT
HETATM    1  C   UNL     1      26.171  44.605  51.352  1.00  0.00     0.133 C 
HETATM    2  C   UNL     1      25.083  43.495  51.533  1.00  0.00     0.073 C 
HETATM    3  C   UNL     1      23.784  43.805  50.773  1.00  0.00     0.047 C 
HETATM    4  C   UNL     1      25.567  42.058  51.183  1.00  0.00     0.097 C 
HETATM    5  C   UNL     1      26.957  41.860  51.663  1.00  0.00     0.042 A 
HETATM    6  C   UNL     1      27.868  42.834  52.013  1.00  0.00     0.030 A 
HETATM    7  C   UNL     1      29.003  42.094  52.382  1.00  0.00     0.190 A 
HETATM    8  N   UNL     1      28.843  40.781  52.272  1.00  0.00    -0.149 NA
HETATM    9  N   UNL     1      27.574  40.657  51.847  1.00  0.00    -0.279 N 
HETATM   10  H   UNL     1      27.204  39.723  51.705  1.00  0.00     0.189 HD
HETATM   11  C   UNL     1      27.583  44.293  51.926  1.00  0.00     0.074 C 
ENDROOT
BRANCH  11  12
HETATM   12  C   UNL     1      27.813  44.901  53.305  1.00  0.00    -0.048 A 
HETATM   13  C   UNL     1      26.988  45.970  53.712  1.00  0.00     0.011 A 
HETATM   14  C   UNL     1      27.132  46.546  54.975  1.00  0.00     0.043 A 
HETATM   15  C   UNL     1      28.095  46.054  55.846  1.00  0.00     0.116 A 
HETATM   16  F   UNL     1      28.229  46.605  57.059  1.00  0.00    -0.206 F 
HETATM   17  C   UNL     1      28.914  44.996  55.477  1.00  0.00     0.043 A 
HETATM   18  C   UNL     1      28.772  44.419  54.213  1.00  0.00     0.011 A 
ENDBRANCH  11  12
BRANCH   1  19
HETATM   19  C   UNL     1      26.376  45.059  49.922  1.00  0.00     0.267 C 
HETATM   20  O   UNL     1      27.248  44.587  49.202  1.00  0.00    -0.265 OA
BRANCH  19  21
HETATM   21  O   UNL     1      25.457  45.971  49.522  1.00  0.00    -0.316 OA
BRANCH  21  22
HETATM   22  C   UNL     1      25.373  47.184  50.298  1.00  0.00     0.123 C 
HETATM   23  C   UNL     1      24.095  47.940  49.950  1.00  0.00     0.040 C 
HETATM   24  C   UNL     1      26.599  48.019  49.949  1.00  0.00     0.040 C 
ENDBRANCH  21  22
ENDBRANCH  19  21
ENDBRANCH   1  19
BRANCH   2  25
HETATM   25  O   UNL     1      24.694  43.467  52.927  1.00  0.00    -0.389 OA
HETATM   26  H   UNL     1      23.949  42.849  53.032  1.00  0.00     0.210 HD
ENDBRANCH   2  25
BRANCH   7  27
HETATM   27  O   UNL     1      30.186  42.516  52.832  1.00  0.00    -0.343 OA
HETATM   28  H   UNL     1      30.730  42.805  52.086  1.00  0.00     0.219 HD
ENDBRANCH   7  27
TORSDOF 6
ENDMDL
MODEL 2
REMARK VINA RESULT:      -8.0      2.866      5.572
REMARK  6 active torsions:
REMARK  status: ('A' for Active; 'I' for Inactive)
REMARK    1  A    between atoms: C_2  and  O_3 
REMARK    2  A    between atoms: O_3  and  C_4 
REMARK    3  A    between atoms: C_4  and  C_5 
REMARK    4  A    between atoms: C_6  and  O_7 
REMARK    5  A    between atoms: C_12  and  O_13 
REMARK    6  A    between atoms: C_17  and  C_18 
ROOT
HETATM    1  C   UNL     1      26.066  45.185  52.327  1.00  0.00     0.133 C 
HETATM    2  C   UNL     1      26.925  44.014  51.745  1.00  0.00     0.073 C 
HETATM    3  C   UNL     1      28.004  43.523  52.724  1.00  0.00     0.047 C 
HETATM    4  C   UNL     1      26.096  42.804  51.228  1.00  0.00     0.097 C 
HETATM    5  C   UNL     1      24.877  43.285  50.530  1.00  0.00     0.042 A 
HETATM    6  C   UNL     1      24.302  44.535  50.619  1.00  0.00     0.030 A 
HETATM    7  C   UNL     1      23.189  44.437  49.769  1.00  0.00     0.190 A 
HETATM    8  N   UNL     1      23.055  43.245  49.200  1.00  0.00    -0.149 NA
HETATM    9  N   UNL     1      24.112  42.558  49.665  1.00  0.00    -0.279 N 
HETATM   10  H   UNL     1      24.241  41.602  49.350  1.00  0.00     0.189 HD
HETATM   11  C   UNL     1      24.830  45.622  51.489  1.00  0.00     0.074 C 
ENDROOT
BRANCH  11  12
HETATM   12  C   UNL     1      25.106  46.838  50.612  1.00  0.00    -0.048 A 
HETATM   13  C   UNL     1      26.447  47.197  50.367  1.00  0.00     0.011 A 
HETATM   14  C   UNL     1      26.760  48.283  49.548  1.00  0.00     0.043 A 
HETATM   15  C   UNL     1      25.737  49.012  48.957  1.00  0.00     0.116 A 
HETATM   16  F   UNL     1      26.039  50.050  48.167  1.00  0.00    -0.206 F 
HETATM   17  C   UNL     1      24.408  48.675  49.171  1.00  0.00     0.043 A 
HETATM   18  C   UNL     1      24.093  47.590  49.992  1.00  0.00     0.011 A 
ENDBRANCH  11  12
BRANCH   1  19
HETATM   19  C   UNL     1      25.572  44.962  53.742  1.00  0.00     0.267 C 
HETATM   20  O   UNL     1      24.638  44.213  54.000  1.00  0.00    -0.265 OA
BRANCH  19  21
HETATM   21  O   UNL     1      26.317  45.613  54.669  1.00  0.00    -0.316 OA
BRANCH  21  22
HETATM   22  C   UNL     1      26.969  46.824  54.234  1.00  0.00     0.123 C 
HETATM   23  C   UNL     1      28.310  46.978  54.944  1.00  0.00     0.040 C 
HETATM   24  C   UNL     1      26.041  47.979  54.590  1.00  0.00     0.040 C 
ENDBRANCH  21  22
ENDBRANCH  19  21
ENDBRANCH   1  19
BRANCH   2  25
HETATM   25  O   UNL     1      27.665  44.519  50.608  1.00  0.00    -0.389 OA
HETATM   26  H   UNL     1      28.441  45.011  50.933  1.00  0.00     0.210 HD
ENDBRANCH   2  25
BRANCH   7  27
HETATM   27  O   UNL     1      22.278  45.357  49.447  1.00  0.00    -0.343 OA
HETATM   28  H   UNL     1      21.598  45.391  50.136  1.00  0.00     0.219 HD
ENDBRANCH   7  27
TORSDOF 6
ENDMDL
MODEL 3
REMARK VINA RESULT:      -7.8     12.730     14.921
REMARK  6 active torsions:
REMARK  status: ('A' for Active; 'I' for Inactive)
REMARK    1  A    between atoms: C_2  and  O_3 
REMARK    2  A    between atoms: O_3  and  C_4 
REMARK    3  A    between atoms: C_4  and  C_5 
REMARK    4  A    between atoms: C_6  and  O_7 
REMARK    5  A    between atoms: C_12  and  O_13 
REMARK    6  A    between atoms: C_17  and  C_18 
ROOT
HETATM    1  C   UNL     1      32.146  50.902  41.000  1.00  0.00     0.133 C 
HETATM    2  C   UNL     1      32.011  51.240  42.522  1.00  0.00     0.073 C 
HETATM    3  C   UNL     1      33.366  51.508  43.195  1.00  0.00     0.047 C 
HETATM    4  C   UNL     1      31.029  52.405  42.837  1.00  0.00     0.097 C 
HETATM    5  C   UNL     1      29.835  52.312  41.959  1.00  0.00     0.042 A 
HETATM    6  C   UNL     1      29.712  51.597  40.787  1.00  0.00     0.030 A 
HETATM    7  C   UNL     1      28.396  51.869  40.382  1.00  0.00     0.190 A 
HETATM    8  N   UNL     1      27.742  52.682  41.202  1.00  0.00    -0.149 NA
HETATM    9  N   UNL     1      28.636  52.928  42.175  1.00  0.00    -0.279 N 
HETATM   10  H   UNL     1      28.356  53.525  42.947  1.00  0.00     0.189 HD
HETATM   11  C   UNL     1      30.821  50.801  40.191  1.00  0.00     0.074 C 
ENDROOT
BRANCH  11  12
HETATM   12  C   UNL     1      30.334  49.366  40.022  1.00  0.00    -0.048 A 
HETATM   13  C   UNL     1      30.806  48.624  38.921  1.00  0.00     0.011 A 
HETATM   14  C   UNL     1      30.418  47.296  38.733  1.00  0.00     0.043 A 
HETATM   15  C   UNL     1      29.563  46.697  39.648  1.00  0.00     0.116 A 
HETATM   16  F   UNL     1      29.195  45.422  39.468  1.00  0.00    -0.206 F 
HETATM   17  C   UNL     1      29.091  47.400  40.747  1.00  0.00     0.043 A 
HETATM   18  C   UNL     1      29.477  48.729  40.936  1.00  0.00     0.011 A 
ENDBRANCH  11  12
BRANCH   1  19
HETATM   19  C   UNL     1      33.055  51.833  40.226  1.00  0.00     0.267 C 
HETATM   20  O   UNL     1      32.852  53.039  40.154  1.00  0.00    -0.265 OA
BRANCH  19  21
HETATM   21  O   UNL     1      34.133  51.201  39.700  1.00  0.00    -0.316 OA
BRANCH  21  22
HETATM   22  C   UNL     1      35.425  51.617  40.190  1.00  0.00     0.123 C 
HETATM   23  C   UNL     1      36.283  52.123  39.035  1.00  0.00     0.040 C 
HETATM   24  C   UNL     1      36.068  50.398  40.839  1.00  0.00     0.040 C 
ENDBRANCH  21  22
ENDBRANCH  19  21
ENDBRANCH   1  19
BRANCH   2  25
HETATM   25  O   UNL     1      31.491  50.071  43.199  1.00  0.00    -0.389 OA
HETATM   26  H   UNL     1      30.782  49.683  42.655  1.00  0.00     0.210 HD
ENDBRANCH   2  25
BRANCH   7  27
HETATM   27  O   UNL     1      27.721  51.421  39.322  1.00  0.00    -0.343 OA
HETATM   28  H   UNL     1      27.810  52.053  38.593  1.00  0.00     0.219 HD
ENDBRANCH   7  27
TORSDOF 6
ENDMDL
MODEL 4
REMARK VINA RESULT:      -7.8      6.923      8.954
REMARK  6 active torsions:
REMARK  status: ('A' for Active; 'I' for Inactive)
REMARK    1  A    between atoms: C_2  and  O_3 
REMARK    2  A    between atoms: O_3  and  C_4 
REMARK    3  A    between atoms: C_4  and  C_5 
REMARK    4  A    between atoms: C_6  and  O_7 
REMARK    5  A    between atoms: C_12  and  O_13 
REMARK    6  A    between atoms: C_17  and  C_18 
ROOT
HETATM    1  C   UNL     1      20.429  47.166  47.419  1.00  0.00     0.133 C 
HETATM    2  C   UNL     1      20.438  45.945  48.397  1.00  0.00     0.073 C 
HETATM    3  C   UNL     1      19.680  44.730  47.839  1.00  0.00     0.047 C 
HETATM    4  C   UNL     1      21.855  45.509  48.867  1.00  0.00     0.097 C 
HETATM    5  C   UNL     1      22.695  46.706  49.122  1.00  0.00     0.042 A 
HETATM    6  C   UNL     1      22.476  47.992  48.675  1.00  0.00     0.030 A 
HETATM    7  C   UNL     1      23.567  48.704  49.200  1.00  0.00     0.190 A 
HETATM    8  N   UNL     1      24.407  47.953  49.903  1.00  0.00    -0.149 NA
HETATM    9  N   UNL     1      23.844  46.733  49.859  1.00  0.00    -0.279 N 
HETATM   10  H   UNL     1      24.302  45.974  50.352  1.00  0.00     0.189 HD
HETATM   11  C   UNL     1      21.327  48.376  47.810  1.00  0.00     0.074 C 
ENDROOT
BRANCH  11  12
HETATM   12  C   UNL     1      20.556  49.487  48.514  1.00  0.00    -0.048 A 
HETATM   13  C   UNL     1      20.501  50.755  47.902  1.00  0.00     0.011 A 
HETATM   14  C   UNL     1      19.786  51.802  48.486  1.00  0.00     0.043 A 
HETATM   15  C   UNL     1      19.111  51.587  49.680  1.00  0.00     0.116 A 
HETATM   16  F   UNL     1      18.421  52.591  50.236  1.00  0.00    -0.206 F 
HETATM   17  C   UNL     1      19.138  50.346  50.299  1.00  0.00     0.043 A 
HETATM   18  C   UNL     1      19.855  49.298  49.718  1.00  0.00     0.011 A 
ENDBRANCH  11  12
BRANCH   1  19
HETATM   19  C   UNL     1      20.764  46.826  45.982  1.00  0.00     0.267 C 
HETATM   20  O   UNL     1      21.845  46.352  45.655  1.00  0.00    -0.265 OA
BRANCH  19  21
HETATM   21  O   UNL     1      19.725  47.032  45.135  1.00  0.00    -0.316 OA
BRANCH  21  22
HETATM   22  C   UNL     1      18.542  47.629  45.703  1.00  0.00     0.123 C 
HETATM   23  C   UNL     1      17.326  46.753  45.417  1.00  0.00     0.040 C 
HETATM   24  C   UNL     1      18.379  48.997  45.053  1.00  0.00     0.040 C 
ENDBRANCH  21  22
ENDBRANCH  19  21
ENDBRANCH   1  19
BRANCH   2  25
HETATM   25  O   UNL     1      19.707  46.317  49.590  1.00  0.00    -0.389 OA
HETATM   26  H   UNL     1      20.230  46.061  50.370  1.00  0.00     0.210 HD
ENDBRANCH   2  25
BRANCH   7  27
HETATM   27  O   UNL     1      23.861  50.001  49.107  1.00  0.00    -0.343 OA
HETATM   28  H   UNL     1      23.917  50.383  49.996  1.00  0.00     0.219 HD
ENDBRANCH   7  27
TORSDOF 6
ENDMDL
MODEL 5
REMARK VINA RESULT:      -7.8      3.529      6.065
REMARK  6 active torsions:
REMARK  status: ('A' for Active; 'I' for Inactive)
REMARK    1  A    between atoms: C_2  and  O_3 
REMARK    2  A    between atoms: O_3  and  C_4 
REMARK    3  A    between atoms: C_4  and  C_5 
REMARK    4  A    between atoms: C_6  and  O_7 
REMARK    5  A    between atoms: C_12  and  O_13 
REMARK    6  A    between atoms: C_17  and  C_18 
ROOT
HETATM    1  C   UNL     1      26.948  43.951  53.234  1.00  0.00     0.133 C 
HETATM    2  C   UNL     1      25.473  44.309  53.614  1.00  0.00     0.073 C 
HETATM    3  C   UNL     1      25.162  44.057  55.097  1.00  0.00     0.047 C 
HETATM    4  C   UNL     1      25.042  45.753  53.225  1.00  0.00     0.097 C 
HETATM    5  C   UNL     1      25.604  46.110  51.899  1.00  0.00     0.042 A 
HETATM    6  C   UNL     1      26.647  45.496  51.240  1.00  0.00     0.030 A 
HETATM    7  C   UNL     1      26.756  46.235  50.051  1.00  0.00     0.190 A 
HETATM    8  N   UNL     1      25.881  47.229  49.959  1.00  0.00    -0.149 NA
HETATM    9  N   UNL     1      25.170  47.124  51.095  1.00  0.00    -0.279 N 
HETATM   10  H   UNL     1      24.410  47.779  51.249  1.00  0.00     0.189 HD
HETATM   11  C   UNL     1      27.413  44.349  51.803  1.00  0.00     0.074 C 
ENDROOT
BRANCH  11  12
HETATM   12  C   UNL     1      27.335  43.196  50.810  1.00  0.00    -0.048 A 
HETATM   13  C   UNL     1      28.106  42.042  51.061  1.00  0.00     0.011 A 
HETATM   14  C   UNL     1      28.052  40.943  50.202  1.00  0.00     0.043 A 
HETATM   15  C   UNL     1      27.221  40.983  49.091  1.00  0.00     0.116 A 
HETATM   16  F   UNL     1      27.167  39.927  48.271  1.00  0.00    -0.206 F 
HETATM   17  C   UNL     1      26.443  42.101  48.825  1.00  0.00     0.043 A 
HETATM   18  C   UNL     1      26.497  43.202  49.682  1.00  0.00     0.011 A 
ENDBRANCH  11  12
BRANCH   1  19
HETATM   19  C   UNL     1      27.993  44.485  54.192  1.00  0.00     0.267 C 
HETATM   20  O   UNL     1      28.084  45.675  54.468  1.00  0.00    -0.265 OA
BRANCH  19  21
HETATM   21  O   UNL     1      28.745  43.505  54.751  1.00  0.00    -0.316 OA
BRANCH  21  22
HETATM   22  C   UNL     1      30.169  43.584  54.534  1.00  0.00     0.123 C 
HETATM   23  C   UNL     1      30.584  42.614  53.433  1.00  0.00     0.040 C 
HETATM   24  C   UNL     1      30.840  43.216  55.851  1.00  0.00     0.040 C 
ENDBRANCH  21  22
ENDBRANCH  19  21
ENDBRANCH   1  19
BRANCH   2  25
HETATM   25  O   UNL     1      24.593  43.412  52.897  1.00  0.00    -0.389 OA
HETATM   26  H   UNL     1      25.128  42.712  52.482  1.00  0.00     0.210 HD
ENDBRANCH   2  25
BRANCH   7  27
HETATM   27  O   UNL     1      27.585  46.072  49.019  1.00  0.00    -0.343 OA
HETATM   28  H   UNL     1      28.188  45.337  49.203  1.00  0.00     0.219 HD
ENDBRANCH   7  27
TORSDOF 6
ENDMDL
MODEL 6
REMARK VINA RESULT:      -7.7     15.867     17.812
REMARK  6 active torsions:
REMARK  status: ('A' for Active; 'I' for Inactive)
REMARK    1  A    between atoms: C_2  and  O_3 
REMARK    2  A    between atoms: O_3  and  C_4 
REMARK    3  A    between atoms: C_4  and  C_5 
REMARK    4  A    between atoms: C_6  and  O_7 
REMARK    5  A    between atoms: C_12  and  O_13 
REMARK    6  A    between atoms: C_17  and  C_18 
ROOT
HETATM    1  C   UNL     1      39.159  44.559  64.811  1.00  0.00     0.133 C 
HETATM    2  C   UNL     1      38.582  43.940  63.496  1.00  0.00     0.073 C 
HETATM    3  C   UNL     1      39.659  43.257  62.637  1.00  0.00     0.047 C 
HETATM    4  C   UNL     1      37.389  42.965  63.713  1.00  0.00     0.097 C 
HETATM    5  C   UNL     1      36.493  43.489  64.775  1.00  0.00     0.042 A 
HETATM    6  C   UNL     1      36.789  44.447  65.720  1.00  0.00     0.030 A 
HETATM    7  C   UNL     1      35.598  44.548  66.457  1.00  0.00     0.190 A 
HETATM    8  N   UNL     1      34.639  43.733  66.037  1.00  0.00    -0.149 NA
HETATM    9  N   UNL     1      35.202  43.104  64.991  1.00  0.00    -0.279 N 
HETATM   10  H   UNL     1      34.644  42.428  64.479  1.00  0.00     0.189 HD
HETATM   11  C   UNL     1      38.121  45.104  65.835  1.00  0.00     0.074 C 
ENDROOT
BRANCH  11  12
HETATM   12  C   UNL     1      37.915  46.611  65.729  1.00  0.00    -0.048 A 
HETATM   13  C   UNL     1      38.526  47.440  66.691  1.00  0.00     0.011 A 
HETATM   14  C   UNL     1      38.397  48.828  66.627  1.00  0.00     0.043 A 
HETATM   15  C   UNL     1      37.664  49.400  65.596  1.00  0.00     0.116 A 
HETATM   16  F   UNL     1      37.545  50.732  65.533  1.00  0.00    -0.206 F 
HETATM   17  C   UNL     1      37.061  48.610  64.629  1.00  0.00     0.043 A 
HETATM   18  C   UNL     1      37.187  47.220  64.692  1.00  0.00     0.011 A 
ENDBRANCH  11  12
BRANCH   1  19
HETATM   19  C   UNL     1      40.089  43.646  65.584  1.00  0.00     0.267 C 
HETATM   20  O   UNL     1      39.713  42.587  66.072  1.00  0.00    -0.265 OA
BRANCH  19  21
HETATM   21  O   UNL     1      41.369  44.093  65.603  1.00  0.00    -0.316 OA
BRANCH  21  22
HETATM   22  C   UNL     1      41.614  45.369  64.978  1.00  0.00     0.123 C 
HETATM   23  C   UNL     1      42.677  45.224  63.894  1.00  0.00     0.040 C 
HETATM   24  C   UNL     1      42.093  46.315  66.072  1.00  0.00     0.040 C 
ENDBRANCH  21  22
ENDBRANCH  19  21
ENDBRANCH   1  19
BRANCH   2  25
HETATM   25  O   UNL     1      38.084  45.018  62.670  1.00  0.00    -0.389 OA
HETATM   26  H   UNL     1      37.223  44.756  62.296  1.00  0.00     0.210 HD
ENDBRANCH   2  25
BRANCH   7  27
HETATM   27  O   UNL     1      35.298  45.343  67.486  1.00  0.00    -0.343 OA
HETATM   28  H   UNL     1      35.397  46.268  67.219  1.00  0.00     0.219 HD
ENDBRANCH   7  27
TORSDOF 6
ENDMDL
MODEL 7
REMARK VINA RESULT:      -7.5      4.732      7.265
REMARK  6 active torsions:
REMARK  status: ('A' for Active; 'I' for Inactive)
REMARK    1  A    between atoms: C_2  and  O_3 
REMARK    2  A    between atoms: O_3  and  C_4 
REMARK    3  A    between atoms: C_4  and  C_5 
REMARK    4  A    between atoms: C_6  and  O_7 
REMARK    5  A    between atoms: C_12  and  O_13 
REMARK    6  A    between atoms: C_17  and  C_18 
ROOT
HETATM    1  C   UNL     1      24.101  46.633  50.072  1.00  0.00     0.133 C 
HETATM    2  C   UNL     1      25.094  46.769  51.274  1.00  0.00     0.073 C 
HETATM    3  C   UNL     1      25.157  45.502  52.140  1.00  0.00     0.047 C 
HETATM    4  C   UNL     1      26.533  47.202  50.872  1.00  0.00     0.097 C 
HETATM    5  C   UNL     1      26.474  48.230  49.802  1.00  0.00     0.042 A 
HETATM    6  C   UNL     1      25.406  48.519  48.980  1.00  0.00     0.030 A 
HETATM    7  C   UNL     1      25.898  49.554  48.168  1.00  0.00     0.190 A 
HETATM    8  N   UNL     1      27.155  49.889  48.433  1.00  0.00    -0.149 NA
HETATM    9  N   UNL     1      27.485  49.077  49.453  1.00  0.00    -0.279 N 
HETATM   10  H   UNL     1      28.414  49.159  49.852  1.00  0.00     0.189 HD
HETATM   11  C   UNL     1      24.108  47.790  49.031  1.00  0.00     0.074 C 
ENDROOT
BRANCH  11  12
HETATM   12  C   UNL     1      23.002  48.811  49.268  1.00  0.00    -0.048 A 
HETATM   13  C   UNL     1      21.669  48.423  49.023  1.00  0.00     0.011 A 
HETATM   14  C   UNL     1      20.612  49.306  49.251  1.00  0.00     0.043 A 
HETATM   15  C   UNL     1      20.877  50.580  49.734  1.00  0.00     0.116 A 
HETATM   16  F   UNL     1      19.862  51.424  49.956  1.00  0.00    -0.206 F 
HETATM   17  C   UNL     1      22.178  50.986  49.994  1.00  0.00     0.043 A 
HETATM   18  C   UNL     1      23.237  50.105  49.765  1.00  0.00     0.011 A 
ENDBRANCH  11  12
BRANCH   1  19
HETATM   19  C   UNL     1      24.234  45.344  49.287  1.00  0.00     0.267 C 
HETATM   20  O   UNL     1      25.291  44.992  48.778  1.00  0.00    -0.265 OA
BRANCH  19  21
HETATM   21  O   UNL     1      23.094  44.611  49.281  1.00  0.00    -0.316 OA
BRANCH  21  22
HETATM   22  C   UNL     1      22.203  44.816  48.165  1.00  0.00     0.123 C 
HETATM   23  C   UNL     1      20.773  44.996  48.664  1.00  0.00     0.040 C 
HETATM   24  C   UNL     1      22.308  43.579  47.281  1.00  0.00     0.040 C 
ENDBRANCH  21  22
ENDBRANCH  19  21
ENDBRANCH   1  19
BRANCH   2  25
HETATM   25  O   UNL     1      24.590  47.795  52.161  1.00  0.00    -0.389 OA
HETATM   26  H   UNL     1      23.629  47.676  52.265  1.00  0.00     0.210 HD
ENDBRANCH   2  25
BRANCH   7  27
HETATM   27  O   UNL     1      25.288  50.242  47.202  1.00  0.00    -0.343 OA
HETATM   28  H   UNL     1      25.316  51.187  47.413  1.00  0.00     0.219 HD
ENDBRANCH   7  27
TORSDOF 6
ENDMDL
MODEL 8
REMARK VINA RESULT:      -7.5      8.889     11.399
REMARK  6 active torsions:
REMARK  status: ('A' for Active; 'I' for Inactive)
REMARK    1  A    between atoms: C_2  and  O_3 
REMARK    2  A    between atoms: O_3  and  C_4 
REMARK    3  A    between atoms: C_4  and  C_5 
REMARK    4  A    between atoms: C_6  and  O_7 
REMARK    5  A    between atoms: C_12  and  O_13 
REMARK    6  A    between atoms: C_17  and  C_18 
ROOT
HETATM    1  C   UNL     1      18.841  49.468  48.896  1.00  0.00     0.133 C 
HETATM    2  C   UNL     1      20.341  49.717  48.526  1.00  0.00     0.073 C 
HETATM    3  C   UNL     1      20.841  51.102  48.965  1.00  0.00     0.047 C 
HETATM    4  C   UNL     1      21.319  48.619  49.037  1.00  0.00     0.097 C 
HETATM    5  C   UNL     1      20.700  47.278  48.885  1.00  0.00     0.042 A 
HETATM    6  C   UNL     1      19.364  46.990  48.705  1.00  0.00     0.030 A 
HETATM    7  C   UNL     1      19.347  45.588  48.629  1.00  0.00     0.190 A 
HETATM    8  N   UNL     1      20.545  45.031  48.758  1.00  0.00    -0.149 NA
HETATM    9  N   UNL     1      21.365  46.087  48.894  1.00  0.00    -0.279 N 
HETATM   10  H   UNL     1      22.360  45.913  48.992  1.00  0.00     0.189 HD
HETATM   11  C   UNL     1      18.298  48.028  48.664  1.00  0.00     0.074 C 
ENDROOT
BRANCH  11  12
HETATM   12  C   UNL     1      17.547  47.881  47.345  1.00  0.00    -0.048 A 
HETATM   13  C   UNL     1      16.152  48.084  47.343  1.00  0.00     0.011 A 
HETATM   14  C   UNL     1      15.416  47.992  46.160  1.00  0.00     0.043 A 
HETATM   15  C   UNL     1      16.069  47.706  44.969  1.00  0.00     0.116 A 
HETATM   16  F   UNL     1      15.363  47.623  43.834  1.00  0.00    -0.206 F 
HETATM   17  C   UNL     1      17.443  47.512  44.939  1.00  0.00     0.043 A 
HETATM   18  C   UNL     1      18.180  47.602  46.122  1.00  0.00     0.011 A 
ENDBRANCH  11  12
BRANCH   1  19
HETATM   19  C   UNL     1      18.471  49.846  50.315  1.00  0.00     0.267 C 
HETATM   20  O   UNL     1      18.906  49.244  51.289  1.00  0.00    -0.265 OA
BRANCH  19  21
HETATM   21  O   UNL     1      17.682  50.947  50.379  1.00  0.00    -0.316 OA
BRANCH  21  22
HETATM   22  C   UNL     1      17.223  51.482  49.121  1.00  0.00     0.123 C 
HETATM   23  C   UNL     1      17.674  52.932  48.974  1.00  0.00     0.040 C 
HETATM   24  C   UNL     1      15.702  51.395  49.130  1.00  0.00     0.040 C 
ENDBRANCH  21  22
ENDBRANCH  19  21
ENDBRANCH   1  19
BRANCH   2  25
HETATM   25  O   UNL     1      20.454  49.727  47.083  1.00  0.00    -0.389 OA
HETATM   26  H   UNL     1      20.548  48.809  46.770  1.00  0.00     0.210 HD
ENDBRANCH   2  25
BRANCH   7  27
HETATM   27  O   UNL     1      18.320  44.758  48.435  1.00  0.00    -0.343 OA
HETATM   28  H   UNL     1      18.401  44.000  49.033  1.00  0.00     0.219 HD
ENDBRANCH   7  27
TORSDOF 6
ENDMDL
MODEL 9
REMARK VINA RESULT:      -7.4      3.498      6.348
REMARK  6 active torsions:
REMARK  status: ('A' for Active; 'I' for Inactive)
REMARK    1  A    between atoms: C_2  and  O_3 
REMARK    2  A    between atoms: O_3  and  C_4 
REMARK    3  A    between atoms: C_4  and  C_5 
REMARK    4  A    between atoms: C_6  and  O_7 
REMARK    5  A    between atoms: C_12  and  O_13 
REMARK    6  A    between atoms: C_17  and  C_18 
ROOT
HETATM    1  C   UNL     1      26.754  43.488  52.496  1.00  0.00     0.133 C 
HETATM    2  C   UNL     1      26.071  44.064  53.781  1.00  0.00     0.073 C 
HETATM    3  C   UNL     1      26.644  43.470  55.077  1.00  0.00     0.047 C 
HETATM    4  C   UNL     1      26.075  45.618  53.869  1.00  0.00     0.097 C 
HETATM    5  C   UNL     1      25.813  46.202  52.530  1.00  0.00     0.042 A 
HETATM    6  C   UNL     1      25.927  45.575  51.308  1.00  0.00     0.030 A 
HETATM    7  C   UNL     1      25.569  46.582  50.397  1.00  0.00     0.190 A 
HETATM    8  N   UNL     1      25.267  47.740  50.972  1.00  0.00    -0.149 NA
HETATM    9  N   UNL     1      25.404  47.481  52.284  1.00  0.00    -0.279 N 
HETATM   10  H   UNL     1      25.205  48.224  52.944  1.00  0.00     0.189 HD
HETATM   11  C   UNL     1      26.376  44.165  51.146  1.00  0.00     0.074 C 
ENDROOT
BRANCH  11  12
HETATM   12  C   UNL     1      25.294  43.408  50.384  1.00  0.00    -0.048 A 
HETATM   13  C   UNL     1      25.692  42.442  49.438  1.00  0.00     0.011 A 
HETATM   14  C   UNL     1      24.745  41.698  48.732  1.00  0.00     0.043 A 
HETATM   15  C   UNL     1      23.394  41.906  48.972  1.00  0.00     0.116 A 
HETATM   16  F   UNL     1      22.487  41.188  48.298  1.00  0.00    -0.206 F 
HETATM   17  C   UNL     1      22.973  42.843  49.906  1.00  0.00     0.043 A 
HETATM   18  C   UNL     1      23.918  43.590  50.612  1.00  0.00     0.011 A 
ENDBRANCH  11  12
BRANCH   1  19
HETATM   19  C   UNL     1      28.267  43.448  52.550  1.00  0.00     0.267 C 
HETATM   20  O   UNL     1      28.923  44.265  53.185  1.00  0.00    -0.265 OA
BRANCH  19  21
HETATM   21  O   UNL     1      28.790  42.385  51.892  1.00  0.00    -0.316 OA
BRANCH  21  22
HETATM   22  C   UNL     1      28.117  41.122  52.075  1.00  0.00     0.123 C 
HETATM   23  C   UNL     1      28.605  40.450  53.354  1.00  0.00     0.040 C 
HETATM   24  C   UNL     1      28.448  40.263  50.861  1.00  0.00     0.040 C 
ENDBRANCH  21  22
ENDBRANCH  19  21
ENDBRANCH   1  19
BRANCH   2  25
HETATM   25  O   UNL     1      24.682  43.658  53.774  1.00  0.00    -0.389 OA
HETATM   26  H   UNL     1      24.334  43.717  54.682  1.00  0.00     0.210 HD
ENDBRANCH   2  25
BRANCH   7  27
HETATM   27  O   UNL     1      25.477  46.535  49.067  1.00  0.00    -0.343 OA
HETATM   28  H   UNL     1      24.752  47.107  48.773  1.00  0.00     0.219 HD
ENDBRANCH   7  27
TORSDOF 6
ENDMDL
MODEL 10
REMARK VINA RESULT:      -7.4     11.997     14.041
REMARK  6 active torsions:
REMARK  status: ('A' for Active; 'I' for Inactive)
REMARK    1  A    between atoms: C_2  and  O_3 
REMARK    2  A    between atoms: O_3  and  C_4 
REMARK    3  A    between atoms: C_4  and  C_5 
REMARK    4  A    between atoms: C_6  and  O_7 
REMARK    5  A    between atoms: C_12  and  O_13 
REMARK    6  A    between atoms: C_17  and  C_18 
ROOT
HETATM    1  C   UNL     1      29.131  49.274  40.256  1.00  0.00     0.133 C 
HETATM    2  C   UNL     1      28.268  50.442  40.837  1.00  0.00     0.073 C 
HETATM    3  C   UNL     1      29.096  51.445  41.655  1.00  0.00     0.047 C 
HETATM    4  C   UNL     1      27.418  51.202  39.778  1.00  0.00     0.097 C 
HETATM    5  C   UNL     1      26.855  50.242  38.796  1.00  0.00     0.042 A 
HETATM    6  C   UNL     1      27.272  48.951  38.555  1.00  0.00     0.030 A 
HETATM    7  C   UNL     1      26.404  48.517  37.541  1.00  0.00     0.190 A 
HETATM    8  N   UNL     1      25.526  49.437  37.160  1.00  0.00    -0.149 NA
HETATM    9  N   UNL     1      25.806  50.483  37.956  1.00  0.00    -0.279 N 
HETATM   10  H   UNL     1      25.243  51.322  37.865  1.00  0.00     0.189 HD
HETATM   11  C   UNL     1      28.420  48.314  39.259  1.00  0.00     0.074 C 
ENDROOT
BRANCH  11  12
HETATM   12  C   UNL     1      27.918  47.035  39.920  1.00  0.00    -0.048 A 
HETATM   13  C   UNL     1      28.542  45.817  39.583  1.00  0.00     0.011 A 
HETATM   14  C   UNL     1      28.144  44.619  40.178  1.00  0.00     0.043 A 
HETATM   15  C   UNL     1      27.126  44.629  41.123  1.00  0.00     0.116 A 
HETATM   16  F   UNL     1      26.749  43.480  41.697  1.00  0.00    -0.206 F 
HETATM   17  C   UNL     1      26.501  45.814  41.483  1.00  0.00     0.043 A 
HETATM   18  C   UNL     1      26.897  47.014  40.886  1.00  0.00     0.011 A 
ENDBRANCH  11  12
BRANCH   1  19
HETATM   19  C   UNL     1      30.418  49.713  39.588  1.00  0.00     0.267 C 
HETATM   20  O   UNL     1      30.452  50.125  38.435  1.00  0.00    -0.265 OA
BRANCH  19  21
HETATM   21  O   UNL     1      31.486  49.670  40.423  1.00  0.00    -0.316 OA
BRANCH  21  22
HETATM   22  C   UNL     1      31.447  48.673  41.465  1.00  0.00     0.123 C 
HETATM   23  C   UNL     1      31.836  49.299  42.800  1.00  0.00     0.040 C 
HETATM   24  C   UNL     1      32.440  47.585  41.076  1.00  0.00     0.040 C 
ENDBRANCH  21  22
ENDBRANCH  19  21
ENDBRANCH   1  19
BRANCH   2  25
HETATM   25  O   UNL     1      27.330  49.880  41.787  1.00  0.00    -0.389 OA
HETATM   26  H   UNL     1      27.579  50.173  42.682  1.00  0.00     0.210 HD
ENDBRANCH   2  25
BRANCH   7  27
HETATM   27  O   UNL     1      26.329  47.332  36.931  1.00  0.00    -0.343 OA
HETATM   28  H   UNL     1      26.602  46.636  37.547  1.00  0.00     0.219 HD
ENDBRANCH   7  27
TORSDOF 6
ENDMDL
