MODEL 1
REMARK VINA RESULT:      -7.6      0.000      0.000
REMARK  6 active torsions:
REMARK  status: ('A' for Active; 'I' for Inactive)
REMARK    1  A    between atoms: O_2  and  C_3 
REMARK    2  A    between atoms: C_3  and  C_4 
REMARK    3  A    between atoms: C_4  and  N_5 
REMARK       I    between atoms: N_5  and  C_6 
REMARK    4  A    between atoms: C_6  and  C_7 
REMARK    5  A    between atoms: C_12  and  C_13 
REMARK    6  A    between atoms: C_21  and  C_22 
ROOT
HETATM    1  C   UNL     1      33.408  52.057  40.133  1.00  0.00     0.170 A 
HETATM    2  N   UNL     1      32.158  52.314  39.675  1.00  0.00    -0.163 NA
HETATM    3  N   UNL     1      31.356  51.702  40.561  1.00  0.00    -0.238 N 
HETATM    4  C   UNL     1      32.030  50.976  41.505  1.00  0.00     0.145 A 
HETATM    5  N   UNL     1      31.358  50.219  42.413  1.00  0.00    -0.365 N 
HETATM    6  C   UNL     1      29.966  49.839  42.159  1.00  0.00     0.118 C 
HETATM    7  C   UNL     1      29.241  51.108  41.674  1.00  0.00     0.066 C 
HETATM    8  C   UNL     1      29.910  51.699  40.415  1.00  0.00     0.221 C 
HETATM    9  C   UNL     1      33.366  51.215  41.279  1.00  0.00     0.115 A 
HETATM   10 CL   UNL     1      34.669  50.590  42.168  1.00  0.00    -0.077 Cl
HETATM   11  H   UNL     1      31.878  49.598  43.033  1.00  0.00     0.162 HD
ENDROOT
BRANCH   1  12
HETATM   12  C   UNL     1      34.588  52.609  39.450  1.00  0.00     0.273 C 
HETATM   13  N   UNL     1      34.709  53.976  39.590  1.00  0.00    -0.353 N 
HETATM   14  H   UNL     1      33.915  54.450  40.013  1.00  0.00     0.162 HD
HETATM   15  O   UNL     1      35.387  51.934  38.808  1.00  0.00    -0.266 OA
BRANCH  13  16
HETATM   16  C   UNL     1      35.720  54.748  38.898  1.00  0.00     0.149 C 
BRANCH  16  17
HETATM   17  C   UNL     1      36.078  56.039  39.634  1.00  0.00     0.186 C 
BRANCH  17  18
HETATM   18  O   UNL     1      34.881  56.640  40.141  1.00  0.00    -0.394 OA
HETATM   19  C   UNL     1      34.404  57.660  39.273  1.00  0.00     0.201 C 
ENDBRANCH  17  18
ENDBRANCH  16  17
ENDBRANCH  13  16
ENDBRANCH   1  12
BRANCH   8  20
HETATM   20  C   UNL     1      29.368  53.090  40.163  1.00  0.00     0.409 C 
HETATM   21  F   UNL     1      30.186  54.056  40.638  1.00  0.00    -0.169 F 
HETATM   22  F   UNL     1      29.121  53.344  38.862  1.00  0.00    -0.169 F 
HETATM   23  F   UNL     1      28.180  53.238  40.810  1.00  0.00    -0.169 F 
ENDBRANCH   8  20
BRANCH   6  24
HETATM   24  C   UNL     1      29.847  48.625  41.235  1.00  0.00    -0.035 A 
HETATM   25  C   UNL     1      30.970  48.070  40.592  1.00  0.00     0.011 A 
HETATM   26  C   UNL     1      30.858  46.940  39.774  1.00  0.00     0.024 A 
HETATM   27  C   UNL     1      29.620  46.337  39.594  1.00  0.00     0.034 A 
HETATM   28 CL   UNL     1      29.476  44.949  38.589  1.00  0.00    -0.084 Cl
HETATM   29  C   UNL     1      28.496  46.847  40.236  1.00  0.00     0.024 A 
HETATM   30  C   UNL     1      28.611  47.973  41.059  1.00  0.00     0.011 A 
ENDBRANCH   6  24
TORSDOF 6
ENDMDL
MODEL 2
REMARK VINA RESULT:      -7.6     13.417     15.766
REMARK  6 active torsions:
REMARK  status: ('A' for Active; 'I' for Inactive)
REMARK    1  A    between atoms: O_2  and  C_3 
REMARK    2  A    between atoms: C_3  and  C_4 
REMARK    3  A    between atoms: C_4  and  N_5 
REMARK       I    between atoms: N_5  and  C_6 
REMARK    4  A    between atoms: C_6  and  C_7 
REMARK    5  A    between atoms: C_12  and  C_13 
REMARK    6  A    between atoms: C_21  and  C_22 
ROOT
HETATM    1  C   UNL     1      27.216  41.576  49.809  1.00  0.00     0.170 A 
HETATM    2  N   UNL     1      27.866  42.308  50.749  1.00  0.00    -0.163 NA
HETATM    3  N   UNL     1      26.883  42.966  51.383  1.00  0.00    -0.238 N 
HETATM    4  C   UNL     1      25.645  42.776  50.830  1.00  0.00     0.145 A 
HETATM    5  N   UNL     1      24.562  43.452  51.298  1.00  0.00    -0.365 N 
HETATM    6  C   UNL     1      24.748  44.667  52.097  1.00  0.00     0.118 C 
HETATM    7  C   UNL     1      25.843  44.352  53.134  1.00  0.00     0.066 C 
HETATM    8  C   UNL     1      27.156  43.908  52.456  1.00  0.00     0.221 C 
HETATM    9  C   UNL     1      25.820  41.850  49.829  1.00  0.00     0.115 A 
HETATM   10 CL   UNL     1      24.615  41.215  48.817  1.00  0.00    -0.077 Cl
HETATM   11  H   UNL     1      23.674  43.383  50.801  1.00  0.00     0.162 HD
ENDROOT
BRANCH   1  12
HETATM   12  C   UNL     1      27.955  40.664  48.922  1.00  0.00     0.273 C 
HETATM   13  N   UNL     1      28.124  39.404  49.456  1.00  0.00    -0.353 N 
HETATM   14  H   UNL     1      27.855  39.296  50.431  1.00  0.00     0.162 HD
HETATM   15  O   UNL     1      28.390  40.982  47.820  1.00  0.00    -0.266 OA
BRANCH  13  16
HETATM   16  C   UNL     1      28.928  38.384  48.817  1.00  0.00     0.149 C 
BRANCH  16  17
HETATM   17  C   UNL     1      30.224  38.096  49.576  1.00  0.00     0.186 C 
BRANCH  17  18
HETATM   18  O   UNL     1      29.947  38.052  50.980  1.00  0.00    -0.394 OA
HETATM   19  C   UNL     1      29.811  36.714  51.441  1.00  0.00     0.201 C 
ENDBRANCH  17  18
ENDBRANCH  16  17
ENDBRANCH  13  16
ENDBRANCH   1  12
BRANCH   8  20
HETATM   20  C   UNL     1      28.085  43.320  53.496  1.00  0.00     0.409 C 
HETATM   21  F   UNL     1      27.974  43.936  54.695  1.00  0.00    -0.169 F 
HETATM   22  F   UNL     1      27.914  41.995  53.683  1.00  0.00    -0.169 F 
HETATM   23  F   UNL     1      29.376  43.482  53.097  1.00  0.00    -0.169 F 
ENDBRANCH   8  20
BRANCH   6  24
HETATM   24  C   UNL     1      25.000  45.905  51.235  1.00  0.00    -0.035 A 
HETATM   25  C   UNL     1      26.124  46.731  51.435  1.00  0.00     0.011 A 
HETATM   26  C   UNL     1      26.365  47.843  50.622  1.00  0.00     0.024 A 
HETATM   27  C   UNL     1      25.491  48.144  49.584  1.00  0.00     0.034 A 
HETATM   28 CL   UNL     1      25.781  49.511  48.583  1.00  0.00    -0.084 Cl
HETATM   29  C   UNL     1      24.386  47.334  49.347  1.00  0.00     0.024 A 
HETATM   30  C   UNL     1      24.150  46.217  50.157  1.00  0.00     0.011 A 
ENDBRANCH   6  24
TORSDOF 6
ENDMDL
MODEL 3
REMARK VINA RESULT:      -7.4     11.803     13.978
REMARK  6 active torsions:
REMARK  status: ('A' for Active; 'I' for Inactive)
REMARK    1  A    between atoms: O_2  and  C_3 
REMARK    2  A    between atoms: C_3  and  C_4 
REMARK    3  A    between atoms: C_4  and  N_5 
REMARK       I    between atoms: N_5  and  C_6 
REMARK    4  A    between atoms: C_6  and  C_7 
REMARK    5  A    between atoms: C_12  and  C_13 
REMARK    6  A    between atoms: C_21  and  C_22 
ROOT
HETATM    1  C   UNL     1      22.750  49.503  48.487  1.00  0.00     0.170 A 
HETATM    2  N   UNL     1      21.726  50.388  48.390  1.00  0.00    -0.163 NA
HETATM    3  N   UNL     1      20.662  49.703  48.839  1.00  0.00    -0.238 N 
HETATM    4  C   UNL     1      20.929  48.390  49.118  1.00  0.00     0.145 A 
HETATM    5  N   UNL     1      19.934  47.540  49.488  1.00  0.00    -0.365 N 
HETATM    6  C   UNL     1      18.538  47.883  49.205  1.00  0.00     0.118 C 
HETATM    7  C   UNL     1      18.351  49.355  49.616  1.00  0.00     0.066 C 
HETATM    8  C   UNL     1      19.330  50.284  48.866  1.00  0.00     0.221 C 
HETATM    9  C   UNL     1      22.284  48.236  48.936  1.00  0.00     0.115 A 
HETATM   10 CL   UNL     1      23.179  46.813  49.165  1.00  0.00    -0.077 Cl
HETATM   11  H   UNL     1      20.134  46.544  49.581  1.00  0.00     0.162 HD
ENDROOT
BRANCH   1  12
HETATM   12  C   UNL     1      24.121  49.896  48.129  1.00  0.00     0.273 C 
HETATM   13  N   UNL     1      25.087  49.145  48.766  1.00  0.00    -0.353 N 
HETATM   14  H   UNL     1      24.753  48.522  49.497  1.00  0.00     0.162 HD
HETATM   15  O   UNL     1      24.393  50.806  47.352  1.00  0.00    -0.266 OA
BRANCH  13  16
HETATM   16  C   UNL     1      26.501  49.438  48.664  1.00  0.00     0.149 C 
BRANCH  16  17
HETATM   17  C   UNL     1      27.352  48.543  49.565  1.00  0.00     0.186 C 
BRANCH  17  18
HETATM   18  O   UNL     1      27.542  47.275  48.926  1.00  0.00    -0.394 OA
HETATM   19  C   UNL     1      26.929  46.225  49.662  1.00  0.00     0.201 C 
ENDBRANCH  17  18
ENDBRANCH  16  17
ENDBRANCH  13  16
ENDBRANCH   1  12
BRANCH   8  20
HETATM   20  C   UNL     1      19.327  51.650  49.517  1.00  0.00     0.409 C 
HETATM   21  F   UNL     1      19.648  52.636  48.650  1.00  0.00    -0.169 F 
HETATM   22  F   UNL     1      18.152  51.965  50.101  1.00  0.00    -0.169 F 
HETATM   23  F   UNL     1      20.262  51.685  50.506  1.00  0.00    -0.169 F 
ENDBRANCH   8  20
BRANCH   6  24
HETATM   24  C   UNL     1      18.129  47.549  47.769  1.00  0.00    -0.035 A 
HETATM   25  C   UNL     1      19.014  46.913  46.876  1.00  0.00     0.011 A 
HETATM   26  C   UNL     1      18.622  46.582  45.574  1.00  0.00     0.024 A 
HETATM   27  C   UNL     1      17.332  46.869  45.146  1.00  0.00     0.034 A 
HETATM   28 CL   UNL     1      16.846  46.464  43.547  1.00  0.00    -0.084 Cl
HETATM   29  C   UNL     1      16.428  47.473  46.013  1.00  0.00     0.024 A 
HETATM   30  C   UNL     1      16.820  47.798  47.317  1.00  0.00     0.011 A 
ENDBRANCH   6  24
TORSDOF 6
ENDMDL
MODEL 4
REMARK VINA RESULT:      -7.4     12.661     15.206
REMARK  6 active torsions:
REMARK  status: ('A' for Active; 'I' for Inactive)
REMARK    1  A    between atoms: O_2  and  C_3 
REMARK    2  A    between atoms: C_3  and  C_4 
REMARK    3  A    between atoms: C_4  and  N_5 
REMARK       I    between atoms: N_5  and  C_6 
REMARK    4  A    between atoms: C_6  and  C_7 
REMARK    5  A    between atoms: C_12  and  C_13 
REMARK    6  A    between atoms: C_21  and  C_22 
ROOT
HETATM    1  C   UNL     1      21.587  46.954  47.428  1.00  0.00     0.170 A 
HETATM    2  N   UNL     1      22.140  48.192  47.390  1.00  0.00    -0.163 NA
HETATM    3  N   UNL     1      21.568  48.835  48.420  1.00  0.00    -0.238 N 
HETATM    4  C   UNL     1      20.597  48.107  49.053  1.00  0.00     0.145 A 
HETATM    5  N   UNL     1      19.855  48.656  50.052  1.00  0.00    -0.365 N 
HETATM    6  C   UNL     1      19.787  50.113  50.196  1.00  0.00     0.118 C 
HETATM    7  C   UNL     1      21.228  50.640  50.060  1.00  0.00     0.066 C 
HETATM    8  C   UNL     1      21.860  50.228  48.714  1.00  0.00     0.221 C 
HETATM    9  C   UNL     1      20.609  46.867  48.458  1.00  0.00     0.115 A 
HETATM   10 CL   UNL     1      19.626  45.544  48.858  1.00  0.00    -0.077 Cl
HETATM   11  H   UNL     1      19.064  48.138  50.432  1.00  0.00     0.162 HD
ENDROOT
BRANCH   1  12
HETATM   12  C   UNL     1      22.000  45.915  46.472  1.00  0.00     0.273 C 
HETATM   13  N   UNL     1      22.565  44.812  47.077  1.00  0.00    -0.353 N 
HETATM   14  H   UNL     1      22.759  44.902  48.072  1.00  0.00     0.162 HD
HETATM   15  O   UNL     1      21.869  46.011  45.256  1.00  0.00    -0.266 OA
BRANCH  13  16
HETATM   16  C   UNL     1      23.158  43.725  46.327  1.00  0.00     0.149 C 
BRANCH  16  17
HETATM   17  C   UNL     1      22.406  42.406  46.512  1.00  0.00     0.186 C 
BRANCH  17  18
HETATM   18  O   UNL     1      22.098  42.230  47.900  1.00  0.00    -0.394 OA
HETATM   19  C   UNL     1      23.142  41.549  48.582  1.00  0.00     0.201 C 
ENDBRANCH  17  18
ENDBRANCH  16  17
ENDBRANCH  13  16
ENDBRANCH   1  12
BRANCH   8  20
HETATM   20  C   UNL     1      23.350  50.493  48.756  1.00  0.00     0.409 C 
HETATM   21  F   UNL     1      24.045  49.447  49.257  1.00  0.00    -0.169 F 
HETATM   22  F   UNL     1      23.873  50.814  47.555  1.00  0.00    -0.169 F 
HETATM   23  F   UNL     1      23.600  51.551  49.574  1.00  0.00    -0.169 F 
ENDBRANCH   8  20
BRANCH   6  24
HETATM   24  C   UNL     1      18.767  50.750  49.250  1.00  0.00    -0.035 A 
HETATM   25  C   UNL     1      19.018  51.978  48.607  1.00  0.00     0.011 A 
HETATM   26  C   UNL     1      18.093  52.538  47.719  1.00  0.00     0.024 A 
HETATM   27  C   UNL     1      16.903  51.872  47.448  1.00  0.00     0.034 A 
HETATM   28 CL   UNL     1      15.763  52.557  46.358  1.00  0.00    -0.084 Cl
HETATM   29  C   UNL     1      16.638  50.647  48.049  1.00  0.00     0.024 A 
HETATM   30  C   UNL     1      17.568  50.084  48.932  1.00  0.00     0.011 A 
ENDBRANCH   6  24
TORSDOF 6
ENDMDL
MODEL 5
REMARK VINA RESULT:      -7.3     12.959     15.621
REMARK  6 active torsions:
REMARK  status: ('A' for Active; 'I' for Inactive)
REMARK    1  A    between atoms: O_2  and  C_3 
REMARK    2  A    between atoms: C_3  and  C_4 
REMARK    3  A    between atoms: C_4  and  N_5 
REMARK       I    between atoms: N_5  and  C_6 
REMARK    4  A    between atoms: C_6  and  C_7 
REMARK    5  A    between atoms: C_12  and  C_13 
REMARK    6  A    between atoms: C_21  and  C_22 
ROOT
HETATM    1  C   UNL     1      25.572  42.092  49.724  1.00  0.00     0.170 A 
HETATM    2  N   UNL     1      26.675  42.655  50.277  1.00  0.00    -0.163 NA
HETATM    3  N   UNL     1      26.186  43.640  51.046  1.00  0.00    -0.238 N 
HETATM    4  C   UNL     1      24.832  43.808  50.931  1.00  0.00     0.145 A 
HETATM    5  N   UNL     1      24.200  44.829  51.570  1.00  0.00    -0.365 N 
HETATM    6  C   UNL     1      24.970  45.983  52.043  1.00  0.00     0.118 C 
HETATM    7  C   UNL     1      26.221  45.424  52.744  1.00  0.00     0.066 C 
HETATM    8  C   UNL     1      27.053  44.532  51.798  1.00  0.00     0.221 C 
HETATM    9  C   UNL     1      24.397  42.795  50.109  1.00  0.00     0.115 A 
HETATM   10 CL   UNL     1      22.795  42.494  49.636  1.00  0.00    -0.077 Cl
HETATM   11  H   UNL     1      23.213  45.004  51.382  1.00  0.00     0.162 HD
ENDROOT
BRANCH   1  12
HETATM   12  C   UNL     1      25.687  40.923  48.838  1.00  0.00     0.273 C 
HETATM   13  N   UNL     1      26.233  39.820  49.461  1.00  0.00    -0.353 N 
HETATM   14  H   UNL     1      26.615  39.979  50.390  1.00  0.00     0.162 HD
HETATM   15  O   UNL     1      25.346  40.919  47.660  1.00  0.00    -0.266 OA
BRANCH  13  16
HETATM   16  C   UNL     1      26.556  38.600  48.752  1.00  0.00     0.149 C 
BRANCH  16  17
HETATM   17  C   UNL     1      27.264  37.575  49.639  1.00  0.00     0.186 C 
BRANCH  17  18
HETATM   18  O   UNL     1      28.652  37.529  49.290  1.00  0.00    -0.394 OA
HETATM   19  C   UNL     1      29.453  38.197  50.256  1.00  0.00     0.201 C 
ENDBRANCH  17  18
ENDBRANCH  16  17
ENDBRANCH  13  16
ENDBRANCH   1  12
BRANCH   8  20
HETATM   20  C   UNL     1      28.082  43.767  52.603  1.00  0.00     0.409 C 
HETATM   21  F   UNL     1      29.104  43.319  51.840  1.00  0.00    -0.169 F 
HETATM   22  F   UNL     1      28.597  44.474  53.630  1.00  0.00    -0.169 F 
HETATM   23  F   UNL     1      27.501  42.667  53.155  1.00  0.00    -0.169 F 
ENDBRANCH   8  20
BRANCH   6  24
HETATM   24  C   UNL     1      25.242  47.002  50.935  1.00  0.00    -0.035 A 
HETATM   25  C   UNL     1      24.208  47.505  50.120  1.00  0.00     0.011 A 
HETATM   26  C   UNL     1      24.461  48.461  49.130  1.00  0.00     0.024 A 
HETATM   27  C   UNL     1      25.751  48.941  48.944  1.00  0.00     0.034 A 
HETATM   28 CL   UNL     1      26.066  50.115  47.728  1.00  0.00    -0.084 Cl
HETATM   29  C   UNL     1      26.788  48.482  49.749  1.00  0.00     0.024 A 
HETATM   30  C   UNL     1      26.533  47.530  50.744  1.00  0.00     0.011 A 
ENDBRANCH   6  24
TORSDOF 6
ENDMDL
MODEL 6
REMARK VINA RESULT:      -7.2     12.795     15.210
REMARK  6 active torsions:
REMARK  status: ('A' for Active; 'I' for Inactive)
REMARK    1  A    between atoms: O_2  and  C_3 
REMARK    2  A    between atoms: C_3  and  C_4 
REMARK    3  A    between atoms: C_4  and  N_5 
REMARK       I    between atoms: N_5  and  C_6 
REMARK    4  A    between atoms: C_6  and  C_7 
REMARK    5  A    between atoms: C_12  and  C_13 
REMARK    6  A    between atoms: C_21  and  C_22 
ROOT
HETATM    1  C   UNL     1      20.365  48.390  47.817  1.00  0.00     0.170 A 
HETATM    2  N   UNL     1      20.079  49.601  48.357  1.00  0.00    -0.163 NA
HETATM    3  N   UNL     1      18.785  49.794  48.054  1.00  0.00    -0.238 N 
HETATM    4  C   UNL     1      18.255  48.817  47.255  1.00  0.00     0.145 A 
HETATM    5  N   UNL     1      16.985  48.920  46.780  1.00  0.00    -0.365 N 
HETATM    6  C   UNL     1      16.314  50.223  46.762  1.00  0.00     0.118 C 
HETATM    7  C   UNL     1      16.573  50.874  48.133  1.00  0.00     0.066 C 
HETATM    8  C   UNL     1      18.083  51.013  48.420  1.00  0.00     0.221 C 
HETATM    9  C   UNL     1      19.243  47.871  47.113  1.00  0.00     0.115 A 
HETATM   10 CL   UNL     1      19.134  46.420  46.241  1.00  0.00    -0.077 Cl
HETATM   11  H   UNL     1      16.648  48.241  46.097  1.00  0.00     0.162 HD
ENDROOT
BRANCH   1  12
HETATM   12  C   UNL     1      21.698  47.790  47.979  1.00  0.00     0.273 C 
HETATM   13  N   UNL     1      22.252  48.021  49.220  1.00  0.00    -0.353 N 
HETATM   14  H   UNL     1      21.755  48.683  49.812  1.00  0.00     0.162 HD
HETATM   15  O   UNL     1      22.274  47.153  47.103  1.00  0.00    -0.266 OA
BRANCH  13  16
HETATM   16  C   UNL     1      23.606  47.635  49.558  1.00  0.00     0.149 C 
BRANCH  16  17
HETATM   17  C   UNL     1      24.635  48.692  49.159  1.00  0.00     0.186 C 
BRANCH  17  18
HETATM   18  O   UNL     1      25.860  48.445  49.859  1.00  0.00    -0.394 OA
HETATM   19  C   UNL     1      26.989  48.792  49.068  1.00  0.00     0.201 C 
ENDBRANCH  17  18
ENDBRANCH  16  17
ENDBRANCH  13  16
ENDBRANCH   1  12
BRANCH   8  20
HETATM   20  C   UNL     1      18.287  51.360  49.880  1.00  0.00     0.409 C 
HETATM   21  F   UNL     1      18.187  50.280  50.686  1.00  0.00    -0.169 F 
HETATM   22  F   UNL     1      19.466  51.967  50.129  1.00  0.00    -0.169 F 
HETATM   23  F   UNL     1      17.321  52.232  50.279  1.00  0.00    -0.169 F 
ENDBRANCH   8  20
BRANCH   6  24
HETATM   24  C   UNL     1      16.709  51.071  45.551  1.00  0.00    -0.035 A 
HETATM   25  C   UNL     1      17.333  50.505  44.421  1.00  0.00     0.011 A 
HETATM   26  C   UNL     1      17.662  51.281  43.305  1.00  0.00     0.024 A 
HETATM   27  C   UNL     1      17.362  52.638  43.293  1.00  0.00     0.034 A 
HETATM   28 CL   UNL     1      17.765  53.596  41.924  1.00  0.00    -0.084 Cl
HETATM   29  C   UNL     1      16.724  53.220  44.383  1.00  0.00     0.024 A 
HETATM   30  C   UNL     1      16.390  52.441  45.496  1.00  0.00     0.011 A 
ENDBRANCH   6  24
TORSDOF 6
ENDMDL
MODEL 7
REMARK VINA RESULT:      -7.1      1.930      2.395
REMARK  6 active torsions:
REMARK  status: ('A' for Active; 'I' for Inactive)
REMARK    1  A    between atoms: O_2  and  C_3 
REMARK    2  A    between atoms: C_3  and  C_4 
REMARK    3  A    between atoms: C_4  and  N_5 
REMARK       I    between atoms: N_5  and  C_6 
REMARK    4  A    between atoms: C_6  and  C_7 
REMARK    5  A    between atoms: C_12  and  C_13 
REMARK    6  A    between atoms: C_21  and  C_22 
ROOT
HETATM    1  C   UNL     1      32.484  51.248  40.294  1.00  0.00     0.170 A 
HETATM    2  N   UNL     1      31.210  51.685  40.124  1.00  0.00    -0.163 NA
HETATM    3  N   UNL     1      30.466  50.765  40.758  1.00  0.00    -0.238 N 
HETATM    4  C   UNL     1      31.187  49.704  41.234  1.00  0.00     0.145 A 
HETATM    5  N   UNL     1      30.565  48.642  41.813  1.00  0.00    -0.365 N 
HETATM    6  C   UNL     1      29.136  48.416  41.579  1.00  0.00     0.118 C 
HETATM    7  C   UNL     1      28.438  49.778  41.748  1.00  0.00     0.066 C 
HETATM    8  C   UNL     1      29.014  50.837  40.784  1.00  0.00     0.221 C 
HETATM    9  C   UNL     1      32.506  50.004  40.982  1.00  0.00     0.115 A 
HETATM   10 CL   UNL     1      33.852  49.052  41.382  1.00  0.00    -0.077 Cl
HETATM   11  H   UNL     1      31.108  47.814  42.057  1.00  0.00     0.162 HD
ENDROOT
BRANCH   1  12
HETATM   12  C   UNL     1      33.621  52.025  39.776  1.00  0.00     0.273 C 
HETATM   13  N   UNL     1      34.694  52.062  40.642  1.00  0.00    -0.353 N 
HETATM   14  H   UNL     1      34.527  51.683  41.571  1.00  0.00     0.162 HD
HETATM   15  O   UNL     1      33.624  52.595  38.690  1.00  0.00    -0.266 OA
BRANCH  13  16
HETATM   16  C   UNL     1      35.870  52.870  40.397  1.00  0.00     0.149 C 
BRANCH  16  17
HETATM   17  C   UNL     1      36.922  52.138  39.563  1.00  0.00     0.186 C 
BRANCH  17  18
HETATM   18  O   UNL     1      36.871  52.617  38.215  1.00  0.00    -0.394 OA
HETATM   19  C   UNL     1      37.290  53.973  38.129  1.00  0.00     0.201 C 
ENDBRANCH  17  18
ENDBRANCH  16  17
ENDBRANCH  13  16
ENDBRANCH   1  12
BRANCH   8  20
HETATM   20  C   UNL     1      28.527  52.210  41.195  1.00  0.00     0.409 C 
HETATM   21  F   UNL     1      27.217  52.214  41.527  1.00  0.00    -0.169 F 
HETATM   22  F   UNL     1      29.226  52.746  42.217  1.00  0.00    -0.169 F 
HETATM   23  F   UNL     1      28.663  53.072  40.150  1.00  0.00    -0.169 F 
ENDBRANCH   8  20
BRANCH   6  24
HETATM   24  C   UNL     1      28.863  47.703  40.253  1.00  0.00    -0.035 A 
HETATM   25  C   UNL     1      29.821  46.863  39.652  1.00  0.00     0.011 A 
HETATM   26  C   UNL     1      29.551  46.189  38.457  1.00  0.00     0.024 A 
HETATM   27  C   UNL     1      28.312  46.333  37.845  1.00  0.00     0.034 A 
HETATM   28 CL   UNL     1      27.977  45.507  36.375  1.00  0.00    -0.084 Cl
HETATM   29  C   UNL     1      27.337  47.135  38.427  1.00  0.00     0.024 A 
HETATM   30  C   UNL     1      27.606  47.804  39.627  1.00  0.00     0.011 A 
ENDBRANCH   6  24
TORSDOF 6
ENDMDL
MODEL 8
REMARK VINA RESULT:      -7.0     13.192     15.509
REMARK  6 active torsions:
REMARK  status: ('A' for Active; 'I' for Inactive)
REMARK    1  A    between atoms: O_2  and  C_3 
REMARK    2  A    between atoms: C_3  and  C_4 
REMARK    3  A    between atoms: C_4  and  N_5 
REMARK       I    between atoms: N_5  and  C_6 
REMARK    4  A    between atoms: C_6  and  C_7 
REMARK    5  A    between atoms: C_12  and  C_13 
REMARK    6  A    between atoms: C_21  and  C_22 
ROOT
HETATM    1  C   UNL     1      27.251  42.083  50.889  1.00  0.00     0.170 A 
HETATM    2  N   UNL     1      27.847  42.968  51.727  1.00  0.00    -0.163 NA
HETATM    3  N   UNL     1      26.849  43.785  52.098  1.00  0.00    -0.238 N 
HETATM    4  C   UNL     1      25.665  43.535  51.459  1.00  0.00     0.145 A 
HETATM    5  N   UNL     1      24.585  44.339  51.653  1.00  0.00    -0.365 N 
HETATM    6  C   UNL     1      24.767  45.685  52.203  1.00  0.00     0.118 C 
HETATM    7  C   UNL     1      25.727  45.550  53.399  1.00  0.00     0.066 C 
HETATM    8  C   UNL     1      27.072  44.919  52.979  1.00  0.00     0.221 C 
HETATM    9  C   UNL     1      25.881  42.412  50.694  1.00  0.00     0.115 A 
HETATM   10 CL   UNL     1      24.747  41.631  49.704  1.00  0.00    -0.077 Cl
HETATM   11  H   UNL     1      23.750  44.204  51.083  1.00  0.00     0.162 HD
ENDROOT
BRANCH   1  12
HETATM   12  C   UNL     1      28.016  40.974  50.297  1.00  0.00     0.273 C 
HETATM   13  N   UNL     1      28.039  41.004  48.918  1.00  0.00    -0.353 N 
HETATM   14  H   UNL     1      27.424  41.684  48.479  1.00  0.00     0.162 HD
HETATM   15  O   UNL     1      28.573  40.099  50.951  1.00  0.00    -0.266 OA
BRANCH  13  16
HETATM   16  C   UNL     1      28.623  39.946  48.122  1.00  0.00     0.149 C 
BRANCH  16  17
HETATM   17  C   UNL     1      27.569  39.017  47.517  1.00  0.00     0.186 C 
BRANCH  17  18
HETATM   18  O   UNL     1      28.140  38.317  46.406  1.00  0.00    -0.394 OA
HETATM   19  C   UNL     1      28.128  36.911  46.615  1.00  0.00     0.201 C 
ENDBRANCH  17  18
ENDBRANCH  16  17
ENDBRANCH  13  16
ENDBRANCH   1  12
BRANCH   8  20
HETATM   20  C   UNL     1      27.850  44.524  54.217  1.00  0.00     0.409 C 
HETATM   21  F   UNL     1      27.437  43.343  54.730  1.00  0.00    -0.169 F 
HETATM   22  F   UNL     1      29.182  44.458  54.017  1.00  0.00    -0.169 F 
HETATM   23  F   UNL     1      27.658  45.456  55.190  1.00  0.00    -0.169 F 
ENDBRANCH   8  20
BRANCH   6  24
HETATM   24  C   UNL     1      25.185  46.703  51.141  1.00  0.00    -0.035 A 
HETATM   25  C   UNL     1      24.269  47.212  50.199  1.00  0.00     0.011 A 
HETATM   26  C   UNL     1      24.652  48.167  49.251  1.00  0.00     0.024 A 
HETATM   27  C   UNL     1      25.958  48.640  49.235  1.00  0.00     0.034 A 
HETATM   28 CL   UNL     1      26.434  49.813  48.071  1.00  0.00    -0.084 Cl
HETATM   29  C   UNL     1      26.879  48.175  50.167  1.00  0.00     0.024 A 
HETATM   30  C   UNL     1      26.492  47.225  51.119  1.00  0.00     0.011 A 
ENDBRANCH   6  24
TORSDOF 6
ENDMDL
MODEL 9
REMARK VINA RESULT:      -7.0     13.706     15.992
REMARK  6 active torsions:
REMARK  status: ('A' for Active; 'I' for Inactive)
REMARK    1  A    between atoms: O_2  and  C_3 
REMARK    2  A    between atoms: C_3  and  C_4 
REMARK    3  A    between atoms: C_4  and  N_5 
REMARK       I    between atoms: N_5  and  C_6 
REMARK    4  A    between atoms: C_6  and  C_7 
REMARK    5  A    between atoms: C_12  and  C_13 
REMARK    6  A    between atoms: C_21  and  C_22 
ROOT
HETATM    1  C   UNL     1      27.627  40.723  49.776  1.00  0.00     0.170 A 
HETATM    2  N   UNL     1      28.416  41.329  50.696  1.00  0.00    -0.163 NA
HETATM    3  N   UNL     1      27.552  42.006  51.469  1.00  0.00    -0.238 N 
HETATM    4  C   UNL     1      26.258  41.952  51.027  1.00  0.00     0.145 A 
HETATM    5  N   UNL     1      25.281  42.668  51.644  1.00  0.00    -0.365 N 
HETATM    6  C   UNL     1      25.636  43.799  52.505  1.00  0.00     0.118 C 
HETATM    7  C   UNL     1      26.792  43.326  53.405  1.00  0.00     0.066 C 
HETATM    8  C   UNL     1      27.998  42.840  52.573  1.00  0.00     0.221 C 
HETATM    9  C   UNL     1      26.265  41.096  49.951  1.00  0.00     0.115 A 
HETATM   10 CL   UNL     1      24.925  40.633  49.019  1.00  0.00    -0.077 Cl
HETATM   11  H   UNL     1      24.348  42.703  51.233  1.00  0.00     0.162 HD
ENDROOT
BRANCH   1  12
HETATM   12  C   UNL     1      28.205  39.830  48.759  1.00  0.00     0.273 C 
HETATM   13  N   UNL     1      27.744  40.086  47.484  1.00  0.00    -0.353 N 
HETATM   14  H   UNL     1      26.973  40.745  47.416  1.00  0.00     0.162 HD
HETATM   15  O   UNL     1      29.009  38.937  49.008  1.00  0.00    -0.266 OA
BRANCH  13  16
HETATM   16  C   UNL     1      28.078  39.253  46.349  1.00  0.00     0.149 C 
BRANCH  16  17
HETATM   17  C   UNL     1      27.087  38.105  46.151  1.00  0.00     0.186 C 
BRANCH  17  18
HETATM   18  O   UNL     1      27.651  36.900  46.680  1.00  0.00    -0.394 OA
HETATM   19  C   UNL     1      26.846  36.363  47.722  1.00  0.00     0.201 C 
ENDBRANCH  17  18
ENDBRANCH  16  17
ENDBRANCH  13  16
ENDBRANCH   1  12
BRANCH   8  20
HETATM   20  C   UNL     1      28.968  42.105  53.474  1.00  0.00     0.409 C 
HETATM   21  F   UNL     1      28.640  40.803  53.632  1.00  0.00    -0.169 F 
HETATM   22  F   UNL     1      30.249  42.173  53.055  1.00  0.00    -0.169 F 
HETATM   23  F   UNL     1      28.946  42.662  54.716  1.00  0.00    -0.169 F 
ENDBRANCH   8  20
BRANCH   6  24
HETATM   24  C   UNL     1      25.908  45.079  51.712  1.00  0.00    -0.035 A 
HETATM   25  C   UNL     1      26.011  46.334  52.343  1.00  0.00     0.011 A 
HETATM   26  C   UNL     1      26.291  47.495  51.614  1.00  0.00     0.024 A 
HETATM   27  C   UNL     1      26.486  47.420  50.241  1.00  0.00     0.034 A 
HETATM   28 CL   UNL     1      26.829  48.844  49.341  1.00  0.00    -0.084 Cl
HETATM   29  C   UNL     1      26.415  46.191  49.593  1.00  0.00     0.024 A 
HETATM   30  C   UNL     1      26.141  45.029  50.325  1.00  0.00     0.011 A 
ENDBRANCH   6  24
TORSDOF 6
ENDMDL
MODEL 10
REMARK VINA RESULT:      -6.9     12.944     15.574
REMARK  6 active torsions:
REMARK  status: ('A' for Active; 'I' for Inactive)
REMARK    1  A    between atoms: O_2  and  C_3 
REMARK    2  A    between atoms: C_3  and  C_4 
REMARK    3  A    between atoms: C_4  and  N_5 
REMARK       I    between atoms: N_5  and  C_6 
REMARK    4  A    between atoms: C_6  and  C_7 
REMARK    5  A    between atoms: C_12  and  C_13 
REMARK    6  A    between atoms: C_21  and  C_22 
ROOT
HETATM    1  C   UNL     1      21.052  47.162  47.200  1.00  0.00     0.170 A 
HETATM    2  N   UNL     1      21.602  48.400  47.255  1.00  0.00    -0.163 NA
HETATM    3  N   UNL     1      21.152  48.904  48.415  1.00  0.00    -0.238 N 
HETATM    4  C   UNL     1      20.255  48.094  49.057  1.00  0.00     0.145 A 
HETATM    5  N   UNL     1      19.633  48.507  50.194  1.00  0.00    -0.365 N 
HETATM    6  C   UNL     1      19.587  49.933  50.525  1.00  0.00     0.118 C 
HETATM    7  C   UNL     1      21.006  50.487  50.297  1.00  0.00     0.066 C 
HETATM    8  C   UNL     1      21.481  50.252  48.847  1.00  0.00     0.221 C 
HETATM    9  C   UNL     1      20.195  46.938  48.314  1.00  0.00     0.115 A 
HETATM   10 CL   UNL     1      19.257  45.566  48.654  1.00  0.00    -0.077 Cl
HETATM   11  H   UNL     1      18.886  47.937  50.593  1.00  0.00     0.162 HD
ENDROOT
BRANCH   1  12
HETATM   12  C   UNL     1      21.350  46.254  46.082  1.00  0.00     0.273 C 
HETATM   13  N   UNL     1      20.317  46.150  45.174  1.00  0.00    -0.353 N 
HETATM   14  H   UNL     1      19.439  46.586  45.449  1.00  0.00     0.162 HD
HETATM   15  O   UNL     1      22.404  45.638  45.961  1.00  0.00    -0.266 OA
BRANCH  13  16
HETATM   16  C   UNL     1      20.339  45.220  44.066  1.00  0.00     0.149 C 
BRANCH  16  17
HETATM   17  C   UNL     1      19.345  44.071  44.244  1.00  0.00     0.186 C 
BRANCH  17  18
HETATM   18  O   UNL     1      20.062  42.834  44.313  1.00  0.00    -0.394 OA
HETATM   19  C   UNL     1      20.488  42.554  45.640  1.00  0.00     0.201 C 
ENDBRANCH  17  18
ENDBRANCH  16  17
ENDBRANCH  13  16
ENDBRANCH   1  12
BRANCH   8  20
HETATM   20  C   UNL     1      22.967  50.524  48.754  1.00  0.00     0.409 C 
HETATM   21  F   UNL     1      23.356  51.542  49.555  1.00  0.00    -0.169 F 
HETATM   22  F   UNL     1      23.730  49.448  49.035  1.00  0.00    -0.169 F 
HETATM   23  F   UNL     1      23.284  50.892  47.482  1.00  0.00    -0.169 F 
ENDBRANCH   8  20
BRANCH   6  24
HETATM   24  C   UNL     1      18.470  50.673  49.787  1.00  0.00    -0.035 A 
HETATM   25  C   UNL     1      18.379  52.079  49.797  1.00  0.00     0.011 A 
HETATM   26  C   UNL     1      17.373  52.749  49.093  1.00  0.00     0.024 A 
HETATM   27  C   UNL     1      16.445  52.025  48.354  1.00  0.00     0.034 A 
HETATM   28 CL   UNL     1      15.206  52.844  47.489  1.00  0.00    -0.084 Cl
HETATM   29  C   UNL     1      16.524  50.637  48.305  1.00  0.00     0.024 A 
HETATM   30  C   UNL     1      17.535  49.968  49.005  1.00  0.00     0.011 A 
ENDBRANCH   6  24
TORSDOF 6
ENDMDL
