MODEL 1
REMARK VINA RESULT:      -8.7      0.000      0.000
REMARK  8 active torsions:
REMARK  status: ('A' for Active; 'I' for Inactive)
REMARK    1  A    between atoms: C_7  and  C_8 
REMARK    2  A    between atoms: C_8  and  C_9 
REMARK    3  A    between atoms: C_9  and  N_10 
REMARK       I    between atoms: N_10  and  C_11 
REMARK    4  A    between atoms: C_11  and  C_12 
REMARK    5  A    between atoms: C_12  and  S_13 
REMARK    6  A    between atoms: S_13  and  C_14 
REMARK    7  A    between atoms: C_23  and  O_24 
REMARK    8  A    between atoms: O_24  and  C_25 
ROOT
HETATM    1  C   UNL     1      31.002  43.338  55.888  1.00  0.00     0.068 C 
HETATM    2  C   UNL     1      29.873  44.078  55.263  1.00  0.00     0.013 A 
HETATM    3  N   UNL     1      29.432  45.276  55.761  1.00  0.00    -0.359 N 
HETATM    4  H   UNL     1      29.820  45.750  56.565  1.00  0.00     0.166 HD
HETATM    5  C   UNL     1      28.374  45.747  55.020  1.00  0.00     0.043 A 
HETATM    6  C   UNL     1      28.140  44.823  54.006  1.00  0.00     0.002 A 
HETATM    7  C   UNL     1      29.094  43.765  54.160  1.00  0.00    -0.022 A 
HETATM    8  C   UNL     1      27.615  46.912  55.169  1.00  0.00     0.033 A 
HETATM    9  C   UNL     1      26.577  47.138  54.255  1.00  0.00     0.039 A 
HETATM   10  C   UNL     1      26.309  46.235  53.228  1.00  0.00     0.077 A 
HETATM   11  C   UNL     1      27.092  45.078  53.097  1.00  0.00     0.051 A 
ENDROOT
BRANCH   7  12
HETATM   12  C   UNL     1      29.217  42.543  53.301  1.00  0.00     0.061 C 
BRANCH  12  13
HETATM   13  C   UNL     1      28.019  41.605  53.465  1.00  0.00     0.127 C 
BRANCH  13  14
HETATM   14  N   UNL     1      27.791  40.775  52.297  1.00  0.00    -0.360 N 
HETATM   15  C   UNL     1      26.986  41.197  51.259  1.00  0.00     0.227 C 
HETATM   16  O   UNL     1      26.320  42.229  51.300  1.00  0.00    -0.273 OA
HETATM   17  H   UNL     1      28.505  40.089  52.050  1.00  0.00     0.162 HD
BRANCH  15  18
HETATM   18  C   UNL     1      26.972  40.267  50.060  1.00  0.00     0.183 C 
BRANCH  18  19
HETATM   19  S   UNL     1      28.660  39.865  49.542  1.00  0.00    -0.098 SA
BRANCH  19  20
HETATM   20  C   UNL     1      28.917  38.292  50.233  1.00  0.00     0.134 A 
HETATM   21  N   UNL     1      28.075  37.258  50.106  1.00  0.00    -0.149 NA
HETATM   22  N   UNL     1      28.735  36.302  50.793  1.00  0.00    -0.196 N 
HETATM   23  H   UNL     1      28.359  35.360  50.881  1.00  0.00     0.213 HD
HETATM   24  N   UNL     1      29.905  36.627  51.366  1.00  0.00    -0.167 NA
HETATM   25  C   UNL     1      30.025  37.910  51.006  1.00  0.00     0.180 A 
ENDBRANCH  19  20
ENDBRANCH  18  19
ENDBRANCH  15  18
ENDBRANCH  13  14
ENDBRANCH  12  13
ENDBRANCH   7  12
BRANCH  10  26
HETATM   26  O   UNL     1      25.325  46.349  52.284  1.00  0.00    -0.270 OA
BRANCH  26  27
HETATM   27  C   UNL     1      25.672  46.855  51.002  1.00  0.00     0.447 C 
HETATM   28 CL   UNL     1      24.220  47.461  50.199  1.00  0.00    -0.014 Cl
HETATM   29  F   UNL     1      26.576  47.858  51.128  1.00  0.00    -0.159 F 
HETATM   30  F   UNL     1      26.233  45.873  50.253  1.00  0.00    -0.159 F 
ENDBRANCH  26  27
ENDBRANCH  10  26
TORSDOF 8
ENDMDL
MODEL 2
REMARK VINA RESULT:      -8.3      2.278      3.679
REMARK  8 active torsions:
REMARK  status: ('A' for Active; 'I' for Inactive)
REMARK    1  A    between atoms: C_7  and  C_8 
REMARK    2  A    between atoms: C_8  and  C_9 
REMARK    3  A    between atoms: C_9  and  N_10 
REMARK       I    between atoms: N_10  and  C_11 
REMARK    4  A    between atoms: C_11  and  C_12 
REMARK    5  A    between atoms: C_12  and  S_13 
REMARK    6  A    between atoms: S_13  and  C_14 
REMARK    7  A    between atoms: C_23  and  O_24 
REMARK    8  A    between atoms: O_24  and  C_25 
ROOT
HETATM    1  C   UNL     1      30.996  43.362  55.929  1.00  0.00     0.068 C 
HETATM    2  C   UNL     1      29.875  44.045  55.231  1.00  0.00     0.013 A 
HETATM    3  N   UNL     1      29.340  45.218  55.700  1.00  0.00    -0.359 N 
HETATM    4  H   UNL     1      29.648  45.707  56.529  1.00  0.00     0.166 HD
HETATM    5  C   UNL     1      28.311  45.636  54.889  1.00  0.00     0.043 A 
HETATM    6  C   UNL     1      28.193  44.706  53.861  1.00  0.00     0.002 A 
HETATM    7  C   UNL     1      29.188  43.698  54.078  1.00  0.00    -0.022 A 
HETATM    8  C   UNL     1      27.484  46.760  54.988  1.00  0.00     0.033 A 
HETATM    9  C   UNL     1      26.500  46.938  54.007  1.00  0.00     0.039 A 
HETATM   10  C   UNL     1      26.348  46.027  52.964  1.00  0.00     0.077 A 
HETATM   11  C   UNL     1      27.197  44.911  52.885  1.00  0.00     0.051 A 
ENDROOT
BRANCH   7  12
HETATM   12  C   UNL     1      29.431  42.487  53.228  1.00  0.00     0.061 C 
BRANCH  12  13
HETATM   13  C   UNL     1      28.428  41.370  53.525  1.00  0.00     0.127 C 
BRANCH  13  14
HETATM   14  N   UNL     1      27.423  41.228  52.487  1.00  0.00    -0.360 N 
HETATM   15  C   UNL     1      27.657  40.474  51.356  1.00  0.00     0.227 C 
HETATM   16  O   UNL     1      28.749  39.977  51.092  1.00  0.00    -0.273 OA
HETATM   17  H   UNL     1      26.443  41.335  52.751  1.00  0.00     0.162 HD
BRANCH  15  18
HETATM   18  C   UNL     1      26.451  40.321  50.447  1.00  0.00     0.183 C 
BRANCH  18  19
HETATM   19  S   UNL     1      26.447  41.601  49.166  1.00  0.00    -0.098 SA
BRANCH  19  20
HETATM   20  C   UNL     1      25.174  42.665  49.683  1.00  0.00     0.134 A 
HETATM   21  N   UNL     1      24.860  42.911  50.962  1.00  0.00    -0.149 NA
HETATM   22  N   UNL     1      23.848  43.792  50.815  1.00  0.00    -0.196 N 
HETATM   23  H   UNL     1      23.380  44.198  51.622  1.00  0.00     0.213 HD
HETATM   24  N   UNL     1      23.467  44.116  49.568  1.00  0.00    -0.167 NA
HETATM   25  C   UNL     1      24.322  43.391  48.837  1.00  0.00     0.180 A 
ENDBRANCH  19  20
ENDBRANCH  18  19
ENDBRANCH  15  18
ENDBRANCH  13  14
ENDBRANCH  12  13
ENDBRANCH   7  12
BRANCH  10  26
HETATM   26  O   UNL     1      25.425  46.093  51.956  1.00  0.00    -0.270 OA
BRANCH  26  27
HETATM   27  C   UNL     1      25.733  46.871  50.807  1.00  0.00     0.447 C 
HETATM   28 CL   UNL     1      26.665  45.892  49.669  1.00  0.00    -0.014 Cl
HETATM   29  F   UNL     1      24.589  47.294  50.214  1.00  0.00    -0.159 F 
HETATM   30  F   UNL     1      26.452  47.964  51.166  1.00  0.00    -0.159 F 
ENDBRANCH  26  27
ENDBRANCH  10  26
TORSDOF 8
ENDMDL
MODEL 3
REMARK VINA RESULT:      -8.2      3.954      4.825
REMARK  8 active torsions:
REMARK  status: ('A' for Active; 'I' for Inactive)
REMARK    1  A    between atoms: C_7  and  C_8 
REMARK    2  A    between atoms: C_8  and  C_9 
REMARK    3  A    between atoms: C_9  and  N_10 
REMARK       I    between atoms: N_10  and  C_11 
REMARK    4  A    between atoms: C_11  and  C_12 
REMARK    5  A    between atoms: C_12  and  S_13 
REMARK    6  A    between atoms: S_13  and  C_14 
REMARK    7  A    between atoms: C_23  and  O_24 
REMARK    8  A    between atoms: O_24  and  C_25 
ROOT
HETATM    1  C   UNL     1      24.952  43.980  52.269  1.00  0.00     0.068 C 
HETATM    2  C   UNL     1      26.192  44.137  53.074  1.00  0.00     0.013 A 
HETATM    3  N   UNL     1      26.374  45.202  53.919  1.00  0.00    -0.359 N 
HETATM    4  H   UNL     1      25.706  45.947  54.068  1.00  0.00     0.166 HD
HETATM    5  C   UNL     1      27.601  45.126  54.534  1.00  0.00     0.043 A 
HETATM    6  C   UNL     1      28.219  43.967  54.075  1.00  0.00     0.002 A 
HETATM    7  C   UNL     1      27.322  43.339  53.150  1.00  0.00    -0.022 A 
HETATM    8  C   UNL     1      28.204  45.989  55.455  1.00  0.00     0.033 A 
HETATM    9  C   UNL     1      29.484  45.660  55.919  1.00  0.00     0.039 A 
HETATM   10  C   UNL     1      30.137  44.509  55.481  1.00  0.00     0.077 A 
HETATM   11  C   UNL     1      29.505  43.657  54.562  1.00  0.00     0.051 A 
ENDROOT
BRANCH   7  12
HETATM   12  C   UNL     1      27.566  42.067  52.395  1.00  0.00     0.061 C 
BRANCH  12  13
HETATM   13  C   UNL     1      28.044  42.334  50.966  1.00  0.00     0.127 C 
BRANCH  13  14
HETATM   14  N   UNL     1      28.368  41.115  50.246  1.00  0.00    -0.360 N 
HETATM   15  C   UNL     1      28.089  40.976  48.903  1.00  0.00     0.227 C 
HETATM   16  O   UNL     1      27.451  41.805  48.259  1.00  0.00    -0.273 OA
HETATM   17  H   UNL     1      29.133  40.539  50.600  1.00  0.00     0.162 HD
BRANCH  15  18
HETATM   18  C   UNL     1      28.621  39.697  48.283  1.00  0.00     0.183 C 
BRANCH  18  19
HETATM   19  S   UNL     1      27.487  38.318  48.587  1.00  0.00    -0.098 SA
BRANCH  19  20
HETATM   20  C   UNL     1      28.320  37.388  49.795  1.00  0.00     0.134 A 
HETATM   21  N   UNL     1      27.828  36.289  50.382  1.00  0.00    -0.149 NA
HETATM   22  N   UNL     1      28.849  35.954  51.200  1.00  0.00    -0.196 N 
HETATM   23  H   UNL     1      28.799  35.131  51.797  1.00  0.00     0.213 HD
HETATM   24  N   UNL     1      29.936  36.743  51.211  1.00  0.00    -0.167 NA
HETATM   25  C   UNL     1      29.597  37.668  50.306  1.00  0.00     0.180 A 
ENDBRANCH  19  20
ENDBRANCH  18  19
ENDBRANCH  15  18
ENDBRANCH  13  14
ENDBRANCH  12  13
ENDBRANCH   7  12
BRANCH  10  26
HETATM   26  O   UNL     1      31.383  44.090  55.860  1.00  0.00    -0.270 OA
BRANCH  26  27
HETATM   27  C   UNL     1      31.533  43.478  57.134  1.00  0.00     0.447 C 
HETATM   28 CL   UNL     1      31.344  44.698  58.397  1.00  0.00    -0.014 Cl
HETATM   29  F   UNL     1      30.600  42.507  57.295  1.00  0.00    -0.159 F 
HETATM   30  F   UNL     1      32.759  42.905  57.231  1.00  0.00    -0.159 F 
ENDBRANCH  26  27
ENDBRANCH  10  26
TORSDOF 8
ENDMDL
MODEL 4
REMARK VINA RESULT:      -8.2      5.909      8.809
REMARK  8 active torsions:
REMARK  status: ('A' for Active; 'I' for Inactive)
REMARK    1  A    between atoms: C_7  and  C_8 
REMARK    2  A    between atoms: C_8  and  C_9 
REMARK    3  A    between atoms: C_9  and  N_10 
REMARK       I    between atoms: N_10  and  C_11 
REMARK    4  A    between atoms: C_11  and  C_12 
REMARK    5  A    between atoms: C_12  and  S_13 
REMARK    6  A    between atoms: S_13  and  C_14 
REMARK    7  A    between atoms: C_23  and  O_24 
REMARK    8  A    between atoms: O_24  and  C_25 
ROOT
HETATM    1  C   UNL     1      25.711  43.128  51.686  1.00  0.00     0.068 C 
HETATM    2  C   UNL     1      26.765  43.594  52.626  1.00  0.00     0.013 A 
HETATM    3  N   UNL     1      27.867  42.829  52.912  1.00  0.00    -0.359 N 
HETATM    4  H   UNL     1      28.058  41.916  52.522  1.00  0.00     0.166 HD
HETATM    5  C   UNL     1      28.679  43.472  53.815  1.00  0.00     0.043 A 
HETATM    6  C   UNL     1      28.082  44.695  54.107  1.00  0.00     0.002 A 
HETATM    7  C   UNL     1      26.868  44.771  53.350  1.00  0.00    -0.022 A 
HETATM    8  C   UNL     1      29.889  43.067  54.389  1.00  0.00     0.033 A 
HETATM    9  C   UNL     1      30.507  43.937  55.297  1.00  0.00     0.039 A 
HETATM   10  C   UNL     1      29.938  45.169  55.618  1.00  0.00     0.077 A 
HETATM   11  C   UNL     1      28.727  45.552  55.021  1.00  0.00     0.051 A 
ENDROOT
BRANCH   7  12
HETATM   12  C   UNL     1      25.886  45.904  53.352  1.00  0.00     0.061 C 
BRANCH  12  13
HETATM   13  C   UNL     1      26.078  46.828  52.148  1.00  0.00     0.127 C 
BRANCH  13  14
HETATM   14  N   UNL     1      24.916  46.868  51.279  1.00  0.00    -0.360 N 
HETATM   15  C   UNL     1      24.891  47.651  50.144  1.00  0.00     0.227 C 
HETATM   16  O   UNL     1      25.782  48.448  49.856  1.00  0.00    -0.273 OA
HETATM   17  H   UNL     1      24.299  46.055  51.267  1.00  0.00     0.162 HD
BRANCH  15  18
HETATM   18  C   UNL     1      23.657  47.463  49.282  1.00  0.00     0.183 C 
BRANCH  18  19
HETATM   19  S   UNL     1      23.306  48.963  48.328  1.00  0.00    -0.098 SA
BRANCH  19  20
HETATM   20  C   UNL     1      22.154  49.798  49.325  1.00  0.00     0.134 A 
HETATM   21  N   UNL     1      22.475  50.628  50.327  1.00  0.00    -0.149 NA
HETATM   22  N   UNL     1      21.251  51.011  50.747  1.00  0.00    -0.196 N 
HETATM   23  H   UNL     1      21.138  51.671  51.514  1.00  0.00     0.213 HD
HETATM   24  N   UNL     1      20.178  50.491  50.129  1.00  0.00    -0.167 NA
HETATM   25  C   UNL     1      20.758  49.709  49.211  1.00  0.00     0.180 A 
ENDBRANCH  19  20
ENDBRANCH  18  19
ENDBRANCH  15  18
ENDBRANCH  13  14
ENDBRANCH  12  13
ENDBRANCH   7  12
BRANCH  10  26
HETATM   26  O   UNL     1      30.445  46.094  56.488  1.00  0.00    -0.270 OA
BRANCH  26  27
HETATM   27  C   UNL     1      30.341  45.840  57.883  1.00  0.00     0.447 C 
HETATM   28 CL   UNL     1      31.131  44.306  58.260  1.00  0.00    -0.014 Cl
HETATM   29  F   UNL     1      30.932  46.841  58.582  1.00  0.00    -0.159 F 
HETATM   30  F   UNL     1      29.035  45.784  58.247  1.00  0.00    -0.159 F 
ENDBRANCH  26  27
ENDBRANCH  10  26
TORSDOF 8
ENDMDL
MODEL 5
REMARK VINA RESULT:      -8.2      2.202      2.717
REMARK  8 active torsions:
REMARK  status: ('A' for Active; 'I' for Inactive)
REMARK    1  A    between atoms: C_7  and  C_8 
REMARK    2  A    between atoms: C_8  and  C_9 
REMARK    3  A    between atoms: C_9  and  N_10 
REMARK       I    between atoms: N_10  and  C_11 
REMARK    4  A    between atoms: C_11  and  C_12 
REMARK    5  A    between atoms: C_12  and  S_13 
REMARK    6  A    between atoms: S_13  and  C_14 
REMARK    7  A    between atoms: C_23  and  O_24 
REMARK    8  A    between atoms: O_24  and  C_25 
ROOT
HETATM    1  C   UNL     1      31.255  43.718  56.363  1.00  0.00     0.068 C 
HETATM    2  C   UNL     1      30.109  44.396  55.701  1.00  0.00     0.013 A 
HETATM    3  N   UNL     1      29.791  45.703  55.969  1.00  0.00    -0.359 N 
HETATM    4  H   UNL     1      30.290  46.302  56.613  1.00  0.00     0.166 HD
HETATM    5  C   UNL     1      28.688  46.089  55.245  1.00  0.00     0.043 A 
HETATM    6  C   UNL     1      28.296  44.995  54.480  1.00  0.00     0.002 A 
HETATM    7  C   UNL     1      29.200  43.922  54.768  1.00  0.00    -0.022 A 
HETATM    8  C   UNL     1      28.016  47.315  55.210  1.00  0.00     0.033 A 
HETATM    9  C   UNL     1      26.901  47.426  54.369  1.00  0.00     0.039 A 
HETATM   10  C   UNL     1      26.474  46.353  53.589  1.00  0.00     0.077 A 
HETATM   11  C   UNL     1      27.173  45.136  53.639  1.00  0.00     0.051 A 
ENDROOT
BRANCH   7  12
HETATM   12  C   UNL     1      29.162  42.542  54.185  1.00  0.00     0.061 C 
BRANCH  12  13
HETATM   13  C   UNL     1      29.582  42.532  52.713  1.00  0.00     0.127 C 
BRANCH  13  14
HETATM   14  N   UNL     1      29.162  41.329  52.018  1.00  0.00    -0.360 N 
HETATM   15  C   UNL     1      27.981  41.284  51.306  1.00  0.00     0.227 C 
HETATM   16  O   UNL     1      27.158  42.196  51.308  1.00  0.00    -0.273 OA
HETATM   17  H   UNL     1      29.884  40.672  51.718  1.00  0.00     0.162 HD
BRANCH  15  18
HETATM   18  C   UNL     1      27.769  39.998  50.529  1.00  0.00     0.183 C 
BRANCH  18  19
HETATM   19  S   UNL     1      26.280  40.106  49.505  1.00  0.00    -0.098 SA
BRANCH  19  20
HETATM   20  C   UNL     1      26.900  40.630  47.969  1.00  0.00     0.134 A 
HETATM   21  N   UNL     1      26.143  40.948  46.911  1.00  0.00    -0.149 NA
HETATM   22  N   UNL     1      27.088  41.296  46.012  1.00  0.00    -0.196 N 
HETATM   23  H   UNL     1      26.837  41.612  45.077  1.00  0.00     0.213 HD
HETATM   24  N   UNL     1      28.376  41.210  46.382  1.00  0.00    -0.167 NA
HETATM   25  C   UNL     1      28.257  40.781  47.644  1.00  0.00     0.180 A 
ENDBRANCH  19  20
ENDBRANCH  18  19
ENDBRANCH  15  18
ENDBRANCH  13  14
ENDBRANCH  12  13
ENDBRANCH   7  12
BRANCH  10  26
HETATM   26  O   UNL     1      25.403  46.343  52.739  1.00  0.00    -0.270 OA
BRANCH  26  27
HETATM   27  C   UNL     1      25.589  46.816  51.411  1.00  0.00     0.447 C 
HETATM   28 CL   UNL     1      26.015  45.461  50.361  1.00  0.00    -0.014 Cl
HETATM   29  F   UNL     1      24.449  47.398  50.963  1.00  0.00    -0.159 F 
HETATM   30  F   UNL     1      26.577  47.745  51.384  1.00  0.00    -0.159 F 
ENDBRANCH  26  27
ENDBRANCH  10  26
TORSDOF 8
ENDMDL
MODEL 6
REMARK VINA RESULT:      -8.2      4.989      7.746
REMARK  8 active torsions:
REMARK  status: ('A' for Active; 'I' for Inactive)
REMARK    1  A    between atoms: C_7  and  C_8 
REMARK    2  A    between atoms: C_8  and  C_9 
REMARK    3  A    between atoms: C_9  and  N_10 
REMARK       I    between atoms: N_10  and  C_11 
REMARK    4  A    between atoms: C_11  and  C_12 
REMARK    5  A    between atoms: C_12  and  S_13 
REMARK    6  A    between atoms: S_13  and  C_14 
REMARK    7  A    between atoms: C_23  and  O_24 
REMARK    8  A    between atoms: O_24  and  C_25 
ROOT
HETATM    1  C   UNL     1      27.869  48.793  49.079  1.00  0.00     0.068 C 
HETATM    2  C   UNL     1      26.394  48.940  48.968  1.00  0.00     0.013 A 
HETATM    3  N   UNL     1      25.821  49.996  48.307  1.00  0.00    -0.359 N 
HETATM    4  H   UNL     1      26.330  50.740  47.849  1.00  0.00     0.166 HD
HETATM    5  C   UNL     1      24.450  49.911  48.358  1.00  0.00     0.043 A 
HETATM    6  C   UNL     1      24.136  48.754  49.066  1.00  0.00     0.002 A 
HETATM    7  C   UNL     1      25.371  48.138  49.450  1.00  0.00    -0.022 A 
HETATM    8  C   UNL     1      23.472  50.763  47.833  1.00  0.00     0.033 A 
HETATM    9  C   UNL     1      22.129  50.426  48.044  1.00  0.00     0.039 A 
HETATM   10  C   UNL     1      21.774  49.279  48.751  1.00  0.00     0.077 A 
HETATM   11  C   UNL     1      22.776  48.437  49.259  1.00  0.00     0.051 A 
ENDROOT
BRANCH   7  12
HETATM   12  C   UNL     1      25.529  46.873  50.239  1.00  0.00     0.061 C 
BRANCH  12  13
HETATM   13  C   UNL     1      25.184  47.074  51.716  1.00  0.00     0.127 C 
BRANCH  13  14
HETATM   14  N   UNL     1      26.267  46.686  52.602  1.00  0.00    -0.360 N 
HETATM   15  C   UNL     1      26.358  47.180  53.887  1.00  0.00     0.227 C 
HETATM   16  O   UNL     1      25.616  48.056  54.326  1.00  0.00    -0.273 OA
HETATM   17  H   UNL     1      26.716  45.783  52.444  1.00  0.00     0.162 HD
BRANCH  15  18
HETATM   18  C   UNL     1      27.469  46.563  54.717  1.00  0.00     0.183 C 
BRANCH  18  19
HETATM   19  S   UNL     1      27.814  44.871  54.169  1.00  0.00    -0.098 SA
BRANCH  19  20
HETATM   20  C   UNL     1      29.243  44.455  55.065  1.00  0.00     0.134 A 
HETATM   21  N   UNL     1      29.941  43.324  54.902  1.00  0.00    -0.149 NA
HETATM   22  N   UNL     1      30.935  43.502  55.798  1.00  0.00    -0.196 N 
HETATM   23  H   UNL     1      31.667  42.806  55.919  1.00  0.00     0.213 HD
HETATM   24  N   UNL     1      30.929  44.625  56.534  1.00  0.00    -0.167 NA
HETATM   25  C   UNL     1      29.840  45.242  56.063  1.00  0.00     0.180 A 
ENDBRANCH  19  20
ENDBRANCH  18  19
ENDBRANCH  15  18
ENDBRANCH  13  14
ENDBRANCH  12  13
ENDBRANCH   7  12
BRANCH  10  26
HETATM   26  O   UNL     1      20.503  48.853  49.020  1.00  0.00    -0.270 OA
BRANCH  26  27
HETATM   27  C   UNL     1      19.695  49.638  49.887  1.00  0.00     0.447 C 
HETATM   28 CL   UNL     1      18.710  48.574  50.895  1.00  0.00    -0.014 Cl
HETATM   29  F   UNL     1      20.479  50.414  50.675  1.00  0.00    -0.159 F 
HETATM   30  F   UNL     1      18.890  50.452  49.158  1.00  0.00    -0.159 F 
ENDBRANCH  26  27
ENDBRANCH  10  26
TORSDOF 8
ENDMDL
MODEL 7
REMARK VINA RESULT:      -8.2      4.842      7.228
REMARK  8 active torsions:
REMARK  status: ('A' for Active; 'I' for Inactive)
REMARK    1  A    between atoms: C_7  and  C_8 
REMARK    2  A    between atoms: C_8  and  C_9 
REMARK    3  A    between atoms: C_9  and  N_10 
REMARK       I    between atoms: N_10  and  C_11 
REMARK    4  A    between atoms: C_11  and  C_12 
REMARK    5  A    between atoms: C_12  and  S_13 
REMARK    6  A    between atoms: S_13  and  C_14 
REMARK    7  A    between atoms: C_23  and  O_24 
REMARK    8  A    between atoms: O_24  and  C_25 
ROOT
HETATM    1  C   UNL     1      27.045  48.066  56.203  1.00  0.00     0.068 C 
HETATM    2  C   UNL     1      27.661  46.856  55.596  1.00  0.00     0.013 A 
HETATM    3  N   UNL     1      28.745  46.236  56.162  1.00  0.00    -0.359 N 
HETATM    4  H   UNL     1      29.205  46.531  57.012  1.00  0.00     0.166 HD
HETATM    5  C   UNL     1      29.132  45.156  55.405  1.00  0.00     0.043 A 
HETATM    6  C   UNL     1      28.258  45.076  54.325  1.00  0.00     0.002 A 
HETATM    7  C   UNL     1      27.323  46.155  54.449  1.00  0.00    -0.022 A 
HETATM    8  C   UNL     1      30.181  44.250  55.595  1.00  0.00     0.033 A 
HETATM    9  C   UNL     1      30.347  43.232  54.647  1.00  0.00     0.039 A 
HETATM   10  C   UNL     1      29.494  43.121  53.551  1.00  0.00     0.077 A 
HETATM   11  C   UNL     1      28.445  44.039  53.389  1.00  0.00     0.051 A 
ENDROOT
BRANCH   7  12
HETATM   12  C   UNL     1      26.200  46.475  53.508  1.00  0.00     0.061 C 
BRANCH  12  13
HETATM   13  C   UNL     1      25.958  45.346  52.504  1.00  0.00     0.127 C 
BRANCH  13  14
HETATM   14  N   UNL     1      25.557  45.834  51.197  1.00  0.00    -0.360 N 
HETATM   15  C   UNL     1      24.396  45.403  50.591  1.00  0.00     0.227 C 
HETATM   16  O   UNL     1      23.692  44.505  51.047  1.00  0.00    -0.273 OA
HETATM   17  H   UNL     1      25.891  46.754  50.906  1.00  0.00     0.162 HD
BRANCH  15  18
HETATM   18  C   UNL     1      24.062  46.120  49.296  1.00  0.00     0.183 C 
BRANCH  18  19
HETATM   19  S   UNL     1      23.753  47.879  49.598  1.00  0.00    -0.098 SA
BRANCH  19  20
HETATM   20  C   UNL     1      25.194  48.638  48.995  1.00  0.00     0.134 A 
HETATM   21  N   UNL     1      26.435  48.165  49.172  1.00  0.00    -0.149 NA
HETATM   22  N   UNL     1      27.161  49.089  48.509  1.00  0.00    -0.196 N 
HETATM   23  H   UNL     1      28.174  49.015  48.440  1.00  0.00     0.213 HD
HETATM   24  N   UNL     1      26.511  50.120  47.944  1.00  0.00    -0.167 NA
HETATM   25  C   UNL     1      25.242  49.830  48.256  1.00  0.00     0.180 A 
ENDBRANCH  19  20
ENDBRANCH  18  19
ENDBRANCH  15  18
ENDBRANCH  13  14
ENDBRANCH  12  13
ENDBRANCH   7  12
BRANCH  10  26
HETATM   26  O   UNL     1      29.561  42.175  52.564  1.00  0.00    -0.270 OA
BRANCH  26  27
HETATM   27  C   UNL     1      28.679  41.062  52.632  1.00  0.00     0.447 C 
HETATM   28 CL   UNL     1      27.298  41.343  51.567  1.00  0.00    -0.014 Cl
HETATM   29  F   UNL     1      29.327  39.934  52.251  1.00  0.00    -0.159 F 
HETATM   30  F   UNL     1      28.246  40.892  53.907  1.00  0.00    -0.159 F 
ENDBRANCH  26  27
ENDBRANCH  10  26
TORSDOF 8
ENDMDL
MODEL 8
REMARK VINA RESULT:      -8.0      5.330      8.284
REMARK  8 active torsions:
REMARK  status: ('A' for Active; 'I' for Inactive)
REMARK    1  A    between atoms: C_7  and  C_8 
REMARK    2  A    between atoms: C_8  and  C_9 
REMARK    3  A    between atoms: C_9  and  N_10 
REMARK       I    between atoms: N_10  and  C_11 
REMARK    4  A    between atoms: C_11  and  C_12 
REMARK    5  A    between atoms: C_12  and  S_13 
REMARK    6  A    between atoms: S_13  and  C_14 
REMARK    7  A    between atoms: C_23  and  O_24 
REMARK    8  A    between atoms: O_24  and  C_25 
ROOT
HETATM    1  C   UNL     1      26.717  48.096  55.909  1.00  0.00     0.068 C 
HETATM    2  C   UNL     1      27.349  46.887  55.318  1.00  0.00     0.013 A 
HETATM    3  N   UNL     1      28.485  46.333  55.850  1.00  0.00    -0.359 N 
HETATM    4  H   UNL     1      28.976  46.681  56.662  1.00  0.00     0.166 HD
HETATM    5  C   UNL     1      28.876  45.238  55.117  1.00  0.00     0.043 A 
HETATM    6  C   UNL     1      27.952  45.080  54.089  1.00  0.00     0.002 A 
HETATM    7  C   UNL     1      26.982  46.126  54.219  1.00  0.00    -0.022 A 
HETATM    8  C   UNL     1      29.970  44.382  55.287  1.00  0.00     0.033 A 
HETATM    9  C   UNL     1      30.128  43.332  54.373  1.00  0.00     0.039 A 
HETATM   10  C   UNL     1      29.225  43.142  53.328  1.00  0.00     0.077 A 
HETATM   11  C   UNL     1      28.132  44.012  53.186  1.00  0.00     0.051 A 
ENDROOT
BRANCH   7  12
HETATM   12  C   UNL     1      25.800  46.363  53.328  1.00  0.00     0.061 C 
BRANCH  12  13
HETATM   13  C   UNL     1      26.223  46.778  51.917  1.00  0.00     0.127 C 
BRANCH  13  14
HETATM   14  N   UNL     1      25.107  47.227  51.105  1.00  0.00    -0.360 N 
HETATM   15  C   UNL     1      24.932  46.783  49.811  1.00  0.00     0.227 C 
HETATM   16  O   UNL     1      25.755  46.087  49.221  1.00  0.00    -0.273 OA
HETATM   17  H   UNL     1      24.259  47.534  51.584  1.00  0.00     0.162 HD
BRANCH  15  18
HETATM   18  C   UNL     1      23.640  47.244  49.161  1.00  0.00     0.183 C 
BRANCH  18  19
HETATM   19  S   UNL     1      23.760  48.979  48.654  1.00  0.00    -0.098 SA
BRANCH  19  20
HETATM   20  C   UNL     1      22.370  49.701  49.404  1.00  0.00     0.134 A 
HETATM   21  N   UNL     1      22.410  50.765  50.217  1.00  0.00    -0.149 NA
HETATM   22  N   UNL     1      21.100  50.926  50.498  1.00  0.00    -0.196 N 
HETATM   23  H   UNL     1      20.778  51.680  51.100  1.00  0.00     0.213 HD
HETATM   24  N   UNL     1      20.227  50.055  49.965  1.00  0.00    -0.167 NA
HETATM   25  C   UNL     1      21.043  49.265  49.258  1.00  0.00     0.180 A 
ENDBRANCH  19  20
ENDBRANCH  18  19
ENDBRANCH  15  18
ENDBRANCH  13  14
ENDBRANCH  12  13
ENDBRANCH   7  12
BRANCH  10  26
HETATM   26  O   UNL     1      29.279  42.160  52.378  1.00  0.00    -0.270 OA
BRANCH  26  27
HETATM   27  C   UNL     1      28.495  40.989  52.569  1.00  0.00     0.447 C 
HETATM   28 CL   UNL     1      27.082  41.051  51.511  1.00  0.00    -0.014 Cl
HETATM   29  F   UNL     1      29.231  39.887  52.282  1.00  0.00    -0.159 F 
HETATM   30  F   UNL     1      28.096  40.906  53.863  1.00  0.00    -0.159 F 
ENDBRANCH  26  27
ENDBRANCH  10  26
TORSDOF 8
ENDMDL
MODEL 9
REMARK VINA RESULT:      -8.0      5.146      7.713
REMARK  8 active torsions:
REMARK  status: ('A' for Active; 'I' for Inactive)
REMARK    1  A    between atoms: C_7  and  C_8 
REMARK    2  A    between atoms: C_8  and  C_9 
REMARK    3  A    between atoms: C_9  and  N_10 
REMARK       I    between atoms: N_10  and  C_11 
REMARK    4  A    between atoms: C_11  and  C_12 
REMARK    5  A    between atoms: C_12  and  S_13 
REMARK    6  A    between atoms: S_13  and  C_14 
REMARK    7  A    between atoms: C_23  and  O_24 
REMARK    8  A    between atoms: O_24  and  C_25 
ROOT
HETATM    1  C   UNL     1      26.862  41.501  51.925  1.00  0.00     0.068 C 
HETATM    2  C   UNL     1      27.706  42.312  52.842  1.00  0.00     0.013 A 
HETATM    3  N   UNL     1      28.961  41.907  53.216  1.00  0.00    -0.359 N 
HETATM    4  H   UNL     1      29.411  41.054  52.912  1.00  0.00     0.166 HD
HETATM    5  C   UNL     1      29.526  42.819  54.076  1.00  0.00     0.043 A 
HETATM    6  C   UNL     1      28.605  43.847  54.248  1.00  0.00     0.002 A 
HETATM    7  C   UNL     1      27.451  43.526  53.462  1.00  0.00    -0.022 A 
HETATM    8  C   UNL     1      30.774  42.810  54.708  1.00  0.00     0.033 A 
HETATM    9  C   UNL     1      31.089  43.885  55.549  1.00  0.00     0.039 A 
HETATM   10  C   UNL     1      30.193  44.933  55.749  1.00  0.00     0.077 A 
HETATM   11  C   UNL     1      28.950  44.919  55.095  1.00  0.00     0.051 A 
ENDROOT
BRANCH   7  12
HETATM   12  C   UNL     1      26.198  44.340  53.343  1.00  0.00     0.061 C 
BRANCH  12  13
HETATM   13  C   UNL     1      26.488  45.774  52.897  1.00  0.00     0.127 C 
BRANCH  13  14
HETATM   14  N   UNL     1      25.680  46.184  51.763  1.00  0.00    -0.360 N 
HETATM   15  C   UNL     1      25.843  45.612  50.518  1.00  0.00     0.227 C 
HETATM   16  O   UNL     1      26.744  44.820  50.254  1.00  0.00    -0.273 OA
HETATM   17  H   UNL     1      24.757  46.579  51.950  1.00  0.00     0.162 HD
BRANCH  15  18
HETATM   18  C   UNL     1      24.823  46.058  49.487  1.00  0.00     0.183 C 
BRANCH  18  19
HETATM   19  S   UNL     1      24.155  47.688  49.909  1.00  0.00    -0.098 SA
BRANCH  19  20
HETATM   20  C   UNL     1      25.153  48.769  48.985  1.00  0.00     0.134 A 
HETATM   21  N   UNL     1      26.492  48.794  49.029  1.00  0.00    -0.149 NA
HETATM   22  N   UNL     1      26.762  49.770  48.137  1.00  0.00    -0.196 N 
HETATM   23  H   UNL     1      27.720  50.038  47.920  1.00  0.00     0.213 HD
HETATM   24  N   UNL     1      25.727  50.388  47.542  1.00  0.00    -0.167 NA
HETATM   25  C   UNL     1      24.689  49.744  48.087  1.00  0.00     0.180 A 
ENDBRANCH  19  20
ENDBRANCH  18  19
ENDBRANCH  15  18
ENDBRANCH  13  14
ENDBRANCH  12  13
ENDBRANCH   7  12
BRANCH  10  26
HETATM   26  O   UNL     1      30.389  46.028  56.545  1.00  0.00    -0.270 OA
BRANCH  26  27
HETATM   27  C   UNL     1      30.084  45.922  57.929  1.00  0.00     0.447 C 
HETATM   28 CL   UNL     1      28.371  46.272  58.181  1.00  0.00    -0.014 Cl
HETATM   29  F   UNL     1      30.363  44.671  58.371  1.00  0.00    -0.159 F 
HETATM   30  F   UNL     1      30.839  46.799  58.638  1.00  0.00    -0.159 F 
ENDBRANCH  26  27
ENDBRANCH  10  26
TORSDOF 8
ENDMDL
MODEL 10
REMARK VINA RESULT:      -8.0      5.842      8.398
REMARK  8 active torsions:
REMARK  status: ('A' for Active; 'I' for Inactive)
REMARK    1  A    between atoms: C_7  and  C_8 
REMARK    2  A    between atoms: C_8  and  C_9 
REMARK    3  A    between atoms: C_9  and  N_10 
REMARK       I    between atoms: N_10  and  C_11 
REMARK    4  A    between atoms: C_11  and  C_12 
REMARK    5  A    between atoms: C_12  and  S_13 
REMARK    6  A    between atoms: S_13  and  C_14 
REMARK    7  A    between atoms: C_23  and  O_24 
REMARK    8  A    between atoms: O_24  and  C_25 
ROOT
HETATM    1  C   UNL     1      25.090  43.561  51.712  1.00  0.00     0.068 C 
HETATM    2  C   UNL     1      26.371  43.633  52.464  1.00  0.00     0.013 A 
HETATM    3  N   UNL     1      27.377  42.723  52.265  1.00  0.00    -0.359 N 
HETATM    4  H   UNL     1      27.342  41.951  51.612  1.00  0.00     0.166 HD
HETATM    5  C   UNL     1      28.444  42.996  53.086  1.00  0.00     0.043 A 
HETATM    6  C   UNL     1      28.114  44.127  53.827  1.00  0.00     0.002 A 
HETATM    7  C   UNL     1      26.799  44.532  53.429  1.00  0.00    -0.022 A 
HETATM    8  C   UNL     1      29.668  42.333  53.226  1.00  0.00     0.033 A 
HETATM    9  C   UNL     1      30.583  42.838  54.159  1.00  0.00     0.039 A 
HETATM   10  C   UNL     1      30.289  43.966  54.922  1.00  0.00     0.077 A 
HETATM   11  C   UNL     1      29.056  44.616  54.754  1.00  0.00     0.051 A 
ENDROOT
BRANCH   7  12
HETATM   12  C   UNL     1      26.024  45.697  53.965  1.00  0.00     0.061 C 
BRANCH  12  13
HETATM   13  C   UNL     1      26.180  46.940  53.086  1.00  0.00     0.127 C 
BRANCH  13  14
HETATM   14  N   UNL     1      25.155  47.036  52.063  1.00  0.00    -0.360 N 
HETATM   15  C   UNL     1      25.465  46.951  50.722  1.00  0.00     0.227 C 
HETATM   16  O   UNL     1      26.618  46.910  50.299  1.00  0.00    -0.273 OA
HETATM   17  H   UNL     1      24.202  46.769  52.313  1.00  0.00     0.162 HD
BRANCH  15  18
HETATM   18  C   UNL     1      24.259  46.930  49.801  1.00  0.00     0.183 C 
BRANCH  18  19
HETATM   19  S   UNL     1      23.890  48.595  49.190  1.00  0.00    -0.098 SA
BRANCH  19  20
HETATM   20  C   UNL     1      22.311  48.411  48.488  1.00  0.00     0.134 A 
HETATM   21  N   UNL     1      22.049  47.713  47.376  1.00  0.00    -0.149 NA
HETATM   22  N   UNL     1      20.712  47.869  47.282  1.00  0.00    -0.196 N 
HETATM   23  H   UNL     1      20.181  47.438  46.528  1.00  0.00     0.213 HD
HETATM   24  N   UNL     1      20.095  48.617  48.212  1.00  0.00    -0.167 NA
HETATM   25  C   UNL     1      21.124  48.968  48.991  1.00  0.00     0.180 A 
ENDBRANCH  19  20
ENDBRANCH  18  19
ENDBRANCH  15  18
ENDBRANCH  13  14
ENDBRANCH  12  13
ENDBRANCH   7  12
BRANCH  10  26
HETATM   26  O   UNL     1      31.098  44.545  55.860  1.00  0.00    -0.270 OA
BRANCH  26  27
HETATM   27  C   UNL     1      31.343  43.841  57.070  1.00  0.00     0.447 C 
HETATM   28 CL   UNL     1      30.806  44.822  58.438  1.00  0.00    -0.014 Cl
HETATM   29  F   UNL     1      30.673  42.662  57.064  1.00  0.00    -0.159 F 
HETATM   30  F   UNL     1      32.667  43.574  57.191  1.00  0.00    -0.159 F 
ENDBRANCH  26  27
ENDBRANCH  10  26
TORSDOF 8
ENDMDL
