MODEL 1
REMARK VINA RESULT:     -10.2      0.000      0.000
REMARK  6 active torsions:
REMARK  status: ('A' for Active; 'I' for Inactive)
REMARK    1  A    between atoms: C_3  and  C_4 
REMARK    2  A    between atoms: C_5  and  C_6 
REMARK       I    between atoms: C_6  and  N_7 
REMARK    3  A    between atoms: N_7  and  C_8 
REMARK    4  A    between atoms: C_8  and  C_9 
REMARK    5  A    between atoms: C_11  and  O_12 
REMARK    6  A    between atoms: O_12  and  C_13 
ROOT
HETATM    1  C   UNL     1      25.214  46.909  51.128  1.00  0.00     0.161 C 
ENDROOT
BRANCH   1   2
HETATM    2  N   UNL     1      26.257  46.676  52.103  1.00  0.00    -0.353 N 
HETATM    3  C   UNL     1      26.171  47.186  53.370  1.00  0.00     0.241 C 
HETATM    4  O   UNL     1      25.269  47.912  53.762  1.00  0.00    -0.269 OA
HETATM    5  H   UNL     1      27.059  46.132  51.816  1.00  0.00     0.163 HD
BRANCH   3   6
HETATM    6  C   UNL     1      27.295  46.749  54.238  1.00  0.00     0.075 C 
HETATM    7  C   UNL     1      27.744  45.487  54.166  1.00  0.00     0.018 C 
BRANCH   7   8
HETATM    8  C   UNL     1      28.889  44.985  54.947  1.00  0.00    -0.014 A 
HETATM    9  C   UNL     1      29.321  45.690  56.084  1.00  0.00     0.013 A 
HETATM   10  C   UNL     1      30.392  45.226  56.854  1.00  0.00     0.001 A 
HETATM   11  C   UNL     1      31.040  44.044  56.508  1.00  0.00     0.002 A 
HETATM   12  C   UNL     1      30.615  43.321  55.395  1.00  0.00     0.024 A 
HETATM   13  C   UNL     1      29.544  43.784  54.619  1.00  0.00     0.044 A 
HETATM   14 CL   UNL     1      29.093  42.832  53.246  1.00  0.00    -0.083 Cl
ENDBRANCH   7   8
ENDBRANCH   3   6
ENDBRANCH   1   2
BRANCH   1  15
HETATM   15  C   UNL     1      25.647  47.929  50.106  1.00  0.00    -0.038 A 
HETATM   16  C   UNL     1      24.696  48.563  49.292  1.00  0.00     0.046 A 
HETATM   17  C   UNL     1      25.095  49.448  48.288  1.00  0.00     0.078 A 
HETATM   18  C   UNL     1      26.439  49.789  48.156  1.00  0.00     0.037 A 
HETATM   19  C   UNL     1      27.390  49.202  48.992  1.00  0.00     0.003 A 
HETATM   20  C   UNL     1      26.998  48.270  49.956  1.00  0.00     0.009 A 
BRANCH  17  21
HETATM   21  O   UNL     1      24.196  50.075  47.460  1.00  0.00    -0.292 OA
BRANCH  21  22
HETATM   22  C   UNL     1      22.850  50.026  47.815  1.00  0.00     0.169 A 
HETATM   23  N   UNL     1      22.078  48.977  47.441  1.00  0.00    -0.237 NA
HETATM   24  C   UNL     1      20.776  49.025  47.798  1.00  0.00     0.119 A 
HETATM   25  C   UNL     1      20.208  50.071  48.507  1.00  0.00     0.019 A 
HETATM   26  C   UNL     1      21.021  51.141  48.868  1.00  0.00     0.006 A 
HETATM   27  C   UNL     1      22.366  51.126  48.511  1.00  0.00     0.058 A 
ENDBRANCH  21  22
ENDBRANCH  17  21
ENDBRANCH   1  15
TORSDOF 6
ENDMDL
MODEL 2
REMARK VINA RESULT:      -9.8      1.708      2.041
REMARK  6 active torsions:
REMARK  status: ('A' for Active; 'I' for Inactive)
REMARK    1  A    between atoms: C_3  and  C_4 
REMARK    2  A    between atoms: C_5  and  C_6 
REMARK       I    between atoms: C_6  and  N_7 
REMARK    3  A    between atoms: N_7  and  C_8 
REMARK    4  A    between atoms: C_8  and  C_9 
REMARK    5  A    between atoms: C_11  and  O_12 
REMARK    6  A    between atoms: O_12  and  C_13 
ROOT
HETATM    1  C   UNL     1      24.797  46.305  50.634  1.00  0.00     0.161 C 
ENDROOT
BRANCH   1   2
HETATM    2  N   UNL     1      25.596  45.996  51.799  1.00  0.00    -0.353 N 
HETATM    3  C   UNL     1      25.401  44.842  52.509  1.00  0.00     0.241 C 
HETATM    4  O   UNL     1      24.523  44.026  52.270  1.00  0.00    -0.269 OA
HETATM    5  H   UNL     1      26.300  46.665  52.081  1.00  0.00     0.163 HD
BRANCH   3   6
HETATM    6  C   UNL     1      26.389  44.672  53.605  1.00  0.00     0.075 C 
HETATM    7  C   UNL     1      27.701  44.663  53.327  1.00  0.00     0.018 C 
BRANCH   7   8
HETATM    8  C   UNL     1      28.750  44.557  54.358  1.00  0.00    -0.014 A 
HETATM    9  C   UNL     1      29.510  43.379  54.463  1.00  0.00     0.013 A 
HETATM   10  C   UNL     1      30.523  43.259  55.419  1.00  0.00     0.001 A 
HETATM   11  C   UNL     1      30.803  44.319  56.277  1.00  0.00     0.002 A 
HETATM   12  C   UNL     1      30.072  45.502  56.176  1.00  0.00     0.024 A 
HETATM   13  C   UNL     1      29.054  45.625  55.222  1.00  0.00     0.044 A 
HETATM   14 CL   UNL     1      28.188  47.123  55.178  1.00  0.00    -0.083 Cl
ENDBRANCH   7   8
ENDBRANCH   3   6
ENDBRANCH   1   2
BRANCH   1  15
HETATM   15  C   UNL     1      25.347  47.503  49.903  1.00  0.00    -0.038 A 
HETATM   16  C   UNL     1      24.478  48.408  49.273  1.00  0.00     0.046 A 
HETATM   17  C   UNL     1      24.982  49.474  48.526  1.00  0.00     0.078 A 
HETATM   18  C   UNL     1      26.354  49.709  48.487  1.00  0.00     0.037 A 
HETATM   19  C   UNL     1      27.226  48.845  49.150  1.00  0.00     0.003 A 
HETATM   20  C   UNL     1      26.726  47.742  49.848  1.00  0.00     0.009 A 
BRANCH  17  21
HETATM   21  O   UNL     1      24.165  50.371  47.880  1.00  0.00    -0.292 OA
BRANCH  21  22
HETATM   22  C   UNL     1      22.934  50.659  48.465  1.00  0.00     0.169 A 
HETATM   23  N   UNL     1      22.844  50.886  49.798  1.00  0.00    -0.237 NA
HETATM   24  C   UNL     1      21.608  51.124  50.290  1.00  0.00     0.119 A 
HETATM   25  C   UNL     1      20.460  51.145  49.515  1.00  0.00     0.019 A 
HETATM   26  C   UNL     1      20.580  50.898  48.151  1.00  0.00     0.006 A 
HETATM   27  C   UNL     1      21.838  50.643  47.613  1.00  0.00     0.058 A 
ENDBRANCH  21  22
ENDBRANCH  17  21
ENDBRANCH   1  15
TORSDOF 6
ENDMDL
MODEL 3
REMARK VINA RESULT:      -9.6      2.777      4.506
REMARK  6 active torsions:
REMARK  status: ('A' for Active; 'I' for Inactive)
REMARK    1  A    between atoms: C_3  and  C_4 
REMARK    2  A    between atoms: C_5  and  C_6 
REMARK       I    between atoms: C_6  and  N_7 
REMARK    3  A    between atoms: N_7  and  C_8 
REMARK    4  A    between atoms: C_8  and  C_9 
REMARK    5  A    between atoms: C_11  and  O_12 
REMARK    6  A    between atoms: O_12  and  C_13 
ROOT
HETATM    1  C   UNL     1      26.090  42.223  51.056  1.00  0.00     0.161 C 
ENDROOT
BRANCH   1   2
HETATM    2  N   UNL     1      26.659  42.569  52.340  1.00  0.00    -0.353 N 
HETATM    3  C   UNL     1      27.992  42.398  52.597  1.00  0.00     0.241 C 
HETATM    4  O   UNL     1      28.786  41.897  51.814  1.00  0.00    -0.269 OA
HETATM    5  H   UNL     1      26.036  42.934  53.050  1.00  0.00     0.163 HD
BRANCH   3   6
HETATM    6  C   UNL     1      28.385  42.906  53.936  1.00  0.00     0.075 C 
HETATM    7  C   UNL     1      29.640  43.332  54.147  1.00  0.00     0.018 C 
BRANCH   7   8
HETATM    8  C   UNL     1      30.100  43.903  55.426  1.00  0.00    -0.014 A 
HETATM    9  C   UNL     1      31.021  43.194  56.217  1.00  0.00     0.013 A 
HETATM   10  C   UNL     1      31.489  43.721  57.425  1.00  0.00     0.001 A 
HETATM   11  C   UNL     1      31.053  44.971  57.856  1.00  0.00     0.002 A 
HETATM   12  C   UNL     1      30.154  45.698  57.077  1.00  0.00     0.024 A 
HETATM   13  C   UNL     1      29.682  45.172  55.868  1.00  0.00     0.044 A 
HETATM   14 CL   UNL     1      28.556  46.135  54.973  1.00  0.00    -0.083 Cl
ENDBRANCH   7   8
ENDBRANCH   3   6
ENDBRANCH   1   2
BRANCH   1  15
HETATM   15  C   UNL     1      25.304  43.374  50.484  1.00  0.00    -0.038 A 
HETATM   16  C   UNL     1      25.502  44.676  50.969  1.00  0.00     0.046 A 
HETATM   17  C   UNL     1      24.721  45.736  50.502  1.00  0.00     0.078 A 
HETATM   18  C   UNL     1      23.808  45.525  49.473  1.00  0.00     0.037 A 
HETATM   19  C   UNL     1      23.635  44.243  48.948  1.00  0.00     0.003 A 
HETATM   20  C   UNL     1      24.373  43.171  49.457  1.00  0.00     0.009 A 
BRANCH  17  21
HETATM   21  O   UNL     1      24.873  47.021  50.964  1.00  0.00    -0.292 OA
BRANCH  21  22
HETATM   22  C   UNL     1      25.374  47.970  50.075  1.00  0.00     0.169 A 
HETATM   23  N   UNL     1      24.537  48.824  49.439  1.00  0.00    -0.237 NA
HETATM   24  C   UNL     1      25.102  49.689  48.568  1.00  0.00     0.119 A 
HETATM   25  C   UNL     1      26.461  49.742  48.303  1.00  0.00     0.019 A 
HETATM   26  C   UNL     1      27.296  48.846  48.963  1.00  0.00     0.006 A 
HETATM   27  C   UNL     1      26.746  47.937  49.861  1.00  0.00     0.058 A 
ENDBRANCH  21  22
ENDBRANCH  17  21
ENDBRANCH   1  15
TORSDOF 6
ENDMDL
MODEL 4
REMARK VINA RESULT:      -9.2      1.732      2.530
REMARK  6 active torsions:
REMARK  status: ('A' for Active; 'I' for Inactive)
REMARK    1  A    between atoms: C_3  and  C_4 
REMARK    2  A    between atoms: C_5  and  C_6 
REMARK       I    between atoms: C_6  and  N_7 
REMARK    3  A    between atoms: N_7  and  C_8 
REMARK    4  A    between atoms: C_8  and  C_9 
REMARK    5  A    between atoms: C_11  and  O_12 
REMARK    6  A    between atoms: O_12  and  C_13 
ROOT
HETATM    1  C   UNL     1      25.720  47.472  52.411  1.00  0.00     0.161 C 
ENDROOT
BRANCH   1   2
HETATM    2  N   UNL     1      26.598  46.671  53.236  1.00  0.00    -0.353 N 
HETATM    3  C   UNL     1      26.669  46.860  54.590  1.00  0.00     0.241 C 
HETATM    4  O   UNL     1      26.065  47.732  55.197  1.00  0.00    -0.269 OA
HETATM    5  H   UNL     1      27.168  45.972  52.779  1.00  0.00     0.163 HD
BRANCH   3   6
HETATM    6  C   UNL     1      27.554  45.872  55.258  1.00  0.00     0.075 C 
HETATM    7  C   UNL     1      28.873  46.105  55.340  1.00  0.00     0.018 C 
BRANCH   7   8
HETATM    8  C   UNL     1      29.815  45.208  56.034  1.00  0.00    -0.014 A 
HETATM    9  C   UNL     1      30.245  45.519  57.336  1.00  0.00     0.013 A 
HETATM   10  C   UNL     1      31.123  44.675  58.025  1.00  0.00     0.001 A 
HETATM   11  C   UNL     1      31.576  43.502  57.428  1.00  0.00     0.002 A 
HETATM   12  C   UNL     1      31.147  43.168  56.145  1.00  0.00     0.024 A 
HETATM   13  C   UNL     1      30.270  44.011  55.451  1.00  0.00     0.044 A 
HETATM   14 CL   UNL     1      29.802  43.526  53.857  1.00  0.00    -0.083 Cl
ENDBRANCH   7   8
ENDBRANCH   3   6
ENDBRANCH   1   2
BRANCH   1  15
HETATM   15  C   UNL     1      24.981  46.614  51.417  1.00  0.00    -0.038 A 
HETATM   16  C   UNL     1      24.397  47.193  50.279  1.00  0.00     0.046 A 
HETATM   17  C   UNL     1      23.642  46.420  49.395  1.00  0.00     0.078 A 
HETATM   18  C   UNL     1      23.551  45.042  49.581  1.00  0.00     0.037 A 
HETATM   19  C   UNL     1      24.168  44.447  50.681  1.00  0.00     0.003 A 
HETATM   20  C   UNL     1      24.872  45.229  51.600  1.00  0.00     0.009 A 
BRANCH  17  21
HETATM   21  O   UNL     1      23.040  46.952  48.280  1.00  0.00    -0.292 OA
BRANCH  21  22
HETATM   22  C   UNL     1      22.681  48.297  48.322  1.00  0.00     0.169 A 
HETATM   23  N   UNL     1      23.464  49.235  47.737  1.00  0.00    -0.237 NA
HETATM   24  C   UNL     1      23.061  50.520  47.853  1.00  0.00     0.119 A 
HETATM   25  C   UNL     1      21.915  50.912  48.527  1.00  0.00     0.019 A 
HETATM   26  C   UNL     1      21.136  49.928  49.128  1.00  0.00     0.006 A 
HETATM   27  C   UNL     1      21.526  48.596  49.032  1.00  0.00     0.058 A 
ENDBRANCH  21  22
ENDBRANCH  17  21
ENDBRANCH   1  15
TORSDOF 6
ENDMDL
MODEL 5
REMARK VINA RESULT:      -9.1      4.169      8.663
REMARK  6 active torsions:
REMARK  status: ('A' for Active; 'I' for Inactive)
REMARK    1  A    between atoms: C_3  and  C_4 
REMARK    2  A    between atoms: C_5  and  C_6 
REMARK       I    between atoms: C_6  and  N_7 
REMARK    3  A    between atoms: N_7  and  C_8 
REMARK    4  A    between atoms: C_8  and  C_9 
REMARK    5  A    between atoms: C_11  and  O_12 
REMARK    6  A    between atoms: O_12  and  C_13 
ROOT
HETATM    1  C   UNL     1      28.409  46.634  56.524  1.00  0.00     0.161 C 
ENDROOT
BRANCH   1   2
HETATM    2  N   UNL     1      27.472  46.503  55.430  1.00  0.00    -0.353 N 
HETATM    3  C   UNL     1      26.693  47.556  55.032  1.00  0.00     0.241 C 
HETATM    4  O   UNL     1      26.674  48.647  55.584  1.00  0.00    -0.269 OA
HETATM    5  H   UNL     1      27.401  45.603  54.973  1.00  0.00     0.163 HD
BRANCH   3   6
HETATM    6  C   UNL     1      25.874  47.239  53.834  1.00  0.00     0.075 C 
HETATM    7  C   UNL     1      26.300  46.315  52.959  1.00  0.00     0.018 C 
BRANCH   7   8
HETATM    8  C   UNL     1      25.525  45.898  51.776  1.00  0.00    -0.014 A 
HETATM    9  C   UNL     1      24.679  44.777  51.854  1.00  0.00     0.013 A 
HETATM   10  C   UNL     1      23.919  44.372  50.752  1.00  0.00     0.001 A 
HETATM   11  C   UNL     1      23.981  45.087  49.559  1.00  0.00     0.002 A 
HETATM   12  C   UNL     1      24.801  46.211  49.468  1.00  0.00     0.024 A 
HETATM   13  C   UNL     1      25.566  46.618  50.568  1.00  0.00     0.044 A 
HETATM   14 CL   UNL     1      26.566  48.015  50.361  1.00  0.00    -0.083 Cl
ENDBRANCH   7   8
ENDBRANCH   3   6
ENDBRANCH   1   2
BRANCH   1  15
HETATM   15  C   UNL     1      29.442  45.537  56.484  1.00  0.00    -0.038 A 
HETATM   16  C   UNL     1      29.589  44.744  55.336  1.00  0.00     0.046 A 
HETATM   17  C   UNL     1      30.486  43.675  55.319  1.00  0.00     0.078 A 
HETATM   18  C   UNL     1      31.322  43.452  56.411  1.00  0.00     0.037 A 
HETATM   19  C   UNL     1      31.220  44.264  57.542  1.00  0.00     0.003 A 
HETATM   20  C   UNL     1      30.279  45.296  57.582  1.00  0.00     0.009 A 
BRANCH  17  21
HETATM   21  O   UNL     1      30.646  42.864  54.221  1.00  0.00    -0.292 OA
BRANCH  21  22
HETATM   22  C   UNL     1      29.516  42.583  53.458  1.00  0.00     0.169 A 
HETATM   23  N   UNL     1      28.808  41.448  53.672  1.00  0.00    -0.237 NA
HETATM   24  C   UNL     1      27.745  41.235  52.865  1.00  0.00     0.119 A 
HETATM   25  C   UNL     1      27.357  42.100  51.855  1.00  0.00     0.019 A 
HETATM   26  C   UNL     1      28.108  43.253  51.650  1.00  0.00     0.006 A 
HETATM   27  C   UNL     1      29.213  43.499  52.460  1.00  0.00     0.058 A 
ENDBRANCH  21  22
ENDBRANCH  17  21
ENDBRANCH   1  15
TORSDOF 6
ENDMDL
MODEL 6
REMARK VINA RESULT:      -9.0      1.851      2.230
REMARK  6 active torsions:
REMARK  status: ('A' for Active; 'I' for Inactive)
REMARK    1  A    between atoms: C_3  and  C_4 
REMARK    2  A    between atoms: C_5  and  C_6 
REMARK       I    between atoms: C_6  and  N_7 
REMARK    3  A    between atoms: N_7  and  C_8 
REMARK    4  A    between atoms: C_8  and  C_9 
REMARK    5  A    between atoms: C_11  and  O_12 
REMARK    6  A    between atoms: O_12  and  C_13 
ROOT
HETATM    1  C   UNL     1      24.237  45.567  50.146  1.00  0.00     0.161 C 
ENDROOT
BRANCH   1   2
HETATM    2  N   UNL     1      25.087  45.574  51.316  1.00  0.00    -0.353 N 
HETATM    3  C   UNL     1      25.109  44.517  52.185  1.00  0.00     0.241 C 
HETATM    4  O   UNL     1      24.392  43.531  52.089  1.00  0.00    -0.269 OA
HETATM    5  H   UNL     1      25.660  46.392  51.480  1.00  0.00     0.163 HD
BRANCH   3   6
HETATM    6  C   UNL     1      26.118  44.684  53.262  1.00  0.00     0.075 C 
HETATM    7  C   UNL     1      27.373  44.247  53.076  1.00  0.00     0.018 C 
BRANCH   7   8
HETATM    8  C   UNL     1      28.450  44.423  54.067  1.00  0.00    -0.014 A 
HETATM    9  C   UNL     1      28.422  45.523  54.942  1.00  0.00     0.013 A 
HETATM   10  C   UNL     1      29.421  45.703  55.904  1.00  0.00     0.001 A 
HETATM   11  C   UNL     1      30.457  44.780  56.016  1.00  0.00     0.002 A 
HETATM   12  C   UNL     1      30.492  43.673  55.169  1.00  0.00     0.024 A 
HETATM   13  C   UNL     1      29.496  43.491  54.203  1.00  0.00     0.044 A 
HETATM   14 CL   UNL     1      29.627  42.097  53.185  1.00  0.00    -0.083 Cl
ENDBRANCH   7   8
ENDBRANCH   3   6
ENDBRANCH   1   2
BRANCH   1  15
HETATM   15  C   UNL     1      24.106  46.951  49.564  1.00  0.00    -0.038 A 
HETATM   16  C   UNL     1      22.896  47.363  48.984  1.00  0.00     0.046 A 
HETATM   17  C   UNL     1      22.791  48.613  48.370  1.00  0.00     0.078 A 
HETATM   18  C   UNL     1      23.859  49.505  48.423  1.00  0.00     0.037 A 
HETATM   19  C   UNL     1      25.052  49.126  49.040  1.00  0.00     0.003 A 
HETATM   20  C   UNL     1      25.179  47.853  49.600  1.00  0.00     0.009 A 
BRANCH  17  21
HETATM   21  O   UNL     1      21.630  49.046  47.776  1.00  0.00    -0.292 OA
BRANCH  21  22
HETATM   22  C   UNL     1      20.799  49.882  48.519  1.00  0.00     0.169 A 
HETATM   23  N   UNL     1      20.251  49.450  49.680  1.00  0.00    -0.237 NA
HETATM   24  C   UNL     1      19.430  50.311  50.320  1.00  0.00     0.119 A 
HETATM   25  C   UNL     1      19.131  51.582  49.856  1.00  0.00     0.019 A 
HETATM   26  C   UNL     1      19.700  51.996  48.656  1.00  0.00     0.006 A 
HETATM   27  C   UNL     1      20.544  51.131  47.968  1.00  0.00     0.058 A 
ENDBRANCH  21  22
ENDBRANCH  17  21
ENDBRANCH   1  15
TORSDOF 6
ENDMDL
MODEL 7
REMARK VINA RESULT:      -9.0      2.963     10.053
REMARK  6 active torsions:
REMARK  status: ('A' for Active; 'I' for Inactive)
REMARK    1  A    between atoms: C_3  and  C_4 
REMARK    2  A    between atoms: C_5  and  C_6 
REMARK       I    between atoms: C_6  and  N_7 
REMARK    3  A    between atoms: N_7  and  C_8 
REMARK    4  A    between atoms: C_8  and  C_9 
REMARK    5  A    between atoms: C_11  and  O_12 
REMARK    6  A    between atoms: O_12  and  C_13 
ROOT
HETATM    1  C   UNL     1      25.879  48.278  49.473  1.00  0.00     0.161 C 
ENDROOT
BRANCH   1   2
HETATM    2  N   UNL     1      24.705  49.072  49.187  1.00  0.00    -0.353 N 
HETATM    3  C   UNL     1      24.671  49.934  48.124  1.00  0.00     0.241 C 
HETATM    4  O   UNL     1      25.618  50.151  47.382  1.00  0.00    -0.269 OA
HETATM    5  H   UNL     1      23.909  48.979  49.804  1.00  0.00     0.163 HD
BRANCH   3   6
HETATM    6  C   UNL     1      23.343  50.576  47.952  1.00  0.00     0.075 C 
HETATM    7  C   UNL     1      22.224  49.856  48.131  1.00  0.00     0.018 C 
BRANCH   7   8
HETATM    8  C   UNL     1      20.868  50.426  48.036  1.00  0.00    -0.014 A 
HETATM    9  C   UNL     1      20.616  51.718  48.531  1.00  0.00     0.013 A 
HETATM   10  C   UNL     1      19.343  52.289  48.436  1.00  0.00     0.001 A 
HETATM   11  C   UNL     1      18.304  51.584  47.836  1.00  0.00     0.002 A 
HETATM   12  C   UNL     1      18.538  50.309  47.323  1.00  0.00     0.024 A 
HETATM   13  C   UNL     1      19.811  49.732  47.418  1.00  0.00     0.044 A 
HETATM   14 CL   UNL     1      20.007  48.140  46.770  1.00  0.00    -0.083 Cl
ENDBRANCH   7   8
ENDBRANCH   3   6
ENDBRANCH   1   2
BRANCH   1  15
HETATM   15  C   UNL     1      25.530  47.082  50.321  1.00  0.00    -0.038 A 
HETATM   16  C   UNL     1      26.174  46.875  51.551  1.00  0.00     0.046 A 
HETATM   17  C   UNL     1      25.916  45.728  52.304  1.00  0.00     0.078 A 
HETATM   18  C   UNL     1      24.936  44.829  51.888  1.00  0.00     0.037 A 
HETATM   19  C   UNL     1      24.254  45.048  50.691  1.00  0.00     0.003 A 
HETATM   20  C   UNL     1      24.556  46.165  49.906  1.00  0.00     0.009 A 
BRANCH  17  21
HETATM   21  O   UNL     1      26.537  45.480  53.504  1.00  0.00    -0.292 OA
BRANCH  21  22
HETATM   22  C   UNL     1      27.681  44.685  53.485  1.00  0.00     0.169 A 
HETATM   23  N   UNL     1      27.997  43.963  52.383  1.00  0.00    -0.237 NA
HETATM   24  C   UNL     1      29.103  43.192  52.461  1.00  0.00     0.119 A 
HETATM   25  C   UNL     1      29.909  43.107  53.586  1.00  0.00     0.019 A 
HETATM   26  C   UNL     1      29.555  43.852  54.707  1.00  0.00     0.006 A 
HETATM   27  C   UNL     1      28.416  44.651  54.662  1.00  0.00     0.058 A 
ENDBRANCH  21  22
ENDBRANCH  17  21
ENDBRANCH   1  15
TORSDOF 6
ENDMDL
MODEL 8
REMARK VINA RESULT:      -8.8      3.622      6.112
REMARK  6 active torsions:
REMARK  status: ('A' for Active; 'I' for Inactive)
REMARK    1  A    between atoms: C_3  and  C_4 
REMARK    2  A    between atoms: C_5  and  C_6 
REMARK       I    between atoms: C_6  and  N_7 
REMARK    3  A    between atoms: N_7  and  C_8 
REMARK    4  A    between atoms: C_8  and  C_9 
REMARK    5  A    between atoms: C_11  and  O_12 
REMARK    6  A    between atoms: O_12  and  C_13 
ROOT
HETATM    1  C   UNL     1      25.864  47.181  51.974  1.00  0.00     0.161 C 
ENDROOT
BRANCH   1   2
HETATM    2  N   UNL     1      26.723  46.676  53.022  1.00  0.00    -0.353 N 
HETATM    3  C   UNL     1      26.556  47.060  54.325  1.00  0.00     0.241 C 
HETATM    4  O   UNL     1      25.735  47.884  54.701  1.00  0.00    -0.269 OA
HETATM    5  H   UNL     1      27.460  46.035  52.760  1.00  0.00     0.163 HD
BRANCH   3   6
HETATM    6  C   UNL     1      27.476  46.351  55.251  1.00  0.00     0.075 C 
HETATM    7  C   UNL     1      28.553  45.715  54.766  1.00  0.00     0.018 C 
BRANCH   7   8
HETATM    8  C   UNL     1      29.548  45.037  55.617  1.00  0.00    -0.014 A 
HETATM    9  C   UNL     1      29.868  45.569  56.878  1.00  0.00     0.013 A 
HETATM   10  C   UNL     1      30.794  44.935  57.713  1.00  0.00     0.001 A 
HETATM   11  C   UNL     1      31.405  43.752  57.307  1.00  0.00     0.002 A 
HETATM   12  C   UNL     1      31.087  43.199  56.067  1.00  0.00     0.024 A 
HETATM   13  C   UNL     1      30.163  43.832  55.227  1.00  0.00     0.044 A 
HETATM   14 CL   UNL     1      29.840  43.084  53.700  1.00  0.00    -0.083 Cl
ENDBRANCH   7   8
ENDBRANCH   3   6
ENDBRANCH   1   2
BRANCH   1  15
HETATM   15  C   UNL     1      25.176  46.055  51.247  1.00  0.00    -0.038 A 
HETATM   16  C   UNL     1      25.409  44.723  51.625  1.00  0.00     0.046 A 
HETATM   17  C   UNL     1      24.839  43.670  50.906  1.00  0.00     0.078 A 
HETATM   18  C   UNL     1      23.948  43.937  49.870  1.00  0.00     0.037 A 
HETATM   19  C   UNL     1      23.670  45.258  49.515  1.00  0.00     0.003 A 
HETATM   20  C   UNL     1      24.287  46.312  50.195  1.00  0.00     0.009 A 
BRANCH  17  21
HETATM   21  O   UNL     1      25.057  42.353  51.233  1.00  0.00    -0.292 OA
BRANCH  21  22
HETATM   22  C   UNL     1      26.180  41.731  50.692  1.00  0.00     0.169 A 
HETATM   23  N   UNL     1      26.276  41.531  49.355  1.00  0.00    -0.237 NA
HETATM   24  C   UNL     1      27.382  40.891  48.916  1.00  0.00     0.119 A 
HETATM   25  C   UNL     1      28.395  40.441  49.748  1.00  0.00     0.019 A 
HETATM   26  C   UNL     1      28.265  40.651  51.118  1.00  0.00     0.006 A 
HETATM   27  C   UNL     1      27.134  41.301  51.603  1.00  0.00     0.058 A 
ENDBRANCH  21  22
ENDBRANCH  17  21
ENDBRANCH   1  15
TORSDOF 6
ENDMDL
MODEL 9
REMARK VINA RESULT:      -8.6      3.180      9.932
REMARK  6 active torsions:
REMARK  status: ('A' for Active; 'I' for Inactive)
REMARK    1  A    between atoms: C_3  and  C_4 
REMARK    2  A    between atoms: C_5  and  C_6 
REMARK       I    between atoms: C_6  and  N_7 
REMARK    3  A    between atoms: N_7  and  C_8 
REMARK    4  A    between atoms: C_8  and  C_9 
REMARK    5  A    between atoms: C_11  and  O_12 
REMARK    6  A    between atoms: O_12  and  C_13 
ROOT
HETATM    1  C   UNL     1      25.007  48.114  49.499  1.00  0.00     0.161 C 
ENDROOT
BRANCH   1   2
HETATM    2  N   UNL     1      23.910  49.056  49.524  1.00  0.00    -0.353 N 
HETATM    3  C   UNL     1      23.674  49.900  48.472  1.00  0.00     0.241 C 
HETATM    4  O   UNL     1      24.380  49.976  47.477  1.00  0.00    -0.269 OA
HETATM    5  H   UNL     1      23.326  49.081  50.350  1.00  0.00     0.163 HD
BRANCH   3   6
HETATM    6  C   UNL     1      22.445  50.714  48.658  1.00  0.00     0.075 C 
HETATM    7  C   UNL     1      21.246  50.114  48.701  1.00  0.00     0.018 C 
BRANCH   7   8
HETATM    8  C   UNL     1      19.983  50.837  48.939  1.00  0.00    -0.014 A 
HETATM    9  C   UNL     1      19.764  52.081  48.322  1.00  0.00     0.013 A 
HETATM   10  C   UNL     1      18.567  52.779  48.516  1.00  0.00     0.001 A 
HETATM   11  C   UNL     1      17.566  52.239  49.318  1.00  0.00     0.002 A 
HETATM   12  C   UNL     1      17.758  50.998  49.923  1.00  0.00     0.024 A 
HETATM   13  C   UNL     1      18.955  50.298  49.735  1.00  0.00     0.044 A 
HETATM   14 CL   UNL     1      19.113  48.772  50.537  1.00  0.00    -0.083 Cl
ENDBRANCH   7   8
ENDBRANCH   3   6
ENDBRANCH   1   2
BRANCH   1  15
HETATM   15  C   UNL     1      24.547  46.738  49.907  1.00  0.00    -0.038 A 
HETATM   16  C   UNL     1      24.883  46.225  51.169  1.00  0.00     0.046 A 
HETATM   17  C   UNL     1      24.531  44.921  51.524  1.00  0.00     0.078 A 
HETATM   18  C   UNL     1      23.750  44.154  50.663  1.00  0.00     0.037 A 
HETATM   19  C   UNL     1      23.368  44.670  49.424  1.00  0.00     0.003 A 
HETATM   20  C   UNL     1      23.772  45.952  49.043  1.00  0.00     0.009 A 
BRANCH  17  21
HETATM   21  O   UNL     1      24.856  44.376  52.742  1.00  0.00    -0.292 OA
BRANCH  21  22
HETATM   22  C   UNL     1      26.208  44.288  53.069  1.00  0.00     0.169 A 
HETATM   23  N   UNL     1      27.083  43.700  52.217  1.00  0.00    -0.237 NA
HETATM   24  C   UNL     1      28.368  43.626  52.626  1.00  0.00     0.119 A 
HETATM   25  C   UNL     1      28.821  44.109  53.843  1.00  0.00     0.019 A 
HETATM   26  C   UNL     1      27.899  44.698  54.703  1.00  0.00     0.006 A 
HETATM   27  C   UNL     1      26.565  44.784  54.315  1.00  0.00     0.058 A 
ENDBRANCH  21  22
ENDBRANCH  17  21
ENDBRANCH   1  15
TORSDOF 6
ENDMDL
MODEL 10
REMARK VINA RESULT:      -8.2      2.865      4.523
REMARK  6 active torsions:
REMARK  status: ('A' for Active; 'I' for Inactive)
REMARK    1  A    between atoms: C_3  and  C_4 
REMARK    2  A    between atoms: C_5  and  C_6 
REMARK       I    between atoms: C_6  and  N_7 
REMARK    3  A    between atoms: N_7  and  C_8 
REMARK    4  A    between atoms: C_8  and  C_9 
REMARK    5  A    between atoms: C_11  and  O_12 
REMARK    6  A    between atoms: O_12  and  C_13 
ROOT
HETATM    1  C   UNL     1      23.104  47.914  48.616  1.00  0.00     0.161 C 
ENDROOT
BRANCH   1   2
HETATM    2  N   UNL     1      24.050  47.896  49.710  1.00  0.00    -0.353 N 
HETATM    3  C   UNL     1      24.415  46.723  50.314  1.00  0.00     0.241 C 
HETATM    4  O   UNL     1      23.945  45.629  50.037  1.00  0.00    -0.269 OA
HETATM    5  H   UNL     1      24.428  48.780  50.023  1.00  0.00     0.163 HD
BRANCH   3   6
HETATM    6  C   UNL     1      25.467  46.916  51.345  1.00  0.00     0.075 C 
HETATM    7  C   UNL     1      25.573  46.048  52.363  1.00  0.00     0.018 C 
BRANCH   7   8
HETATM    8  C   UNL     1      26.621  46.131  53.396  1.00  0.00    -0.014 A 
HETATM    9  C   UNL     1      26.856  47.350  54.057  1.00  0.00     0.013 A 
HETATM   10  C   UNL     1      27.831  47.451  55.054  1.00  0.00     0.001 A 
HETATM   11  C   UNL     1      28.577  46.333  55.417  1.00  0.00     0.002 A 
HETATM   12  C   UNL     1      28.347  45.112  54.786  1.00  0.00     0.024 A 
HETATM   13  C   UNL     1      27.373  45.007  53.785  1.00  0.00     0.044 A 
HETATM   14 CL   UNL     1      27.165  43.456  53.045  1.00  0.00    -0.083 Cl
ENDBRANCH   7   8
ENDBRANCH   3   6
ENDBRANCH   1   2
BRANCH   1  15
HETATM   15  C   UNL     1      22.138  49.062  48.755  1.00  0.00    -0.038 A 
HETATM   16  C   UNL     1      20.899  48.872  49.386  1.00  0.00     0.046 A 
HETATM   17  C   UNL     1      19.965  49.908  49.448  1.00  0.00     0.078 A 
HETATM   18  C   UNL     1      20.300  51.174  48.974  1.00  0.00     0.037 A 
HETATM   19  C   UNL     1      21.548  51.390  48.388  1.00  0.00     0.003 A 
HETATM   20  C   UNL     1      22.460  50.337  48.271  1.00  0.00     0.009 A 
BRANCH  17  21
HETATM   21  O   UNL     1      18.735  49.756  50.041  1.00  0.00    -0.292 OA
BRANCH  21  22
HETATM   22  C   UNL     1      17.691  50.550  49.571  1.00  0.00     0.169 A 
HETATM   23  N   UNL     1      17.391  51.722  50.182  1.00  0.00    -0.237 NA
HETATM   24  C   UNL     1      16.342  52.413  49.684  1.00  0.00     0.119 A 
HETATM   25  C   UNL     1      15.580  51.990  48.607  1.00  0.00     0.019 A 
HETATM   26  C   UNL     1      15.904  50.778  48.006  1.00  0.00     0.006 A 
HETATM   27  C   UNL     1      16.974  50.038  48.498  1.00  0.00     0.058 A 
ENDBRANCH  21  22
ENDBRANCH  17  21
ENDBRANCH   1  15
TORSDOF 6
ENDMDL
