MODEL 1
REMARK VINA RESULT:      -9.4      0.000      0.000
REMARK  10 active torsions:
REMARK  status: ('A' for Active; 'I' for Inactive)
REMARK    1  A    between atoms: O_2  and  C_3 
REMARK    2  A    between atoms: C_3  and  C_4 
REMARK    3  A    between atoms: C_6  and  C_7 
REMARK    4  A    between atoms: C_7  and  C_8 
REMARK    5  A    between atoms: C_8  and  N_9 
REMARK       I    between atoms: N_9  and  C_10 
REMARK       I    between atoms: C_10  and  N_17 
REMARK    6  A    between atoms: N_17  and  CA_18 
REMARK    7  A    between atoms: CA_18  and  C_19 
REMARK    8  A    between atoms: CA_18  and  CB_21 
REMARK    9  A    between atoms: C_19  and  O_20 
REMARK   10  A    between atoms: CB_21  and  CG_22 
ROOT
HETATM    1  N   UNK A   0      26.156  43.712  50.366  1.00  0.00    -0.343 N 
HETATM    2  C   UNK A   0      25.520  42.570  50.736  1.00  0.00     0.316 C 
HETATM    3  O   UNK A   0      24.327  42.364  50.542  1.00  0.00    -0.248 OA
HETATM    4  H   UNK A   0      27.160  43.709  50.324  1.00  0.00     0.164 HD
ATOM      5  N   TRP A   1      26.268  41.648  51.386  1.00  0.00    -0.336 N 
ATOM      6  H   TRP A   1      25.745  40.803  51.595  1.00  0.00     0.164 HD
ENDROOT
BRANCH   5   7
ATOM      7  CA  TRP A   1      27.699  41.631  51.713  1.00  0.00     0.114 C 
BRANCH   7   8
ATOM      8  C   TRP A   1      28.369  40.440  50.991  1.00  0.00     0.189 C 
BRANCH   8   9
ATOM      9  O   TRP A   1      29.220  39.717  51.883  1.00  0.00    -0.399 OA
ATOM     10  H   TRP A   1      29.541  40.341  52.556  1.00  0.00     0.209 HD
ENDBRANCH   8   9
ENDBRANCH   7   8
BRANCH   7  11
ATOM     11  CB  TRP A   1      27.959  41.563  53.233  1.00  0.00     0.068 C 
BRANCH  11  12
ATOM     12  CG  TRP A   1      27.944  42.912  53.887  1.00  0.00    -0.028 A 
ATOM     13  CD2 TRP A   1      28.989  43.501  54.668  1.00  0.00    -0.002 A 
ATOM     14  CE2 TRP A   1      28.558  44.769  55.058  1.00  0.00     0.042 A 
ATOM     15  CE3 TRP A   1      30.270  43.075  55.079  1.00  0.00     0.014 A 
ATOM     16  CZ2 TRP A   1      29.341  45.635  55.830  1.00  0.00     0.030 A 
ATOM     17  NE1 TRP A   1      27.292  44.940  54.550  1.00  0.00    -0.365 N 
ATOM     18  CH2 TRP A   1      30.606  45.188  56.223  1.00  0.00     0.002 A 
ATOM     19  CZ3 TRP A   1      31.065  43.926  55.855  1.00  0.00     0.001 A 
ATOM     20  HE1 TRP A   1      26.730  45.770  54.685  1.00  0.00     0.165 HD
ATOM     21  CD1 TRP A   1      26.910  43.829  53.847  1.00  0.00     0.096 A 
ENDBRANCH  11  12
ENDBRANCH   7  11
ENDBRANCH   5   7
BRANCH   1  22
HETATM   22  C   UNK A   0      25.461  44.815  49.728  1.00  0.00     0.129 C 
BRANCH  22  23
HETATM   23  C   UNK A   0      25.334  46.073  50.602  1.00  0.00     0.058 C 
BRANCH  23  24
HETATM   24  C   UNK A   0      25.664  47.351  49.865  1.00  0.00    -0.056 A 
HETATM   25  C   UNK A   0      24.630  48.199  49.437  1.00  0.00     0.024 A 
HETATM   26  C   UNK A   0      24.917  49.403  48.778  1.00  0.00     0.040 A 
HETATM   27  C   UNK A   0      26.252  49.749  48.535  1.00  0.00     0.017 A 
HETATM   28  C   UNK A   0      27.285  48.909  48.954  1.00  0.00     0.002 A 
HETATM   29  C   UNK A   0      26.993  47.717  49.620  1.00  0.00     0.007 A 
BRANCH  26  30
HETATM   30  C   UNK A   0      23.851  50.336  48.323  1.00  0.00     0.292 C 
HETATM   31  O   UNK A   0      23.516  50.461  47.155  1.00  0.00    -0.259 OA
BRANCH  30  32
HETATM   32  O   UNK A   0      23.328  51.016  49.374  1.00  0.00    -0.323 OA
HETATM   33  C   UNK A   0      21.960  50.708  49.646  1.00  0.00     0.213 C 
ENDBRANCH  30  32
ENDBRANCH  26  30
ENDBRANCH  23  24
ENDBRANCH  22  23
ENDBRANCH   1  22
TORSDOF 10
ENDMDL
MODEL 2
REMARK VINA RESULT:      -9.4      1.011      1.682
REMARK  10 active torsions:
REMARK  status: ('A' for Active; 'I' for Inactive)
REMARK    1  A    between atoms: O_2  and  C_3 
REMARK    2  A    between atoms: C_3  and  C_4 
REMARK    3  A    between atoms: C_6  and  C_7 
REMARK    4  A    between atoms: C_7  and  C_8 
REMARK    5  A    between atoms: C_8  and  N_9 
REMARK       I    between atoms: N_9  and  C_10 
REMARK       I    between atoms: C_10  and  N_17 
REMARK    6  A    between atoms: N_17  and  CA_18 
REMARK    7  A    between atoms: CA_18  and  C_19 
REMARK    8  A    between atoms: CA_18  and  CB_21 
REMARK    9  A    between atoms: C_19  and  O_20 
REMARK   10  A    between atoms: CB_21  and  CG_22 
ROOT
HETATM    1  N   UNK A   0      26.755  44.015  50.533  1.00  0.00    -0.343 N 
HETATM    2  C   UNK A   0      25.920  43.057  51.010  1.00  0.00     0.316 C 
HETATM    3  O   UNK A   0      24.705  43.072  50.845  1.00  0.00    -0.248 OA
HETATM    4  H   UNK A   0      27.739  43.813  50.484  1.00  0.00     0.164 HD
ATOM      5  N   TRP A   1      26.490  42.067  51.736  1.00  0.00    -0.336 N 
ATOM      6  H   TRP A   1      25.818  41.362  52.024  1.00  0.00     0.164 HD
ENDROOT
BRANCH   5   7
ATOM      7  CA  TRP A   1      27.899  41.800  52.052  1.00  0.00     0.114 C 
BRANCH   7   8
ATOM      8  C   TRP A   1      28.370  40.562  51.257  1.00  0.00     0.189 C 
BRANCH   8   9
ATOM      9  O   TRP A   1      29.248  39.753  52.044  1.00  0.00    -0.399 OA
ATOM     10  H   TRP A   1      28.701  39.118  52.537  1.00  0.00     0.209 HD
ENDBRANCH   8   9
ENDBRANCH   7   8
BRANCH   7  11
ATOM     11  CB  TRP A   1      28.139  41.599  53.564  1.00  0.00     0.068 C 
BRANCH  11  12
ATOM     12  CG  TRP A   1      28.803  42.779  54.209  1.00  0.00    -0.028 A 
ATOM     13  CD2 TRP A   1      28.237  44.077  54.418  1.00  0.00    -0.002 A 
ATOM     14  CE2 TRP A   1      29.196  44.853  55.070  1.00  0.00     0.042 A 
ATOM     15  CE3 TRP A   1      26.992  44.668  54.115  1.00  0.00     0.014 A 
ATOM     16  CZ2 TRP A   1      28.973  46.184  55.441  1.00  0.00     0.030 A 
ATOM     17  NE1 TRP A   1      30.310  44.065  55.237  1.00  0.00    -0.365 N 
ATOM     18  CH2 TRP A   1      27.731  46.744  55.131  1.00  0.00     0.002 A 
ATOM     19  CZ3 TRP A   1      26.754  45.999  54.476  1.00  0.00     0.001 A 
ATOM     20  HE1 TRP A   1      31.167  44.373  55.676  1.00  0.00     0.165 HD
ATOM     21  CD1 TRP A   1      30.087  42.816  54.720  1.00  0.00     0.096 A 
ENDBRANCH  11  12
ENDBRANCH   7  11
ENDBRANCH   5   7
BRANCH   1  22
HETATM   22  C   UNK A   0      26.272  45.173  49.803  1.00  0.00     0.129 C 
BRANCH  22  23
HETATM   23  C   UNK A   0      26.138  46.447  50.652  1.00  0.00     0.058 C 
BRANCH  23  24
HETATM   24  C   UNK A   0      26.228  47.720  49.842  1.00  0.00    -0.056 A 
HETATM   25  C   UNK A   0      25.054  48.375  49.435  1.00  0.00     0.024 A 
HETATM   26  C   UNK A   0      25.117  49.572  48.708  1.00  0.00     0.040 A 
HETATM   27  C   UNK A   0      26.368  50.107  48.376  1.00  0.00     0.017 A 
HETATM   28  C   UNK A   0      27.538  49.460  48.774  1.00  0.00     0.002 A 
HETATM   29  C   UNK A   0      27.469  48.273  49.507  1.00  0.00     0.007 A 
BRANCH  26  30
HETATM   30  C   UNK A   0      23.897  50.304  48.272  1.00  0.00     0.292 C 
HETATM   31  O   UNK A   0      23.534  50.380  47.109  1.00  0.00    -0.259 OA
BRANCH  30  32
HETATM   32  O   UNK A   0      23.270  50.869  49.335  1.00  0.00    -0.323 OA
HETATM   33  C   UNK A   0      21.846  50.872  49.239  1.00  0.00     0.213 C 
ENDBRANCH  30  32
ENDBRANCH  26  30
ENDBRANCH  23  24
ENDBRANCH  22  23
ENDBRANCH   1  22
TORSDOF 10
ENDMDL
MODEL 3
REMARK VINA RESULT:      -8.7     12.180     14.864
REMARK  10 active torsions:
REMARK  status: ('A' for Active; 'I' for Inactive)
REMARK    1  A    between atoms: O_2  and  C_3 
REMARK    2  A    between atoms: C_3  and  C_4 
REMARK    3  A    between atoms: C_6  and  C_7 
REMARK    4  A    between atoms: C_7  and  C_8 
REMARK    5  A    between atoms: C_8  and  N_9 
REMARK       I    between atoms: N_9  and  C_10 
REMARK       I    between atoms: C_10  and  N_17 
REMARK    6  A    between atoms: N_17  and  CA_18 
REMARK    7  A    between atoms: CA_18  and  C_19 
REMARK    8  A    between atoms: CA_18  and  CB_21 
REMARK    9  A    between atoms: C_19  and  O_20 
REMARK   10  A    between atoms: CB_21  and  CG_22 
ROOT
HETATM    1  N   UNK A   0      29.551  48.629  40.436  1.00  0.00    -0.343 N 
HETATM    2  C   UNK A   0      29.282  48.207  39.174  1.00  0.00     0.316 C 
HETATM    3  O   UNK A   0      29.916  47.327  38.602  1.00  0.00    -0.248 OA
HETATM    4  H   UNK A   0      28.849  49.158  40.924  1.00  0.00     0.164 HD
ATOM      5  N   TRP A   1      28.277  48.843  38.527  1.00  0.00    -0.336 N 
ATOM      6  H   TRP A   1      28.099  48.451  37.607  1.00  0.00     0.164 HD
ENDROOT
BRANCH   5   7
ATOM      7  CA  TRP A   1      27.354  49.890  38.984  1.00  0.00     0.114 C 
BRANCH   7   8
ATOM      8  C   TRP A   1      25.915  49.515  38.566  1.00  0.00     0.189 C 
BRANCH   8   9
ATOM      9  O   TRP A   1      25.219  50.653  38.055  1.00  0.00    -0.399 OA
ATOM     10  H   TRP A   1      25.039  51.250  38.801  1.00  0.00     0.209 HD
ENDBRANCH   8   9
ENDBRANCH   7   8
BRANCH   7  11
ATOM     11  CB  TRP A   1      27.731  51.287  38.445  1.00  0.00     0.068 C 
BRANCH  11  12
ATOM     12  CG  TRP A   1      28.784  51.965  39.270  1.00  0.00    -0.028 A 
ATOM     13  CD2 TRP A   1      30.200  51.918  39.063  1.00  0.00    -0.002 A 
ATOM     14  CE2 TRP A   1      30.794  52.707  40.048  1.00  0.00     0.042 A 
ATOM     15  CE3 TRP A   1      31.038  51.279  38.124  1.00  0.00     0.014 A 
ATOM     16  CZ2 TRP A   1      32.178  52.897  40.140  1.00  0.00     0.030 A 
ATOM     17  NE1 TRP A   1      29.782  53.201  40.836  1.00  0.00    -0.365 N 
ATOM     18  CH2 TRP A   1      32.984  52.253  39.196  1.00  0.00     0.002 A 
ATOM     19  CZ3 TRP A   1      32.424  51.455  38.203  1.00  0.00     0.001 A 
ATOM     20  HE1 TRP A   1      29.923  53.801  41.638  1.00  0.00     0.165 HD
ATOM     21  CD1 TRP A   1      28.569  52.758  40.381  1.00  0.00     0.096 A 
ENDBRANCH  11  12
ENDBRANCH   7  11
ENDBRANCH   5   7
BRANCH   1  22
HETATM   22  C   UNK A   0      30.649  48.088  41.217  1.00  0.00     0.129 C 
BRANCH  22  23
HETATM   23  C   UNK A   0      32.027  48.664  40.857  1.00  0.00     0.058 C 
BRANCH  23  24
HETATM   24  C   UNK A   0      32.522  49.697  41.845  1.00  0.00    -0.056 A 
HETATM   25  C   UNK A   0      33.867  50.100  41.820  1.00  0.00     0.024 A 
HETATM   26  C   UNK A   0      34.338  51.077  42.708  1.00  0.00     0.040 A 
HETATM   27  C   UNK A   0      33.455  51.643  43.635  1.00  0.00     0.017 A 
HETATM   28  C   UNK A   0      32.118  51.245  43.668  1.00  0.00     0.002 A 
HETATM   29  C   UNK A   0      31.652  50.279  42.774  1.00  0.00     0.007 A 
BRANCH  26  30
HETATM   30  C   UNK A   0      35.752  51.542  42.703  1.00  0.00     0.292 C 
HETATM   31  O   UNK A   0      36.083  52.699  42.913  1.00  0.00    -0.259 OA
BRANCH  30  32
HETATM   32  O   UNK A   0      36.594  50.515  42.428  1.00  0.00    -0.323 OA
HETATM   33  C   UNK A   0      37.954  50.909  42.241  1.00  0.00     0.213 C 
ENDBRANCH  30  32
ENDBRANCH  26  30
ENDBRANCH  23  24
ENDBRANCH  22  23
ENDBRANCH   1  22
TORSDOF 10
ENDMDL
MODEL 4
REMARK VINA RESULT:      -8.5      1.998      2.634
REMARK  10 active torsions:
REMARK  status: ('A' for Active; 'I' for Inactive)
REMARK    1  A    between atoms: O_2  and  C_3 
REMARK    2  A    between atoms: C_3  and  C_4 
REMARK    3  A    between atoms: C_6  and  C_7 
REMARK    4  A    between atoms: C_7  and  C_8 
REMARK    5  A    between atoms: C_8  and  N_9 
REMARK       I    between atoms: N_9  and  C_10 
REMARK       I    between atoms: C_10  and  N_17 
REMARK    6  A    between atoms: N_17  and  CA_18 
REMARK    7  A    between atoms: CA_18  and  C_19 
REMARK    8  A    between atoms: CA_18  and  CB_21 
REMARK    9  A    between atoms: C_19  and  O_20 
REMARK   10  A    between atoms: CB_21  and  CG_22 
ROOT
HETATM    1  N   UNK A   0      25.901  45.316  51.866  1.00  0.00    -0.343 N 
HETATM    2  C   UNK A   0      25.844  43.987  51.595  1.00  0.00     0.316 C 
HETATM    3  O   UNK A   0      25.295  43.518  50.603  1.00  0.00    -0.248 OA
HETATM    4  H   UNK A   0      26.571  45.639  52.542  1.00  0.00     0.164 HD
ATOM      5  N   TRP A   1      26.402  43.160  52.511  1.00  0.00    -0.336 N 
ATOM      6  H   TRP A   1      26.365  42.186  52.227  1.00  0.00     0.164 HD
ENDROOT
BRANCH   5   7
ATOM      7  CA  TRP A   1      27.137  43.456  53.747  1.00  0.00     0.114 C 
BRANCH   7   8
ATOM      8  C   TRP A   1      26.131  43.608  54.910  1.00  0.00     0.189 C 
BRANCH   8   9
ATOM      9  O   TRP A   1      24.820  43.892  54.417  1.00  0.00    -0.399 OA
ATOM     10  H   TRP A   1      24.316  43.061  54.422  1.00  0.00     0.209 HD
ENDBRANCH   8   9
ENDBRANCH   7   8
BRANCH   7  11
ATOM     11  CB  TRP A   1      28.020  44.716  53.624  1.00  0.00     0.068 C 
BRANCH  11  12
ATOM     12  CG  TRP A   1      28.548  45.188  54.946  1.00  0.00    -0.028 A 
ATOM     13  CD2 TRP A   1      29.618  44.609  55.701  1.00  0.00    -0.002 A 
ATOM     14  CE2 TRP A   1      29.786  45.381  56.851  1.00  0.00     0.042 A 
ATOM     15  CE3 TRP A   1      30.467  43.498  55.512  1.00  0.00     0.014 A 
ATOM     16  CZ2 TRP A   1      30.760  45.106  57.817  1.00  0.00     0.030 A 
ATOM     17  NE1 TRP A   1      28.843  46.381  56.808  1.00  0.00    -0.365 N 
ATOM     18  CH2 TRP A   1      31.588  44.000  57.605  1.00  0.00     0.002 A 
ATOM     19  CZ3 TRP A   1      31.445  43.206  56.471  1.00  0.00     0.001 A 
ATOM     20  HE1 TRP A   1      28.727  47.088  57.522  1.00  0.00     0.165 HD
ATOM     21  CD1 TRP A   1      28.090  46.273  55.669  1.00  0.00     0.096 A 
ENDBRANCH  11  12
ENDBRANCH   7  11
ENDBRANCH   5   7
BRANCH   1  22
HETATM   22  C   UNK A   0      25.280  46.310  51.010  1.00  0.00     0.129 C 
BRANCH  22  23
HETATM   23  C   UNK A   0      26.269  47.272  50.334  1.00  0.00     0.058 C 
BRANCH  23  24
HETATM   24  C   UNK A   0      25.598  48.298  49.449  1.00  0.00    -0.056 A 
HETATM   25  C   UNK A   0      24.198  48.319  49.339  1.00  0.00     0.024 A 
HETATM   26  C   UNK A   0      23.556  49.280  48.546  1.00  0.00     0.040 A 
HETATM   27  C   UNK A   0      24.327  50.218  47.848  1.00  0.00     0.017 A 
HETATM   28  C   UNK A   0      25.719  50.200  47.950  1.00  0.00     0.002 A 
HETATM   29  C   UNK A   0      26.352  49.247  48.750  1.00  0.00     0.007 A 
BRANCH  26  30
HETATM   30  C   UNK A   0      22.075  49.345  48.416  1.00  0.00     0.292 C 
HETATM   31  O   UNK A   0      21.496  50.127  47.679  1.00  0.00    -0.259 OA
BRANCH  30  32
HETATM   32  O   UNK A   0      21.481  48.434  49.228  1.00  0.00    -0.323 OA
HETATM   33  C   UNK A   0      20.065  48.582  49.333  1.00  0.00     0.213 C 
ENDBRANCH  30  32
ENDBRANCH  26  30
ENDBRANCH  23  24
ENDBRANCH  22  23
ENDBRANCH   1  22
TORSDOF 10
ENDMDL
MODEL 5
REMARK VINA RESULT:      -8.3      2.099      2.883
REMARK  10 active torsions:
REMARK  status: ('A' for Active; 'I' for Inactive)
REMARK    1  A    between atoms: O_2  and  C_3 
REMARK    2  A    between atoms: C_3  and  C_4 
REMARK    3  A    between atoms: C_6  and  C_7 
REMARK    4  A    between atoms: C_7  and  C_8 
REMARK    5  A    between atoms: C_8  and  N_9 
REMARK       I    between atoms: N_9  and  C_10 
REMARK       I    between atoms: C_10  and  N_17 
REMARK    6  A    between atoms: N_17  and  CA_18 
REMARK    7  A    between atoms: CA_18  and  C_19 
REMARK    8  A    between atoms: CA_18  and  CB_21 
REMARK    9  A    between atoms: C_19  and  O_20 
REMARK   10  A    between atoms: CB_21  and  CG_22 
ROOT
HETATM    1  N   UNK A   0      25.566  45.250  50.308  1.00  0.00    -0.343 N 
HETATM    2  C   UNK A   0      26.908  45.209  50.107  1.00  0.00     0.316 C 
HETATM    3  O   UNK A   0      27.499  45.935  49.315  1.00  0.00    -0.248 OA
HETATM    4  H   UNK A   0      25.192  44.818  51.135  1.00  0.00     0.164 HD
ATOM      5  N   TRP A   1      27.595  44.277  50.810  1.00  0.00    -0.336 N 
ATOM      6  H   TRP A   1      28.595  44.330  50.648  1.00  0.00     0.164 HD
ENDROOT
BRANCH   5   7
ATOM      7  CA  TRP A   1      27.144  43.321  51.829  1.00  0.00     0.114 C 
BRANCH   7   8
ATOM      8  C   TRP A   1      26.284  42.229  51.153  1.00  0.00     0.189 C 
BRANCH   8   9
ATOM      9  O   TRP A   1      24.895  42.437  51.417  1.00  0.00    -0.399 OA
ATOM     10  H   TRP A   1      24.519  41.589  51.709  1.00  0.00     0.209 HD
ENDBRANCH   8   9
ENDBRANCH   7   8
BRANCH   7  11
ATOM     11  CB  TRP A   1      26.361  44.000  52.973  1.00  0.00     0.068 C 
BRANCH  11  12
ATOM     12  CG  TRP A   1      27.241  44.806  53.882  1.00  0.00    -0.028 A 
ATOM     13  CD2 TRP A   1      28.459  44.380  54.500  1.00  0.00    -0.002 A 
ATOM     14  CE2 TRP A   1      28.953  45.455  55.239  1.00  0.00     0.042 A 
ATOM     15  CE3 TRP A   1      29.195  43.176  54.498  1.00  0.00     0.014 A 
ATOM     16  CZ2 TRP A   1      30.146  45.392  55.969  1.00  0.00     0.030 A 
ATOM     17  NE1 TRP A   1      28.062  46.491  55.092  1.00  0.00    -0.365 N 
ATOM     18  CH2 TRP A   1      30.856  44.188  55.949  1.00  0.00     0.002 A 
ATOM     19  CZ3 TRP A   1      30.388  43.094  55.226  1.00  0.00     0.001 A 
ATOM     20  HE1 TRP A   1      28.163  47.398  55.528  1.00  0.00     0.165 HD
ATOM     21  CD1 TRP A   1      27.025  46.112  54.282  1.00  0.00     0.096 A 
ENDBRANCH  11  12
ENDBRANCH   7  11
ENDBRANCH   5   7
BRANCH   1  22
HETATM   22  C   UNK A   0      24.698  46.147  49.567  1.00  0.00     0.129 C 
BRANCH  22  23
HETATM   23  C   UNK A   0      24.508  47.526  50.217  1.00  0.00     0.058 C 
BRANCH  23  24
HETATM   24  C   UNK A   0      23.759  48.504  49.341  1.00  0.00    -0.056 A 
HETATM   25  C   UNK A   0      22.361  48.425  49.241  1.00  0.00     0.024 A 
HETATM   26  C   UNK A   0      21.646  49.341  48.457  1.00  0.00     0.040 A 
HETATM   27  C   UNK A   0      22.342  50.335  47.758  1.00  0.00     0.017 A 
HETATM   28  C   UNK A   0      23.732  50.417  47.851  1.00  0.00     0.002 A 
HETATM   29  C   UNK A   0      24.438  49.509  48.642  1.00  0.00     0.007 A 
BRANCH  26  30
HETATM   30  C   UNK A   0      20.163  49.300  48.337  1.00  0.00     0.292 C 
HETATM   31  O   UNK A   0      19.552  49.720  47.367  1.00  0.00    -0.259 OA
BRANCH  30  32
HETATM   32  O   UNK A   0      19.607  48.749  49.445  1.00  0.00    -0.323 OA
HETATM   33  C   UNK A   0      18.872  49.671  50.250  1.00  0.00     0.213 C 
ENDBRANCH  30  32
ENDBRANCH  26  30
ENDBRANCH  23  24
ENDBRANCH  22  23
ENDBRANCH   1  22
TORSDOF 10
ENDMDL
MODEL 6
REMARK VINA RESULT:      -8.3      2.264      3.128
REMARK  10 active torsions:
REMARK  status: ('A' for Active; 'I' for Inactive)
REMARK    1  A    between atoms: O_2  and  C_3 
REMARK    2  A    between atoms: C_3  and  C_4 
REMARK    3  A    between atoms: C_6  and  C_7 
REMARK    4  A    between atoms: C_7  and  C_8 
REMARK    5  A    between atoms: C_8  and  N_9 
REMARK       I    between atoms: N_9  and  C_10 
REMARK       I    between atoms: C_10  and  N_17 
REMARK    6  A    between atoms: N_17  and  CA_18 
REMARK    7  A    between atoms: CA_18  and  C_19 
REMARK    8  A    between atoms: CA_18  and  CB_21 
REMARK    9  A    between atoms: C_19  and  O_20 
REMARK   10  A    between atoms: CB_21  and  CG_22 
ROOT
HETATM    1  N   UNK A   0      26.331  45.971  51.135  1.00  0.00    -0.343 N 
HETATM    2  C   UNK A   0      26.955  44.840  50.716  1.00  0.00     0.316 C 
HETATM    3  O   UNK A   0      27.218  44.604  49.541  1.00  0.00    -0.248 OA
HETATM    4  H   UNK A   0      26.377  46.211  52.110  1.00  0.00     0.164 HD
ATOM      5  N   TRP A   1      27.256  43.929  51.670  1.00  0.00    -0.336 N 
ATOM      6  H   TRP A   1      27.760  43.130  51.298  1.00  0.00     0.164 HD
ENDROOT
BRANCH   5   7
ATOM      7  CA  TRP A   1      27.084  43.974  53.128  1.00  0.00     0.114 C 
BRANCH   7   8
ATOM      8  C   TRP A   1      25.600  44.260  53.453  1.00  0.00     0.189 C 
BRANCH   8   9
ATOM      9  O   TRP A   1      24.737  43.556  52.558  1.00  0.00    -0.399 OA
ATOM     10  H   TRP A   1      24.244  44.217  52.042  1.00  0.00     0.209 HD
ENDBRANCH   8   9
ENDBRANCH   7   8
BRANCH   7  11
ATOM     11  CB  TRP A   1      27.999  45.019  53.800  1.00  0.00     0.068 C 
BRANCH  11  12
ATOM     12  CG  TRP A   1      29.138  44.397  54.553  1.00  0.00    -0.028 A 
ATOM     13  CD2 TRP A   1      29.654  44.807  55.824  1.00  0.00    -0.002 A 
ATOM     14  CE2 TRP A   1      30.693  43.936  56.155  1.00  0.00     0.042 A 
ATOM     15  CE3 TRP A   1      29.333  45.839  56.730  1.00  0.00     0.014 A 
ATOM     16  CZ2 TRP A   1      31.421  44.039  57.346  1.00  0.00     0.030 A 
ATOM     17  NE1 TRP A   1      30.817  43.041  55.119  1.00  0.00    -0.365 N 
ATOM     18  CH2 TRP A   1      31.081  45.069  58.226  1.00  0.00     0.002 A 
ATOM     19  CZ3 TRP A   1      30.054  45.959  57.925  1.00  0.00     0.001 A 
ATOM     20  HE1 TRP A   1      31.501  42.297  55.086  1.00  0.00     0.165 HD
ATOM     21  CD1 TRP A   1      29.890  43.310  54.148  1.00  0.00     0.096 A 
ENDBRANCH  11  12
ENDBRANCH   7  11
ENDBRANCH   5   7
BRANCH   1  22
HETATM   22  C   UNK A   0      25.884  46.998  50.212  1.00  0.00     0.129 C 
BRANCH  22  23
HETATM   23  C   UNK A   0      24.358  47.088  50.054  1.00  0.00     0.058 C 
BRANCH  23  24
HETATM   24  C   UNK A   0      23.907  48.292  49.259  1.00  0.00    -0.056 A 
HETATM   25  C   UNK A   0      22.537  48.527  49.061  1.00  0.00     0.024 A 
HETATM   26  C   UNK A   0      22.098  49.654  48.352  1.00  0.00     0.040 A 
HETATM   27  C   UNK A   0      23.043  50.543  47.827  1.00  0.00     0.017 A 
HETATM   28  C   UNK A   0      24.407  50.315  48.017  1.00  0.00     0.002 A 
HETATM   29  C   UNK A   0      24.837  49.197  48.733  1.00  0.00     0.007 A 
BRANCH  26  30
HETATM   30  C   UNK A   0      20.655  49.945  48.133  1.00  0.00     0.292 C 
HETATM   31  O   UNK A   0      20.170  50.167  47.035  1.00  0.00    -0.259 OA
BRANCH  30  32
HETATM   32  O   UNK A   0      19.980  49.938  49.311  1.00  0.00    -0.323 OA
HETATM   33  C   UNK A   0      20.124  51.136  50.073  1.00  0.00     0.213 C 
ENDBRANCH  30  32
ENDBRANCH  26  30
ENDBRANCH  23  24
ENDBRANCH  22  23
ENDBRANCH   1  22
TORSDOF 10
ENDMDL
MODEL 7
REMARK VINA RESULT:      -8.3      3.251      8.813
REMARK  10 active torsions:
REMARK  status: ('A' for Active; 'I' for Inactive)
REMARK    1  A    between atoms: O_2  and  C_3 
REMARK    2  A    between atoms: C_3  and  C_4 
REMARK    3  A    between atoms: C_6  and  C_7 
REMARK    4  A    between atoms: C_7  and  C_8 
REMARK    5  A    between atoms: C_8  and  N_9 
REMARK       I    between atoms: N_9  and  C_10 
REMARK       I    between atoms: C_10  and  N_17 
REMARK    6  A    between atoms: N_17  and  CA_18 
REMARK    7  A    between atoms: CA_18  and  C_19 
REMARK    8  A    between atoms: CA_18  and  CB_21 
REMARK    9  A    between atoms: C_19  and  O_20 
REMARK   10  A    between atoms: CB_21  and  CG_22 
ROOT
HETATM    1  N   UNK A   0      25.376  45.148  51.004  1.00  0.00    -0.343 N 
HETATM    2  C   UNK A   0      25.665  45.173  49.678  1.00  0.00     0.316 C 
HETATM    3  O   UNK A   0      26.807  45.160  49.231  1.00  0.00    -0.248 OA
HETATM    4  H   UNK A   0      24.442  44.907  51.286  1.00  0.00     0.164 HD
ATOM      5  N   TRP A   1      24.611  45.256  48.832  1.00  0.00    -0.336 N 
ATOM      6  H   TRP A   1      24.893  45.226  47.857  1.00  0.00     0.164 HD
ENDROOT
BRANCH   5   7
ATOM      7  CA  TRP A   1      23.167  45.256  49.098  1.00  0.00     0.114 C 
BRANCH   7   8
ATOM      8  C   TRP A   1      22.692  43.801  49.313  1.00  0.00     0.189 C 
BRANCH   8   9
ATOM      9  O   TRP A   1      22.741  43.448  50.697  1.00  0.00    -0.399 OA
ATOM     10  H   TRP A   1      22.244  44.122  51.192  1.00  0.00     0.209 HD
ENDBRANCH   8   9
ENDBRANCH   7   8
BRANCH   7  11
ATOM     11  CB  TRP A   1      22.357  45.931  47.971  1.00  0.00     0.068 C 
BRANCH  11  12
ATOM     12  CG  TRP A   1      21.698  47.205  48.411  1.00  0.00    -0.028 A 
ATOM     13  CD2 TRP A   1      22.298  48.503  48.484  1.00  0.00    -0.002 A 
ATOM     14  CE2 TRP A   1      21.318  49.394  48.920  1.00  0.00     0.042 A 
ATOM     15  CE3 TRP A   1      23.588  49.007  48.214  1.00  0.00     0.014 A 
ATOM     16  CZ2 TRP A   1      21.557  50.762  49.095  1.00  0.00     0.030 A 
ATOM     17  NE1 TRP A   1      20.170  48.666  49.124  1.00  0.00    -0.365 N 
ATOM     18  CH2 TRP A   1      22.843  51.235  48.820  1.00  0.00     0.002 A 
ATOM     19  CZ3 TRP A   1      23.846  50.372  48.388  1.00  0.00     0.001 A 
ATOM     20  HE1 TRP A   1      19.296  49.056  49.451  1.00  0.00     0.165 HD
ATOM     21  CD1 TRP A   1      20.387  47.347  48.824  1.00  0.00     0.096 A 
ENDBRANCH  11  12
ENDBRANCH   7  11
ENDBRANCH   5   7
BRANCH   1  22
HETATM   22  C   UNK A   0      26.409  45.135  52.023  1.00  0.00     0.129 C 
BRANCH  22  23
HETATM   23  C   UNK A   0      27.037  43.755  52.273  1.00  0.00     0.058 C 
BRANCH  23  24
HETATM   24  C   UNK A   0      28.204  43.792  53.234  1.00  0.00    -0.056 A 
HETATM   25  C   UNK A   0      28.216  44.725  54.283  1.00  0.00     0.024 A 
HETATM   26  C   UNK A   0      29.275  44.755  55.202  1.00  0.00     0.040 A 
HETATM   27  C   UNK A   0      30.333  43.851  55.057  1.00  0.00     0.017 A 
HETATM   28  C   UNK A   0      30.329  42.924  54.015  1.00  0.00     0.002 A 
HETATM   29  C   UNK A   0      29.267  42.891  53.109  1.00  0.00     0.007 A 
BRANCH  26  30
HETATM   30  C   UNK A   0      29.317  45.718  56.336  1.00  0.00     0.292 C 
HETATM   31  O   UNK A   0      28.372  46.419  56.664  1.00  0.00    -0.259 OA
BRANCH  30  32
HETATM   32  O   UNK A   0      30.538  45.707  56.930  1.00  0.00    -0.323 OA
HETATM   33  C   UNK A   0      30.494  45.778  58.355  1.00  0.00     0.213 C 
ENDBRANCH  30  32
ENDBRANCH  26  30
ENDBRANCH  23  24
ENDBRANCH  22  23
ENDBRANCH   1  22
TORSDOF 10
ENDMDL
MODEL 8
REMARK VINA RESULT:      -8.2      2.621      3.907
REMARK  10 active torsions:
REMARK  status: ('A' for Active; 'I' for Inactive)
REMARK    1  A    between atoms: O_2  and  C_3 
REMARK    2  A    between atoms: C_3  and  C_4 
REMARK    3  A    between atoms: C_6  and  C_7 
REMARK    4  A    between atoms: C_7  and  C_8 
REMARK    5  A    between atoms: C_8  and  N_9 
REMARK       I    between atoms: N_9  and  C_10 
REMARK       I    between atoms: C_10  and  N_17 
REMARK    6  A    between atoms: N_17  and  CA_18 
REMARK    7  A    between atoms: CA_18  and  C_19 
REMARK    8  A    between atoms: CA_18  and  CB_21 
REMARK    9  A    between atoms: C_19  and  O_20 
REMARK   10  A    between atoms: CB_21  and  CG_22 
ROOT
HETATM    1  N   UNK A   0      25.582  45.640  50.803  1.00  0.00    -0.343 N 
HETATM    2  C   UNK A   0      25.538  46.790  51.525  1.00  0.00     0.316 C 
HETATM    3  O   UNK A   0      25.111  47.852  51.086  1.00  0.00    -0.248 OA
HETATM    4  H   UNK A   0      25.701  44.771  51.294  1.00  0.00     0.164 HD
ATOM      5  N   TRP A   1      26.037  46.731  52.782  1.00  0.00    -0.336 N 
ATOM      6  H   TRP A   1      25.934  47.610  53.281  1.00  0.00     0.164 HD
ENDROOT
BRANCH   5   7
ATOM      7  CA  TRP A   1      26.571  45.599  53.550  1.00  0.00     0.114 C 
BRANCH   7   8
ATOM      8  C   TRP A   1      25.400  44.842  54.215  1.00  0.00     0.189 C 
BRANCH   8   9
ATOM      9  O   TRP A   1      24.943  43.775  53.381  1.00  0.00    -0.399 OA
ATOM     10  H   TRP A   1      25.677  43.145  53.279  1.00  0.00     0.209 HD
ENDBRANCH   8   9
ENDBRANCH   7   8
BRANCH   7  11
ATOM     11  CB  TRP A   1      27.607  46.037  54.608  1.00  0.00     0.068 C 
BRANCH  11  12
ATOM     12  CG  TRP A   1      28.700  45.030  54.804  1.00  0.00    -0.028 A 
ATOM     13  CD2 TRP A   1      29.584  44.927  55.925  1.00  0.00    -0.002 A 
ATOM     14  CE2 TRP A   1      30.424  43.837  55.699  1.00  0.00     0.042 A 
ATOM     15  CE3 TRP A   1      29.748  45.661  57.120  1.00  0.00     0.014 A 
ATOM     16  CZ2 TRP A   1      31.413  43.437  56.606  1.00  0.00     0.030 A 
ATOM     17  NE1 TRP A   1      30.078  43.305  54.479  1.00  0.00    -0.365 N 
ATOM     18  CH2 TRP A   1      31.553  44.180  57.781  1.00  0.00     0.002 A 
ATOM     19  CZ3 TRP A   1      30.735  45.277  58.036  1.00  0.00     0.001 A 
ATOM     20  HE1 TRP A   1      30.530  42.506  54.056  1.00  0.00     0.165 HD
ATOM     21  CD1 TRP A   1      29.045  44.016  53.929  1.00  0.00     0.096 A 
ENDBRANCH  11  12
ENDBRANCH   7  11
ENDBRANCH   5   7
BRANCH   1  22
HETATM   22  C   UNK A   0      25.151  45.576  49.419  1.00  0.00     0.129 C 
BRANCH  22  23
HETATM   23  C   UNK A   0      23.804  44.869  49.206  1.00  0.00     0.058 C 
BRANCH  23  24
HETATM   24  C   UNK A   0      22.811  45.694  48.420  1.00  0.00    -0.056 A 
HETATM   25  C   UNK A   0      22.635  47.054  48.723  1.00  0.00     0.024 A 
HETATM   26  C   UNK A   0      21.741  47.843  47.986  1.00  0.00     0.040 A 
HETATM   27  C   UNK A   0      21.008  47.257  46.946  1.00  0.00     0.017 A 
HETATM   28  C   UNK A   0      21.175  45.905  46.642  1.00  0.00     0.002 A 
HETATM   29  C   UNK A   0      22.075  45.128  47.372  1.00  0.00     0.007 A 
BRANCH  26  30
HETATM   30  C   UNK A   0      21.538  49.290  48.266  1.00  0.00     0.292 C 
HETATM   31  O   UNK A   0      20.747  49.991  47.655  1.00  0.00    -0.259 OA
BRANCH  30  32
HETATM   32  O   UNK A   0      22.351  49.703  49.270  1.00  0.00    -0.323 OA
HETATM   33  C   UNK A   0      23.138  50.850  48.948  1.00  0.00     0.213 C 
ENDBRANCH  30  32
ENDBRANCH  26  30
ENDBRANCH  23  24
ENDBRANCH  22  23
ENDBRANCH   1  22
TORSDOF 10
ENDMDL
MODEL 9
REMARK VINA RESULT:      -8.2      2.968      6.447
REMARK  10 active torsions:
REMARK  status: ('A' for Active; 'I' for Inactive)
REMARK    1  A    between atoms: O_2  and  C_3 
REMARK    2  A    between atoms: C_3  and  C_4 
REMARK    3  A    between atoms: C_6  and  C_7 
REMARK    4  A    between atoms: C_7  and  C_8 
REMARK    5  A    between atoms: C_8  and  N_9 
REMARK       I    between atoms: N_9  and  C_10 
REMARK       I    between atoms: C_10  and  N_17 
REMARK    6  A    between atoms: N_17  and  CA_18 
REMARK    7  A    between atoms: CA_18  and  C_19 
REMARK    8  A    between atoms: CA_18  and  CB_21 
REMARK    9  A    between atoms: C_19  and  O_20 
REMARK   10  A    between atoms: CB_21  and  CG_22 
ROOT
HETATM    1  N   UNK A   0      24.843  45.318  51.263  1.00  0.00    -0.343 N 
HETATM    2  C   UNK A   0      25.181  46.560  51.696  1.00  0.00     0.316 C 
HETATM    3  O   UNK A   0      24.819  47.594  51.145  1.00  0.00    -0.248 OA
HETATM    4  H   UNK A   0      24.958  44.543  51.893  1.00  0.00     0.164 HD
ATOM      5  N   TRP A   1      25.995  46.621  52.776  1.00  0.00    -0.336 N 
ATOM      6  H   TRP A   1      26.173  47.575  53.074  1.00  0.00     0.164 HD
ENDROOT
BRANCH   5   7
ATOM      7  CA  TRP A   1      26.540  45.555  53.627  1.00  0.00     0.114 C 
BRANCH   7   8
ATOM      8  C   TRP A   1      25.392  44.929  54.451  1.00  0.00     0.189 C 
BRANCH   8   9
ATOM      9  O   TRP A   1      24.914  43.732  53.833  1.00  0.00    -0.399 OA
ATOM     10  H   TRP A   1      23.945  43.794  53.779  1.00  0.00     0.209 HD
ENDBRANCH   8   9
ENDBRANCH   7   8
BRANCH   7  11
ATOM     11  CB  TRP A   1      27.666  46.056  54.556  1.00  0.00     0.068 C 
BRANCH  11  12
ATOM     12  CG  TRP A   1      28.736  45.030  54.780  1.00  0.00    -0.028 A 
ATOM     13  CD2 TRP A   1      29.609  44.929  55.910  1.00  0.00    -0.002 A 
ATOM     14  CE2 TRP A   1      30.428  43.817  55.710  1.00  0.00     0.042 A 
ATOM     15  CE3 TRP A   1      29.778  45.679  57.093  1.00  0.00     0.014 A 
ATOM     16  CZ2 TRP A   1      31.400  43.413  56.632  1.00  0.00     0.030 A 
ATOM     17  NE1 TRP A   1      30.081  43.272  54.497  1.00  0.00    -0.365 N 
ATOM     18  CH2 TRP A   1      31.545  44.173  57.796  1.00  0.00     0.002 A 
ATOM     19  CZ3 TRP A   1      30.748  45.292  58.025  1.00  0.00     0.001 A 
ATOM     20  HE1 TRP A   1      30.520  42.456  54.091  1.00  0.00     0.165 HD
ATOM     21  CD1 TRP A   1      29.068  43.994  53.926  1.00  0.00     0.096 A 
ENDBRANCH  11  12
ENDBRANCH   7  11
ENDBRANCH   5   7
BRANCH   1  22
HETATM   22  C   UNK A   0      24.039  45.104  50.074  1.00  0.00     0.129 C 
BRANCH  22  23
HETATM   23  C   UNK A   0      23.187  43.826  50.107  1.00  0.00     0.058 C 
BRANCH  23  24
HETATM   24  C   UNK A   0      23.863  42.638  49.460  1.00  0.00    -0.056 A 
HETATM   25  C   UNK A   0      24.953  42.021  50.096  1.00  0.00     0.024 A 
HETATM   26  C   UNK A   0      25.574  40.901  49.527  1.00  0.00     0.040 A 
HETATM   27  C   UNK A   0      25.106  40.405  48.304  1.00  0.00     0.017 A 
HETATM   28  C   UNK A   0      24.026  41.015  47.665  1.00  0.00     0.002 A 
HETATM   29  C   UNK A   0      23.404  42.124  48.242  1.00  0.00     0.007 A 
BRANCH  26  30
HETATM   30  C   UNK A   0      26.721  40.210  50.177  1.00  0.00     0.292 C 
HETATM   31  O   UNK A   0      27.469  40.750  50.978  1.00  0.00    -0.259 OA
BRANCH  30  32
HETATM   32  O   UNK A   0      26.814  38.926  49.748  1.00  0.00    -0.323 OA
HETATM   33  C   UNK A   0      28.154  38.449  49.623  1.00  0.00     0.213 C 
ENDBRANCH  30  32
ENDBRANCH  26  30
ENDBRANCH  23  24
ENDBRANCH  22  23
ENDBRANCH   1  22
TORSDOF 10
ENDMDL
MODEL 10
REMARK VINA RESULT:      -8.2      2.441      3.677
REMARK  10 active torsions:
REMARK  status: ('A' for Active; 'I' for Inactive)
REMARK    1  A    between atoms: O_2  and  C_3 
REMARK    2  A    between atoms: C_3  and  C_4 
REMARK    3  A    between atoms: C_6  and  C_7 
REMARK    4  A    between atoms: C_7  and  C_8 
REMARK    5  A    between atoms: C_8  and  N_9 
REMARK       I    between atoms: N_9  and  C_10 
REMARK       I    between atoms: C_10  and  N_17 
REMARK    6  A    between atoms: N_17  and  CA_18 
REMARK    7  A    between atoms: CA_18  and  C_19 
REMARK    8  A    between atoms: CA_18  and  CB_21 
REMARK    9  A    between atoms: C_19  and  O_20 
REMARK   10  A    between atoms: CB_21  and  CG_22 
ROOT
HETATM    1  N   UNK A   0      25.831  46.711  50.415  1.00  0.00    -0.343 N 
HETATM    2  C   UNK A   0      25.753  46.672  51.770  1.00  0.00     0.316 C 
HETATM    3  O   UNK A   0      25.200  47.534  52.444  1.00  0.00    -0.248 OA
HETATM    4  H   UNK A   0      26.066  45.866  49.924  1.00  0.00     0.164 HD
ATOM      5  N   TRP A   1      26.364  45.629  52.380  1.00  0.00    -0.336 N 
ATOM      6  H   TRP A   1      26.230  45.636  53.386  1.00  0.00     0.164 HD
ENDROOT
BRANCH   5   7
ATOM      7  CA  TRP A   1      27.058  44.463  51.818  1.00  0.00     0.114 C 
BRANCH   7   8
ATOM      8  C   TRP A   1      26.287  43.966  50.574  1.00  0.00     0.189 C 
BRANCH   8   9
ATOM      9  O   TRP A   1      27.030  44.218  49.379  1.00  0.00    -0.399 OA
ATOM     10  H   TRP A   1      26.418  44.135  48.628  1.00  0.00     0.209 HD
ENDBRANCH   8   9
ENDBRANCH   7   8
BRANCH   7  11
ATOM     11  CB  TRP A   1      27.228  43.323  52.845  1.00  0.00     0.068 C 
BRANCH  11  12
ATOM     12  CG  TRP A   1      28.537  43.387  53.574  1.00  0.00    -0.028 A 
ATOM     13  CD2 TRP A   1      28.874  44.257  54.661  1.00  0.00    -0.002 A 
ATOM     14  CE2 TRP A   1      30.182  43.960  55.045  1.00  0.00     0.042 A 
ATOM     15  CE3 TRP A   1      28.185  45.270  55.360  1.00  0.00     0.014 A 
ATOM     16  CZ2 TRP A   1      30.834  44.617  56.094  1.00  0.00     0.030 A 
ATOM     17  NE1 TRP A   1      30.631  42.961  54.214  1.00  0.00    -0.365 N 
ATOM     18  CH2 TRP A   1      30.129  45.616  56.771  1.00  0.00     0.002 A 
ATOM     19  CZ3 TRP A   1      28.824  45.941  56.410  1.00  0.00     0.001 A 
ATOM     20  HE1 TRP A   1      31.555  42.554  54.259  1.00  0.00     0.165 HD
ATOM     21  CD1 TRP A   1      29.653  42.611  53.322  1.00  0.00     0.096 A 
ENDBRANCH  11  12
ENDBRANCH   7  11
ENDBRANCH   5   7
BRANCH   1  22
HETATM   22  C   UNK A   0      25.287  47.809  49.638  1.00  0.00     0.129 C 
BRANCH  22  23
HETATM   23  C   UNK A   0      23.870  47.562  49.097  1.00  0.00     0.058 C 
BRANCH  23  24
HETATM   24  C   UNK A   0      23.066  48.830  48.918  1.00  0.00    -0.056 A 
HETATM   25  C   UNK A   0      21.684  48.823  49.169  1.00  0.00     0.024 A 
HETATM   26  C   UNK A   0      20.927  49.995  49.037  1.00  0.00     0.040 A 
HETATM   27  C   UNK A   0      21.560  51.178  48.636  1.00  0.00     0.017 A 
HETATM   28  C   UNK A   0      22.932  51.191  48.382  1.00  0.00     0.002 A 
HETATM   29  C   UNK A   0      23.683  50.023  48.526  1.00  0.00     0.007 A 
BRANCH  26  30
HETATM   30  C   UNK A   0      19.464  50.033  49.308  1.00  0.00     0.292 C 
HETATM   31  O   UNK A   0      18.783  51.041  49.199  1.00  0.00    -0.259 OA
BRANCH  30  32
HETATM   32  O   UNK A   0      19.016  48.812  49.696  1.00  0.00    -0.323 OA
HETATM   33  C   UNK A   0      18.615  48.746  51.065  1.00  0.00     0.213 C 
ENDBRANCH  30  32
ENDBRANCH  26  30
ENDBRANCH  23  24
ENDBRANCH  22  23
ENDBRANCH   1  22
TORSDOF 10
ENDMDL
