MODEL 1
REMARK VINA RESULT:      -9.5      0.000      0.000
REMARK  10 active torsions:
REMARK  status: ('A' for Active; 'I' for Inactive)
REMARK    1  A    between atoms: N_15  and  C_16 
REMARK    2  A    between atoms: C_16  and  C_17 
REMARK    3  A    between atoms: C_17  and  N_18 
REMARK       I    between atoms: N_18  and  C_19 
REMARK    4  A    between atoms: C_19  and  C_20 
REMARK    5  A    between atoms: C_20  and  C_21 
REMARK    6  A    between atoms: C_21  and  C_22 
REMARK    7  A    between atoms: C_24  and  C_25 
REMARK    8  A    between atoms: C_29  and  O_30 
REMARK    9  A    between atoms: C_31  and  C_32 
REMARK   10  A    between atoms: C_38  and  O_39 
ROOT
HETATM    1  C   UNL     1      22.296  48.233  48.276  1.00  0.00     0.142 C 
ENDROOT
BRANCH   1   2
HETATM    2  C   UNL     1      21.032  48.508  49.098  1.00  0.00     0.151 C 
BRANCH   2   3
HETATM    3  N   UNL     1      20.358  49.768  48.758  1.00  0.00    -0.291 N 
HETATM    4  C   UNL     1      21.060  50.955  48.778  1.00  0.00     0.366 C 
HETATM    5  O   UNL     1      20.188  52.006  48.853  1.00  0.00    -0.287 OA
HETATM    6  O   UNL     1      22.271  51.091  48.754  1.00  0.00    -0.238 OA
HETATM    7  C   UNL     1      18.837  51.517  48.602  1.00  0.00     0.126 C 
HETATM    8  C   UNL     1      17.907  52.462  49.380  1.00  0.00     0.082 C 
HETATM    9  C   UNL     1      18.985  50.047  49.088  1.00  0.00     0.166 C 
HETATM   10  C   UNL     1      18.629  51.707  47.078  1.00  0.00     0.082 C 
HETATM   11  C   UNL     1      16.432  52.467  48.965  1.00  0.00     0.122 C 
HETATM   12  N   UNL     1      16.342  52.656  47.471  1.00  0.00    -0.059 N 
HETATM   13  C   UNL     1      15.738  53.698  49.588  1.00  0.00     0.046 C 
HETATM   14  C   UNL     1      15.635  51.237  49.398  1.00  0.00     0.046 C 
HETATM   15  C   UNL     1      17.193  51.824  46.539  1.00  0.00     0.122 C 
HETATM   16  H   UNL     1      16.568  53.645  47.281  1.00  0.00     0.279 HD
HETATM   17  H   UNL     1      15.357  52.569  47.180  1.00  0.00     0.279 HD
HETATM   18  C   UNL     1      17.239  52.611  45.205  1.00  0.00     0.046 C 
HETATM   19  C   UNL     1      16.489  50.499  46.233  1.00  0.00     0.046 C 
HETATM   20  C   UNL     1      18.725  49.832  50.585  1.00  0.00     0.074 C 
BRANCH   9  21
HETATM   21  O   UNL     1      18.160  49.192  48.331  1.00  0.00    -0.368 OA
HETATM   22  H   UNL     1      17.671  49.740  47.693  1.00  0.00     0.212 HD
ENDBRANCH   9  21
ENDBRANCH   2   3
ENDBRANCH   1   2
BRANCH   1  23
HETATM   23  N   UNL     1      23.082  47.117  48.764  1.00  0.00    -0.359 N 
HETATM   24  C   UNL     1      24.189  47.317  49.552  1.00  0.00     0.217 C 
HETATM   25  O   UNL     1      24.602  48.443  49.827  1.00  0.00    -0.274 OA
HETATM   26  H   UNL     1      22.757  46.174  48.559  1.00  0.00     0.162 HD
BRANCH  24  27
HETATM   27  C   UNL     1      24.806  46.090  50.195  1.00  0.00     0.107 C 
BRANCH  27  28
HETATM   28  C   UNL     1      26.205  45.691  49.735  1.00  0.00     0.048 C 
BRANCH  28  29
HETATM   29  C   UNL     1      26.730  44.365  50.234  1.00  0.00    -0.057 A 
HETATM   30  C   UNL     1      26.694  43.212  49.442  1.00  0.00     0.018 A 
HETATM   31  C   UNL     1      27.259  41.987  49.856  1.00  0.00    -0.016 A 
HETATM   32  C   UNL     1      27.916  41.997  51.109  1.00  0.00     0.079 A 
HETATM   33  C   UNL     1      28.002  43.141  51.941  1.00  0.00    -0.016 A 
HETATM   34  C   UNL     1      27.380  44.311  51.472  1.00  0.00     0.018 A 
BRANCH  31  35
HETATM   35  C   UNL     1      27.235  40.783  48.877  1.00  0.00    -0.021 C 
HETATM   36  C   UNL     1      26.382  41.185  47.656  1.00  0.00     0.019 C 
HETATM   37  C   UNL     1      28.616  40.315  48.362  1.00  0.00     0.019 C 
HETATM   38  C   UNL     1      26.600  39.521  49.521  1.00  0.00     0.019 C 
ENDBRANCH  31  35
BRANCH  32  39
HETATM   39  O   UNL     1      28.544  40.865  51.544  1.00  0.00    -0.360 OA
HETATM   40  H   UNL     1      28.205  40.707  52.440  1.00  0.00     0.217 HD
ENDBRANCH  32  39
BRANCH  33  41
HETATM   41  C   UNL     1      28.777  43.146  53.283  1.00  0.00    -0.021 C 
HETATM   42  C   UNL     1      28.269  42.006  54.194  1.00  0.00     0.019 C 
HETATM   43  C   UNL     1      30.305  42.920  53.121  1.00  0.00     0.019 C 
HETATM   44  C   UNL     1      28.629  44.505  54.003  1.00  0.00     0.019 C 
ENDBRANCH  33  41
ENDBRANCH  28  29
ENDBRANCH  27  28
ENDBRANCH  24  27
ENDBRANCH   1  23
TORSDOF 10
ENDMDL
MODEL 2
REMARK VINA RESULT:      -9.4      0.373      2.938
REMARK  10 active torsions:
REMARK  status: ('A' for Active; 'I' for Inactive)
REMARK    1  A    between atoms: N_15  and  C_16 
REMARK    2  A    between atoms: C_16  and  C_17 
REMARK    3  A    between atoms: C_17  and  N_18 
REMARK       I    between atoms: N_18  and  C_19 
REMARK    4  A    between atoms: C_19  and  C_20 
REMARK    5  A    between atoms: C_20  and  C_21 
REMARK    6  A    between atoms: C_21  and  C_22 
REMARK    7  A    between atoms: C_24  and  C_25 
REMARK    8  A    between atoms: C_29  and  O_30 
REMARK    9  A    between atoms: C_31  and  C_32 
REMARK   10  A    between atoms: C_38  and  O_39 
ROOT
HETATM    1  C   UNL     1      21.978  48.090  48.054  1.00  0.00     0.142 C 
ENDROOT
BRANCH   1   2
HETATM    2  C   UNL     1      20.930  48.538  49.080  1.00  0.00     0.151 C 
BRANCH   2   3
HETATM    3  N   UNL     1      20.266  49.804  48.745  1.00  0.00    -0.291 N 
HETATM    4  C   UNL     1      20.977  50.987  48.774  1.00  0.00     0.366 C 
HETATM    5  O   UNL     1      20.112  52.043  48.853  1.00  0.00    -0.287 OA
HETATM    6  O   UNL     1      22.189  51.114  48.754  1.00  0.00    -0.238 OA
HETATM    7  C   UNL     1      18.758  51.565  48.596  1.00  0.00     0.126 C 
HETATM    8  C   UNL     1      17.834  52.512  49.376  1.00  0.00     0.082 C 
HETATM    9  C   UNL     1      18.895  50.091  49.073  1.00  0.00     0.166 C 
HETATM   10  C   UNL     1      18.556  51.766  47.072  1.00  0.00     0.082 C 
HETATM   11  C   UNL     1      16.359  52.531  48.957  1.00  0.00     0.122 C 
HETATM   12  N   UNL     1      16.275  52.729  47.464  1.00  0.00    -0.059 N 
HETATM   13  C   UNL     1      15.673  53.763  49.585  1.00  0.00     0.046 C 
HETATM   14  C   UNL     1      15.553  51.303  49.381  1.00  0.00     0.046 C 
HETATM   15  C   UNL     1      17.123  51.896  46.530  1.00  0.00     0.122 C 
HETATM   16  H   UNL     1      16.508  53.717  47.280  1.00  0.00     0.279 HD
HETATM   17  H   UNL     1      15.290  52.651  47.170  1.00  0.00     0.279 HD
HETATM   18  C   UNL     1      17.178  52.689  45.201  1.00  0.00     0.046 C 
HETATM   19  C   UNL     1      16.410  50.577  46.214  1.00  0.00     0.046 C 
HETATM   20  C   UNL     1      18.629  49.870  50.568  1.00  0.00     0.074 C 
BRANCH   9  21
HETATM   21  O   UNL     1      18.066  49.246  48.309  1.00  0.00    -0.368 OA
HETATM   22  H   UNL     1      18.487  48.370  48.275  1.00  0.00     0.212 HD
ENDBRANCH   9  21
ENDBRANCH   2   3
ENDBRANCH   1   2
BRANCH   1  23
HETATM   23  N   UNL     1      22.817  46.999  48.509  1.00  0.00    -0.359 N 
HETATM   24  C   UNL     1      23.807  47.203  49.440  1.00  0.00     0.217 C 
HETATM   25  O   UNL     1      24.070  48.321  49.880  1.00  0.00    -0.274 OA
HETATM   26  H   UNL     1      22.614  46.061  48.169  1.00  0.00     0.162 HD
BRANCH  24  27
HETATM   27  C   UNL     1      24.473  45.969  50.017  1.00  0.00     0.107 C 
BRANCH  27  28
HETATM   28  C   UNL     1      25.969  46.055  50.304  1.00  0.00     0.048 C 
BRANCH  28  29
HETATM   29  C   UNL     1      26.685  44.750  50.565  1.00  0.00    -0.057 A 
HETATM   30  C   UNL     1      27.447  44.545  51.720  1.00  0.00     0.018 A 
HETATM   31  C   UNL     1      28.049  43.305  52.024  1.00  0.00    -0.016 A 
HETATM   32  C   UNL     1      27.799  42.252  51.112  1.00  0.00     0.079 A 
HETATM   33  C   UNL     1      27.016  42.398  49.940  1.00  0.00    -0.016 A 
HETATM   34  C   UNL     1      26.483  43.675  49.692  1.00  0.00     0.018 A 
BRANCH  31  35
HETATM   35  C   UNL     1      28.814  43.154  53.365  1.00  0.00    -0.021 C 
HETATM   36  C   UNL     1      28.112  42.054  54.188  1.00  0.00     0.019 C 
HETATM   37  C   UNL     1      30.309  42.777  53.240  1.00  0.00     0.019 C 
HETATM   38  C   UNL     1      28.802  44.467  54.195  1.00  0.00     0.019 C 
ENDBRANCH  31  35
BRANCH  32  39
HETATM   39  O   UNL     1      28.293  41.007  51.377  1.00  0.00    -0.360 OA
HETATM   40  H   UNL     1      28.211  40.893  52.338  1.00  0.00     0.217 HD
ENDBRANCH  32  39
BRANCH  33  41
HETATM   41  C   UNL     1      26.705  41.217  48.986  1.00  0.00    -0.021 C 
HETATM   42  C   UNL     1      25.604  41.622  47.981  1.00  0.00     0.019 C 
HETATM   43  C   UNL     1      27.922  40.765  48.135  1.00  0.00     0.019 C 
HETATM   44  C   UNL     1      26.261  39.967  49.780  1.00  0.00     0.019 C 
ENDBRANCH  33  41
ENDBRANCH  28  29
ENDBRANCH  27  28
ENDBRANCH  24  27
ENDBRANCH   1  23
TORSDOF 10
ENDMDL
MODEL 3
REMARK VINA RESULT:      -9.3      2.867     11.469
REMARK  10 active torsions:
REMARK  status: ('A' for Active; 'I' for Inactive)
REMARK    1  A    between atoms: N_15  and  C_16 
REMARK    2  A    between atoms: C_16  and  C_17 
REMARK    3  A    between atoms: C_17  and  N_18 
REMARK       I    between atoms: N_18  and  C_19 
REMARK    4  A    between atoms: C_19  and  C_20 
REMARK    5  A    between atoms: C_20  and  C_21 
REMARK    6  A    between atoms: C_21  and  C_22 
REMARK    7  A    between atoms: C_24  and  C_25 
REMARK    8  A    between atoms: C_29  and  O_30 
REMARK    9  A    between atoms: C_31  and  C_32 
REMARK   10  A    between atoms: C_38  and  O_39 
ROOT
HETATM    1  C   UNL     1      23.514  43.522  48.856  1.00  0.00     0.142 C 
ENDROOT
BRANCH   1   2
HETATM    2  C   UNL     1      23.496  44.215  50.224  1.00  0.00     0.151 C 
BRANCH   2   3
HETATM    3  N   UNL     1      24.829  44.537  50.751  1.00  0.00    -0.291 N 
HETATM    4  C   UNL     1      25.688  45.332  50.020  1.00  0.00     0.366 C 
HETATM    5  O   UNL     1      26.969  45.158  50.465  1.00  0.00    -0.287 OA
HETATM    6  O   UNL     1      25.394  46.074  49.099  1.00  0.00    -0.238 OA
HETATM    7  C   UNL     1      26.936  44.419  51.722  1.00  0.00     0.126 C 
HETATM    8  C   UNL     1      28.263  43.648  51.781  1.00  0.00     0.082 C 
HETATM    9  C   UNL     1      25.615  43.620  51.533  1.00  0.00     0.166 C 
HETATM   10  C   UNL     1      26.912  45.515  52.819  1.00  0.00     0.082 C 
HETATM   11  C   UNL     1      28.700  43.137  53.159  1.00  0.00     0.122 C 
HETATM   12  N   UNL     1      28.640  44.276  54.146  1.00  0.00    -0.059 N 
HETATM   13  C   UNL     1      30.184  42.715  53.092  1.00  0.00     0.046 C 
HETATM   14  C   UNL     1      27.914  41.934  53.679  1.00  0.00     0.046 C 
HETATM   15  C   UNL     1      27.416  45.159  54.228  1.00  0.00     0.122 C 
HETATM   16  H   UNL     1      29.441  44.893  53.941  1.00  0.00     0.279 HD
HETATM   17  H   UNL     1      28.845  43.913  55.089  1.00  0.00     0.279 HD
HETATM   18  C   UNL     1      27.888  46.463  54.917  1.00  0.00     0.046 C 
HETATM   19  C   UNL     1      26.379  44.529  55.163  1.00  0.00     0.046 C 
HETATM   20  C   UNL     1      25.771  42.275  50.812  1.00  0.00     0.074 C 
BRANCH   9  21
HETATM   21  O   UNL     1      24.974  43.427  52.774  1.00  0.00    -0.368 OA
HETATM   22  H   UNL     1      24.363  44.171  52.910  1.00  0.00     0.212 HD
ENDBRANCH   9  21
ENDBRANCH   2   3
ENDBRANCH   1   2
BRANCH   1  23
HETATM   23  N   UNL     1      23.145  44.388  47.755  1.00  0.00    -0.359 N 
HETATM   24  C   UNL     1      21.832  44.552  47.387  1.00  0.00     0.217 C 
HETATM   25  O   UNL     1      20.919  43.929  47.928  1.00  0.00    -0.274 OA
HETATM   26  H   UNL     1      23.880  44.924  47.296  1.00  0.00     0.162 HD
BRANCH  24  27
HETATM   27  C   UNL     1      21.531  45.646  46.380  1.00  0.00     0.107 C 
BRANCH  27  28
HETATM   28  C   UNL     1      20.146  46.284  46.439  1.00  0.00     0.048 C 
BRANCH  28  29
HETATM   29  C   UNL     1      20.089  47.743  46.828  1.00  0.00    -0.057 A 
HETATM   30  C   UNL     1      18.954  48.526  46.589  1.00  0.00     0.018 A 
HETATM   31  C   UNL     1      18.848  49.864  47.024  1.00  0.00    -0.016 A 
HETATM   32  C   UNL     1      19.943  50.365  47.767  1.00  0.00     0.079 A 
HETATM   33  C   UNL     1      21.106  49.609  48.057  1.00  0.00    -0.016 A 
HETATM   34  C   UNL     1      21.147  48.297  47.555  1.00  0.00     0.018 A 
BRANCH  31  35
HETATM   35  C   UNL     1      17.520  50.628  46.777  1.00  0.00    -0.021 C 
HETATM   36  C   UNL     1      16.570  49.687  46.006  1.00  0.00     0.019 C 
HETATM   37  C   UNL     1      16.784  51.113  48.048  1.00  0.00     0.019 C 
HETATM   38  C   UNL     1      17.734  51.909  45.925  1.00  0.00     0.019 C 
ENDBRANCH  31  35
BRANCH  32  39
HETATM   39  O   UNL     1      19.881  51.630  48.278  1.00  0.00    -0.360 OA
HETATM   40  H   UNL     1      18.940  51.794  48.454  1.00  0.00     0.217 HD
ENDBRANCH  32  39
BRANCH  33  41
HETATM   41  C   UNL     1      22.268  50.158  48.923  1.00  0.00    -0.021 C 
HETATM   42  C   UNL     1      23.075  51.207  48.126  1.00  0.00     0.019 C 
HETATM   43  C   UNL     1      21.797  50.870  50.220  1.00  0.00     0.019 C 
HETATM   44  C   UNL     1      23.200  49.016  49.387  1.00  0.00     0.019 C 
ENDBRANCH  33  41
ENDBRANCH  28  29
ENDBRANCH  27  28
ENDBRANCH  24  27
ENDBRANCH   1  23
TORSDOF 10
ENDMDL
MODEL 4
REMARK VINA RESULT:      -9.2      2.673     11.745
REMARK  10 active torsions:
REMARK  status: ('A' for Active; 'I' for Inactive)
REMARK    1  A    between atoms: N_15  and  C_16 
REMARK    2  A    between atoms: C_16  and  C_17 
REMARK    3  A    between atoms: C_17  and  N_18 
REMARK       I    between atoms: N_18  and  C_19 
REMARK    4  A    between atoms: C_19  and  C_20 
REMARK    5  A    between atoms: C_20  and  C_21 
REMARK    6  A    between atoms: C_21  and  C_22 
REMARK    7  A    between atoms: C_24  and  C_25 
REMARK    8  A    between atoms: C_29  and  O_30 
REMARK    9  A    between atoms: C_31  and  C_32 
REMARK   10  A    between atoms: C_38  and  O_39 
ROOT
HETATM    1  C   UNL     1      22.648  44.601  49.658  1.00  0.00     0.142 C 
ENDROOT
BRANCH   1   2
HETATM    2  C   UNL     1      23.802  43.592  49.659  1.00  0.00     0.151 C 
BRANCH   2   3
HETATM    3  N   UNL     1      25.008  44.060  50.356  1.00  0.00    -0.291 N 
HETATM    4  C   UNL     1      25.836  44.987  49.758  1.00  0.00     0.366 C 
HETATM    5  O   UNL     1      27.067  44.959  50.355  1.00  0.00    -0.287 OA
HETATM    6  O   UNL     1      25.561  45.723  48.826  1.00  0.00    -0.238 OA
HETATM    7  C   UNL     1      26.979  44.171  51.580  1.00  0.00     0.126 C 
HETATM    8  C   UNL     1      28.380  43.574  51.784  1.00  0.00     0.082 C 
HETATM    9  C   UNL     1      25.807  43.219  51.207  1.00  0.00     0.166 C 
HETATM   10  C   UNL     1      26.679  45.209  52.692  1.00  0.00     0.082 C 
HETATM   11  C   UNL     1      28.710  43.067  53.193  1.00  0.00     0.122 C 
HETATM   12  N   UNL     1      28.382  44.148  54.193  1.00  0.00    -0.059 N 
HETATM   13  C   UNL     1      30.234  42.840  53.302  1.00  0.00     0.046 C 
HETATM   14  C   UNL     1      28.033  41.753  53.581  1.00  0.00     0.046 C 
HETATM   15  C   UNL     1      27.052  44.863  54.143  1.00  0.00     0.122 C 
HETATM   16  H   UNL     1      29.115  44.869  54.105  1.00  0.00     0.279 HD
HETATM   17  H   UNL     1      28.518  43.775  55.145  1.00  0.00     0.279 HD
HETATM   18  C   UNL     1      27.262  46.187  54.918  1.00  0.00     0.046 C 
HETATM   19  C   UNL     1      26.002  44.069  54.926  1.00  0.00     0.046 C 
HETATM   20  C   UNL     1      26.225  41.935  50.478  1.00  0.00     0.074 C 
BRANCH   9  21
HETATM   21  O   UNL     1      25.052  42.895  52.352  1.00  0.00    -0.368 OA
HETATM   22  H   UNL     1      25.287  41.989  52.615  1.00  0.00     0.212 HD
ENDBRANCH   9  21
ENDBRANCH   2   3
ENDBRANCH   1   2
BRANCH   1  23
HETATM   23  N   UNL     1      22.494  45.316  48.408  1.00  0.00    -0.359 N 
HETATM   24  C   UNL     1      21.566  44.926  47.474  1.00  0.00     0.217 C 
HETATM   25  O   UNL     1      20.870  43.922  47.623  1.00  0.00    -0.274 OA
HETATM   26  H   UNL     1      23.051  46.157  48.262  1.00  0.00     0.162 HD
BRANCH  24  27
HETATM   27  C   UNL     1      21.325  45.866  46.308  1.00  0.00     0.107 C 
BRANCH  27  28
HETATM   28  C   UNL     1      19.972  46.567  46.247  1.00  0.00     0.048 C 
BRANCH  28  29
HETATM   29  C   UNL     1      19.872  47.908  46.936  1.00  0.00    -0.057 A 
HETATM   30  C   UNL     1      20.935  48.441  47.673  1.00  0.00     0.018 A 
HETATM   31  C   UNL     1      20.892  49.729  48.248  1.00  0.00    -0.016 A 
HETATM   32  C   UNL     1      19.722  50.483  47.998  1.00  0.00     0.079 A 
HETATM   33  C   UNL     1      18.625  50.002  47.240  1.00  0.00    -0.016 A 
HETATM   34  C   UNL     1      18.733  48.696  46.734  1.00  0.00     0.018 A 
BRANCH  31  35
HETATM   35  C   UNL     1      22.150  50.261  48.985  1.00  0.00    -0.021 C 
HETATM   36  C   UNL     1      23.052  49.053  49.314  1.00  0.00     0.019 C 
HETATM   37  C   UNL     1      22.997  51.290  48.199  1.00  0.00     0.019 C 
HETATM   38  C   UNL     1      21.788  50.975  50.315  1.00  0.00     0.019 C 
ENDBRANCH  31  35
BRANCH  32  39
HETATM   39  O   UNL     1      19.638  51.763  48.467  1.00  0.00    -0.360 OA
HETATM   40  H   UNL     1      19.322  52.295  47.718  1.00  0.00     0.217 HD
ENDBRANCH  32  39
BRANCH  33  41
HETATM   41  C   UNL     1      17.378  50.867  46.928  1.00  0.00    -0.021 C 
HETATM   42  C   UNL     1      16.262  49.989  46.317  1.00  0.00     0.019 C 
HETATM   43  C   UNL     1      16.758  51.543  48.181  1.00  0.00     0.019 C 
HETATM   44  C   UNL     1      17.731  52.020  45.961  1.00  0.00     0.019 C 
ENDBRANCH  33  41
ENDBRANCH  28  29
ENDBRANCH  27  28
ENDBRANCH  24  27
ENDBRANCH   1  23
TORSDOF 10
ENDMDL
MODEL 5
REMARK VINA RESULT:      -9.1      1.651      2.779
REMARK  10 active torsions:
REMARK  status: ('A' for Active; 'I' for Inactive)
REMARK    1  A    between atoms: N_15  and  C_16 
REMARK    2  A    between atoms: C_16  and  C_17 
REMARK    3  A    between atoms: C_17  and  N_18 
REMARK       I    between atoms: N_18  and  C_19 
REMARK    4  A    between atoms: C_19  and  C_20 
REMARK    5  A    between atoms: C_20  and  C_21 
REMARK    6  A    between atoms: C_21  and  C_22 
REMARK    7  A    between atoms: C_24  and  C_25 
REMARK    8  A    between atoms: C_29  and  O_30 
REMARK    9  A    between atoms: C_31  and  C_32 
REMARK   10  A    between atoms: C_38  and  O_39 
ROOT
HETATM    1  C   UNL     1      22.353  48.267  48.265  1.00  0.00     0.142 C 
ENDROOT
BRANCH   1   2
HETATM    2  C   UNL     1      21.145  48.587  49.154  1.00  0.00     0.151 C 
BRANCH   2   3
HETATM    3  N   UNL     1      20.434  49.817  48.780  1.00  0.00    -0.291 N 
HETATM    4  C   UNL     1      21.092  51.030  48.803  1.00  0.00     0.366 C 
HETATM    5  O   UNL     1      20.180  52.048  48.843  1.00  0.00    -0.287 OA
HETATM    6  O   UNL     1      22.297  51.210  48.808  1.00  0.00    -0.238 OA
HETATM    7  C   UNL     1      18.855  51.507  48.565  1.00  0.00     0.126 C 
HETATM    8  C   UNL     1      17.872  52.425  49.307  1.00  0.00     0.082 C 
HETATM    9  C   UNL     1      19.044  50.049  49.072  1.00  0.00     0.166 C 
HETATM   10  C   UNL     1      18.679  51.671  47.033  1.00  0.00     0.082 C 
HETATM   11  C   UNL     1      16.408  52.372  48.854  1.00  0.00     0.122 C 
HETATM   12  N   UNL     1      16.350  52.540  47.356  1.00  0.00    -0.059 N 
HETATM   13  C   UNL     1      15.654  53.583  49.444  1.00  0.00     0.046 C 
HETATM   14  C   UNL     1      15.646  51.118  49.283  1.00  0.00     0.046 C 
HETATM   15  C   UNL     1      17.255  51.729  46.457  1.00  0.00     0.122 C 
HETATM   16  H   UNL     1      16.544  53.534  47.159  1.00  0.00     0.279 HD
HETATM   17  H   UNL     1      15.376  52.413  47.042  1.00  0.00     0.279 HD
HETATM   18  C   UNL     1      17.306  52.501  45.115  1.00  0.00     0.046 C 
HETATM   19  C   UNL     1      16.608  50.375  46.150  1.00  0.00     0.046 C 
HETATM   20  C   UNL     1      18.754  49.842  50.565  1.00  0.00     0.074 C 
BRANCH   9  21
HETATM   21  O   UNL     1      18.271  49.155  48.305  1.00  0.00    -0.368 OA
HETATM   22  H   UNL     1      17.954  48.453  48.899  1.00  0.00     0.212 HD
ENDBRANCH   9  21
ENDBRANCH   2   3
ENDBRANCH   1   2
BRANCH   1  23
HETATM   23  N   UNL     1      23.429  47.590  48.959  1.00  0.00    -0.359 N 
HETATM   24  C   UNL     1      24.628  48.218  49.199  1.00  0.00     0.217 C 
HETATM   25  O   UNL     1      24.867  49.351  48.785  1.00  0.00    -0.274 OA
HETATM   26  H   UNL     1      23.255  46.655  49.321  1.00  0.00     0.162 HD
BRANCH  24  27
HETATM   27  C   UNL     1      25.600  47.512  50.125  1.00  0.00     0.107 C 
BRANCH  27  28
HETATM   28  C   UNL     1      25.065  46.329  50.926  1.00  0.00     0.048 C 
BRANCH  28  29
HETATM   29  C   UNL     1      25.971  45.773  52.000  1.00  0.00    -0.057 A 
HETATM   30  C   UNL     1      26.570  44.514  51.881  1.00  0.00     0.018 A 
HETATM   31  C   UNL     1      27.487  44.016  52.830  1.00  0.00    -0.016 A 
HETATM   32  C   UNL     1      27.812  44.886  53.898  1.00  0.00     0.079 A 
HETATM   33  C   UNL     1      27.254  46.179  54.054  1.00  0.00    -0.016 A 
HETATM   34  C   UNL     1      26.320  46.584  53.085  1.00  0.00     0.018 A 
BRANCH  31  35
HETATM   35  C   UNL     1      28.155  42.639  52.574  1.00  0.00    -0.021 C 
HETATM   36  C   UNL     1      27.695  41.676  53.688  1.00  0.00     0.019 C 
HETATM   37  C   UNL     1      27.829  41.984  51.211  1.00  0.00     0.019 C 
HETATM   38  C   UNL     1      29.705  42.726  52.614  1.00  0.00     0.019 C 
ENDBRANCH  31  35
BRANCH  32  39
HETATM   39  O   UNL     1      28.744  44.497  54.817  1.00  0.00    -0.360 OA
HETATM   40  H   UNL     1      29.500  45.094  54.691  1.00  0.00     0.217 HD
ENDBRANCH  32  39
BRANCH  33  41
HETATM   41  C   UNL     1      27.669  47.139  55.198  1.00  0.00    -0.021 C 
HETATM   42  C   UNL     1      26.517  48.120  55.511  1.00  0.00     0.019 C 
HETATM   43  C   UNL     1      27.995  46.415  56.532  1.00  0.00     0.019 C 
HETATM   44  C   UNL     1      28.945  47.926  54.824  1.00  0.00     0.019 C 
ENDBRANCH  33  41
ENDBRANCH  28  29
ENDBRANCH  27  28
ENDBRANCH  24  27
ENDBRANCH   1  23
TORSDOF 10
ENDMDL
MODEL 6
REMARK VINA RESULT:      -8.9     13.396     15.384
REMARK  10 active torsions:
REMARK  status: ('A' for Active; 'I' for Inactive)
REMARK    1  A    between atoms: N_15  and  C_16 
REMARK    2  A    between atoms: C_16  and  C_17 
REMARK    3  A    between atoms: C_17  and  N_18 
REMARK       I    between atoms: N_18  and  C_19 
REMARK    4  A    between atoms: C_19  and  C_20 
REMARK    5  A    between atoms: C_20  and  C_21 
REMARK    6  A    between atoms: C_21  and  C_22 
REMARK    7  A    between atoms: C_24  and  C_25 
REMARK    8  A    between atoms: C_29  and  O_30 
REMARK    9  A    between atoms: C_31  and  C_32 
REMARK   10  A    between atoms: C_38  and  O_39 
ROOT
HETATM    1  C   UNL     1      31.754  52.050  43.644  1.00  0.00     0.142 C 
ENDROOT
BRANCH   1   2
HETATM    2  C   UNL     1      30.722  52.744  42.748  1.00  0.00     0.151 C 
BRANCH   2   3
HETATM    3  N   UNL     1      30.449  52.037  41.490  1.00  0.00    -0.291 N 
HETATM    4  C   UNL     1      31.008  52.483  40.310  1.00  0.00     0.366 C 
HETATM    5  O   UNL     1      30.312  51.974  39.248  1.00  0.00    -0.287 OA
HETATM    6  O   UNL     1      31.962  53.231  40.188  1.00  0.00    -0.238 OA
HETATM    7  C   UNL     1      29.415  50.929  39.729  1.00  0.00     0.126 C 
HETATM    8  C   UNL     1      28.227  50.928  38.755  1.00  0.00     0.082 C 
HETATM    9  C   UNL     1      29.185  51.418  41.187  1.00  0.00     0.166 C 
HETATM   10  C   UNL     1      30.226  49.617  39.576  1.00  0.00     0.082 C 
HETATM   11  C   UNL     1      27.350  49.671  38.743  1.00  0.00     0.122 C 
HETATM   12  N   UNL     1      28.234  48.457  38.592  1.00  0.00    -0.059 N 
HETATM   13  C   UNL     1      26.450  49.696  37.489  1.00  0.00     0.046 C 
HETATM   14  C   UNL     1      26.429  49.516  39.953  1.00  0.00     0.046 C 
HETATM   15  C   UNL     1      29.461  48.288  39.457  1.00  0.00     0.122 C 
HETATM   16  H   UNL     1      28.553  48.440  37.611  1.00  0.00     0.279 HD
HETATM   17  H   UNL     1      27.654  47.608  38.676  1.00  0.00     0.279 HD
HETATM   18  C   UNL     1      30.362  47.276  38.706  1.00  0.00     0.046 C 
HETATM   19  C   UNL     1      29.079  47.622  40.782  1.00  0.00     0.046 C 
HETATM   20  C   UNL     1      28.030  52.412  41.361  1.00  0.00     0.074 C 
BRANCH   9  21
HETATM   21  O   UNL     1      29.007  50.320  42.053  1.00  0.00    -0.368 OA
HETATM   22  H   UNL     1      28.244  49.809  41.730  1.00  0.00     0.212 HD
ENDBRANCH   9  21
ENDBRANCH   2   3
ENDBRANCH   1   2
BRANCH   1  23
HETATM   23  N   UNL     1      33.019  51.785  42.988  1.00  0.00    -0.359 N 
HETATM   24  C   UNL     1      33.303  50.549  42.461  1.00  0.00     0.217 C 
HETATM   25  O   UNL     1      32.532  49.597  42.575  1.00  0.00    -0.274 OA
HETATM   26  H   UNL     1      33.671  52.558  42.871  1.00  0.00     0.162 HD
BRANCH  24  27
HETATM   27  C   UNL     1      34.547  50.437  41.601  1.00  0.00     0.107 C 
BRANCH  27  28
HETATM   28  C   UNL     1      35.894  50.507  42.313  1.00  0.00     0.048 C 
BRANCH  28  29
HETATM   29  C   UNL     1      36.608  51.839  42.283  1.00  0.00    -0.057 A 
HETATM   30  C   UNL     1      36.556  52.679  41.165  1.00  0.00     0.018 A 
HETATM   31  C   UNL     1      37.141  53.963  41.152  1.00  0.00    -0.016 A 
HETATM   32  C   UNL     1      37.749  54.383  42.358  1.00  0.00     0.079 A 
HETATM   33  C   UNL     1      37.811  53.582  43.526  1.00  0.00    -0.016 A 
HETATM   34  C   UNL     1      37.236  52.302  43.444  1.00  0.00     0.018 A 
BRANCH  31  35
HETATM   35  C   UNL     1      36.966  54.851  39.891  1.00  0.00    -0.021 C 
HETATM   36  C   UNL     1      36.193  54.030  38.838  1.00  0.00     0.019 C 
HETATM   37  C   UNL     1      36.207  56.181  40.113  1.00  0.00     0.019 C 
HETATM   38  C   UNL     1      38.331  55.268  39.279  1.00  0.00     0.019 C 
ENDBRANCH  31  35
BRANCH  32  39
HETATM   39  O   UNL     1      38.277  55.640  42.440  1.00  0.00    -0.360 OA
HETATM   40  H   UNL     1      39.080  55.620  41.894  1.00  0.00     0.217 HD
ENDBRANCH  32  39
BRANCH  33  41
HETATM   41  C   UNL     1      38.429  54.084  44.856  1.00  0.00    -0.021 C 
HETATM   42  C   UNL     1      39.945  54.324  44.678  1.00  0.00     0.019 C 
HETATM   43  C   UNL     1      37.834  55.429  45.352  1.00  0.00     0.019 C 
HETATM   44  C   UNL     1      38.185  53.071  45.997  1.00  0.00     0.019 C 
ENDBRANCH  33  41
ENDBRANCH  28  29
ENDBRANCH  27  28
ENDBRANCH  24  27
ENDBRANCH   1  23
TORSDOF 10
ENDMDL
MODEL 7
REMARK VINA RESULT:      -8.9     13.408     15.587
REMARK  10 active torsions:
REMARK  status: ('A' for Active; 'I' for Inactive)
REMARK    1  A    between atoms: N_15  and  C_16 
REMARK    2  A    between atoms: C_16  and  C_17 
REMARK    3  A    between atoms: C_17  and  N_18 
REMARK       I    between atoms: N_18  and  C_19 
REMARK    4  A    between atoms: C_19  and  C_20 
REMARK    5  A    between atoms: C_20  and  C_21 
REMARK    6  A    between atoms: C_21  and  C_22 
REMARK    7  A    between atoms: C_24  and  C_25 
REMARK    8  A    between atoms: C_29  and  O_30 
REMARK    9  A    between atoms: C_31  and  C_32 
REMARK   10  A    between atoms: C_38  and  O_39 
ROOT
HETATM    1  C   UNL     1      31.784  52.038  43.639  1.00  0.00     0.142 C 
ENDROOT
BRANCH   1   2
HETATM    2  C   UNL     1      30.757  52.742  42.745  1.00  0.00     0.151 C 
BRANCH   2   3
HETATM    3  N   UNL     1      30.476  52.039  41.486  1.00  0.00    -0.291 N 
HETATM    4  C   UNL     1      31.043  52.477  40.307  1.00  0.00     0.366 C 
HETATM    5  O   UNL     1      30.342  51.978  39.244  1.00  0.00    -0.287 OA
HETATM    6  O   UNL     1      32.007  53.213  40.187  1.00  0.00    -0.238 OA
HETATM    7  C   UNL     1      29.431  50.945  39.724  1.00  0.00     0.126 C 
HETATM    8  C   UNL     1      28.245  50.960  38.747  1.00  0.00     0.082 C 
HETATM    9  C   UNL     1      29.206  51.436  41.182  1.00  0.00     0.166 C 
HETATM   10  C   UNL     1      30.225  49.622  39.571  1.00  0.00     0.082 C 
HETATM   11  C   UNL     1      27.351  49.714  38.734  1.00  0.00     0.122 C 
HETATM   12  N   UNL     1      28.219  48.488  38.584  1.00  0.00    -0.059 N 
HETATM   13  C   UNL     1      26.453  49.751  37.479  1.00  0.00     0.046 C 
HETATM   14  C   UNL     1      26.427  49.570  39.943  1.00  0.00     0.046 C 
HETATM   15  C   UNL     1      29.443  48.303  39.451  1.00  0.00     0.122 C 
HETATM   16  H   UNL     1      28.540  48.468  37.603  1.00  0.00     0.279 HD
HETATM   17  H   UNL     1      27.628  47.647  38.667  1.00  0.00     0.279 HD
HETATM   18  C   UNL     1      30.332  47.280  38.701  1.00  0.00     0.046 C 
HETATM   19  C   UNL     1      29.050  47.642  40.775  1.00  0.00     0.046 C 
HETATM   20  C   UNL     1      28.063  52.445  41.354  1.00  0.00     0.074 C 
BRANCH   9  21
HETATM   21  O   UNL     1      29.011  50.340  42.047  1.00  0.00    -0.368 OA
HETATM   22  H   UNL     1      28.060  50.140  42.061  1.00  0.00     0.212 HD
ENDBRANCH   9  21
ENDBRANCH   2   3
ENDBRANCH   1   2
BRANCH   1  23
HETATM   23  N   UNL     1      33.040  51.750  42.977  1.00  0.00    -0.359 N 
HETATM   24  C   UNL     1      33.304  50.505  42.459  1.00  0.00     0.217 C 
HETATM   25  O   UNL     1      32.521  49.565  42.587  1.00  0.00    -0.274 OA
HETATM   26  H   UNL     1      33.703  52.513  42.849  1.00  0.00     0.162 HD
BRANCH  24  27
HETATM   27  C   UNL     1      34.540  50.369  41.592  1.00  0.00     0.107 C 
BRANCH  27  28
HETATM   28  C   UNL     1      35.893  50.519  42.280  1.00  0.00     0.048 C 
BRANCH  28  29
HETATM   29  C   UNL     1      36.461  51.917  42.361  1.00  0.00    -0.057 A 
HETATM   30  C   UNL     1      37.086  52.394  43.519  1.00  0.00     0.018 A 
HETATM   31  C   UNL     1      37.700  53.663  43.584  1.00  0.00    -0.016 A 
HETATM   32  C   UNL     1      37.693  54.420  42.388  1.00  0.00     0.079 A 
HETATM   33  C   UNL     1      37.095  53.976  41.182  1.00  0.00    -0.016 A 
HETATM   34  C   UNL     1      36.473  52.716  41.213  1.00  0.00     0.018 A 
BRANCH  31  35
HETATM   35  C   UNL     1      38.432  54.073  44.889  1.00  0.00    -0.021 C 
HETATM   36  C   UNL     1      38.202  52.958  45.930  1.00  0.00     0.019 C 
HETATM   37  C   UNL     1      39.957  54.295  44.756  1.00  0.00     0.019 C 
HETATM   38  C   UNL     1      37.884  55.404  45.471  1.00  0.00     0.019 C 
ENDBRANCH  31  35
BRANCH  32  39
HETATM   39  O   UNL     1      38.328  55.628  42.359  1.00  0.00    -0.360 OA
HETATM   40  H   UNL     1      38.975  55.600  43.082  1.00  0.00     0.217 HD
ENDBRANCH  32  39
BRANCH  33  41
HETATM   41  C   UNL     1      37.152  54.795  39.868  1.00  0.00    -0.021 C 
HETATM   42  C   UNL     1      38.619  55.114  39.504  1.00  0.00     0.019 C 
HETATM   43  C   UNL     1      36.555  54.050  38.643  1.00  0.00     0.019 C 
HETATM   44  C   UNL     1      36.343  56.105  39.997  1.00  0.00     0.019 C 
ENDBRANCH  33  41
ENDBRANCH  28  29
ENDBRANCH  27  28
ENDBRANCH  24  27
ENDBRANCH   1  23
TORSDOF 10
ENDMDL
MODEL 8
REMARK VINA RESULT:      -8.8      1.952      3.814
REMARK  10 active torsions:
REMARK  status: ('A' for Active; 'I' for Inactive)
REMARK    1  A    between atoms: N_15  and  C_16 
REMARK    2  A    between atoms: C_16  and  C_17 
REMARK    3  A    between atoms: C_17  and  N_18 
REMARK       I    between atoms: N_18  and  C_19 
REMARK    4  A    between atoms: C_19  and  C_20 
REMARK    5  A    between atoms: C_20  and  C_21 
REMARK    6  A    between atoms: C_21  and  C_22 
REMARK    7  A    between atoms: C_24  and  C_25 
REMARK    8  A    between atoms: C_29  and  O_30 
REMARK    9  A    between atoms: C_31  and  C_32 
REMARK   10  A    between atoms: C_38  and  O_39 
ROOT
HETATM    1  C   UNL     1      22.344  47.860  48.653  1.00  0.00     0.142 C 
ENDROOT
BRANCH   1   2
HETATM    2  C   UNL     1      21.302  48.658  49.446  1.00  0.00     0.151 C 
BRANCH   2   3
HETATM    3  N   UNL     1      20.553  49.631  48.640  1.00  0.00    -0.291 N 
HETATM    4  C   UNL     1      21.038  50.913  48.475  1.00  0.00     0.366 C 
HETATM    5  O   UNL     1      20.025  51.741  48.077  1.00  0.00    -0.287 OA
HETATM    6  O   UNL     1      22.180  51.294  48.663  1.00  0.00    -0.238 OA
HETATM    7  C   UNL     1      18.872  50.931  47.701  1.00  0.00     0.126 C 
HETATM    8  C   UNL     1      17.644  51.811  47.981  1.00  0.00     0.082 C 
HETATM    9  C   UNL     1      19.115  49.681  48.593  1.00  0.00     0.166 C 
HETATM   10  C   UNL     1      19.029  50.713  46.174  1.00  0.00     0.082 C 
HETATM   11  C   UNL     1      16.338  51.406  47.287  1.00  0.00     0.122 C 
HETATM   12  N   UNL     1      16.601  51.218  45.814  1.00  0.00    -0.059 N 
HETATM   13  C   UNL     1      15.330  52.571  47.391  1.00  0.00     0.046 C 
HETATM   14  C   UNL     1      15.654  50.169  47.871  1.00  0.00     0.046 C 
HETATM   15  C   UNL     1      17.776  50.393  45.342  1.00  0.00     0.122 C 
HETATM   16  H   UNL     1      16.714  52.161  45.408  1.00  0.00     0.279 HD
HETATM   17  H   UNL     1      15.746  50.859  45.363  1.00  0.00     0.279 HD
HETATM   18  C   UNL     1      18.037  50.839  43.882  1.00  0.00     0.046 C 
HETATM   19  C   UNL     1      17.383  48.914  45.277  1.00  0.00     0.046 C 
HETATM   20  C   UNL     1      18.521  49.770  50.005  1.00  0.00     0.074 C 
BRANCH   9  21
HETATM   21  O   UNL     1      18.648  48.517  47.949  1.00  0.00    -0.368 OA
HETATM   22  H   UNL     1      19.409  47.925  47.821  1.00  0.00     0.212 HD
ENDBRANCH   9  21
ENDBRANCH   2   3
ENDBRANCH   1   2
BRANCH   1  23
HETATM   23  N   UNL     1      23.210  47.043  49.478  1.00  0.00    -0.359 N 
HETATM   24  C   UNL     1      23.560  45.769  49.101  1.00  0.00     0.217 C 
HETATM   25  O   UNL     1      23.108  45.241  48.086  1.00  0.00    -0.274 OA
HETATM   26  H   UNL     1      23.606  47.459  50.319  1.00  0.00     0.162 HD
BRANCH  24  27
HETATM   27  C   UNL     1      24.644  45.085  49.911  1.00  0.00     0.107 C 
BRANCH  27  28
HETATM   28  C   UNL     1      24.513  45.133  51.430  1.00  0.00     0.048 C 
BRANCH  28  29
HETATM   29  C   UNL     1      25.795  45.034  52.224  1.00  0.00    -0.057 A 
HETATM   30  C   UNL     1      26.160  46.007  53.160  1.00  0.00     0.018 A 
HETATM   31  C   UNL     1      27.306  45.887  53.974  1.00  0.00    -0.016 A 
HETATM   32  C   UNL     1      28.051  44.693  53.828  1.00  0.00     0.079 A 
HETATM   33  C   UNL     1      27.714  43.665  52.912  1.00  0.00    -0.016 A 
HETATM   34  C   UNL     1      26.578  43.880  52.113  1.00  0.00     0.018 A 
BRANCH  31  35
HETATM   35  C   UNL     1      27.588  46.984  55.036  1.00  0.00    -0.021 C 
HETATM   36  C   UNL     1      28.770  47.837  54.531  1.00  0.00     0.019 C 
HETATM   37  C   UNL     1      26.407  47.935  55.340  1.00  0.00     0.019 C 
HETATM   38  C   UNL     1      27.977  46.377  56.411  1.00  0.00     0.019 C 
ENDBRANCH  31  35
BRANCH  32  39
HETATM   39  O   UNL     1      29.135  44.478  54.630  1.00  0.00    -0.360 OA
HETATM   40  H   UNL     1      28.831  44.666  55.534  1.00  0.00     0.217 HD
ENDBRANCH  32  39
BRANCH  33  41
HETATM   41  C   UNL     1      28.510  42.339  52.809  1.00  0.00    -0.021 C 
HETATM   42  C   UNL     1      28.272  41.683  51.431  1.00  0.00     0.019 C 
HETATM   43  C   UNL     1      30.046  42.522  52.941  1.00  0.00     0.019 C 
HETATM   44  C   UNL     1      28.106  41.363  53.937  1.00  0.00     0.019 C 
ENDBRANCH  33  41
ENDBRANCH  28  29
ENDBRANCH  27  28
ENDBRANCH  24  27
ENDBRANCH   1  23
TORSDOF 10
ENDMDL
MODEL 9
REMARK VINA RESULT:      -8.7     13.125     14.926
REMARK  10 active torsions:
REMARK  status: ('A' for Active; 'I' for Inactive)
REMARK    1  A    between atoms: N_15  and  C_16 
REMARK    2  A    between atoms: C_16  and  C_17 
REMARK    3  A    between atoms: C_17  and  N_18 
REMARK       I    between atoms: N_18  and  C_19 
REMARK    4  A    between atoms: C_19  and  C_20 
REMARK    5  A    between atoms: C_20  and  C_21 
REMARK    6  A    between atoms: C_21  and  C_22 
REMARK    7  A    between atoms: C_24  and  C_25 
REMARK    8  A    between atoms: C_29  and  O_30 
REMARK    9  A    between atoms: C_31  and  C_32 
REMARK   10  A    between atoms: C_38  and  O_39 
ROOT
HETATM    1  C   UNL     1      32.735  51.369  43.466  1.00  0.00     0.142 C 
ENDROOT
BRANCH   1   2
HETATM    2  C   UNL     1      31.650  52.206  42.779  1.00  0.00     0.151 C 
BRANCH   2   3
HETATM    3  N   UNL     1      31.168  51.640  41.512  1.00  0.00    -0.291 N 
HETATM    4  C   UNL     1      31.667  52.105  40.313  1.00  0.00     0.366 C 
HETATM    5  O   UNL     1      30.813  51.771  39.298  1.00  0.00    -0.287 OA
HETATM    6  O   UNL     1      32.695  52.737  40.142  1.00  0.00    -0.238 OA
HETATM    7  C   UNL     1      29.837  50.810  39.799  1.00  0.00     0.126 C 
HETATM    8  C   UNL     1      28.572  51.033  38.955  1.00  0.00     0.082 C 
HETATM    9  C   UNL     1      29.812  51.207  41.302  1.00  0.00     0.166 C 
HETATM   10  C   UNL     1      30.451  49.424  39.475  1.00  0.00     0.082 C 
HETATM   11  C   UNL     1      27.541  49.898  38.952  1.00  0.00     0.122 C 
HETATM   12  N   UNL     1      28.240  48.600  38.629  1.00  0.00    -0.059 N 
HETATM   13  C   UNL     1      26.538  50.133  37.802  1.00  0.00     0.046 C 
HETATM   14  C   UNL     1      26.727  49.763  40.238  1.00  0.00     0.046 C 
HETATM   15  C   UNL     1      29.512  48.213  39.349  1.00  0.00     0.122 C 
HETATM   16  H   UNL     1      28.460  48.622  37.621  1.00  0.00     0.279 HD
HETATM   17  H   UNL     1      27.565  47.826  38.716  1.00  0.00     0.279 HD
HETATM   18  C   UNL     1      30.198  47.161  38.443  1.00  0.00     0.046 C 
HETATM   19  C   UNL     1      29.172  47.497  40.660  1.00  0.00     0.046 C 
HETATM   20  C   UNL     1      28.818  52.320  41.660  1.00  0.00     0.074 C 
BRANCH   9  21
HETATM   21  O   UNL     1      29.574  50.075  42.107  1.00  0.00    -0.368 OA
HETATM   22  H   UNL     1      30.297  49.443  41.951  1.00  0.00     0.212 HD
ENDBRANCH   9  21
ENDBRANCH   2   3
ENDBRANCH   1   2
BRANCH   1  23
HETATM   23  N   UNL     1      34.069  51.599  42.949  1.00  0.00    -0.359 N 
HETATM   24  C   UNL     1      34.636  50.743  42.037  1.00  0.00     0.217 C 
HETATM   25  O   UNL     1      34.071  49.715  41.666  1.00  0.00    -0.274 OA
HETATM   26  H   UNL     1      34.555  52.448  43.233  1.00  0.00     0.162 HD
BRANCH  24  27
HETATM   27  C   UNL     1      35.933  51.189  41.389  1.00  0.00     0.107 C 
BRANCH  27  28
HETATM   28  C   UNL     1      36.637  52.396  42.001  1.00  0.00     0.048 C 
BRANCH  28  29
HETATM   29  C   UNL     1      37.520  52.131  43.199  1.00  0.00    -0.057 A 
HETATM   30  C   UNL     1      38.340  50.999  43.275  1.00  0.00     0.018 A 
HETATM   31  C   UNL     1      39.236  50.780  44.343  1.00  0.00    -0.016 A 
HETATM   32  C   UNL     1      39.299  51.800  45.322  1.00  0.00     0.079 A 
HETATM   33  C   UNL     1      38.508  52.976  45.282  1.00  0.00    -0.016 A 
HETATM   34  C   UNL     1      37.614  53.099  44.204  1.00  0.00     0.018 A 
BRANCH  31  35
HETATM   35  C   UNL     1      40.158  49.533  44.301  1.00  0.00    -0.021 C 
HETATM   36  C   UNL     1      40.712  49.402  42.867  1.00  0.00     0.019 C 
HETATM   37  C   UNL     1      41.359  49.560  45.276  1.00  0.00     0.019 C 
HETATM   38  C   UNL     1      39.391  48.229  44.649  1.00  0.00     0.019 C 
ENDBRANCH  31  35
BRANCH  32  39
HETATM   39  O   UNL     1      40.191  51.687  46.348  1.00  0.00    -0.360 OA
HETATM   40  H   UNL     1      40.649  52.543  46.391  1.00  0.00     0.217 HD
ENDBRANCH  32  39
BRANCH  33  41
HETATM   41  C   UNL     1      38.635  54.108  46.333  1.00  0.00    -0.021 C 
HETATM   42  C   UNL     1      37.595  55.214  46.049  1.00  0.00     0.019 C 
HETATM   43  C   UNL     1      38.377  53.637  47.790  1.00  0.00     0.019 C 
HETATM   44  C   UNL     1      40.059  54.707  46.331  1.00  0.00     0.019 C 
ENDBRANCH  33  41
ENDBRANCH  28  29
ENDBRANCH  27  28
ENDBRANCH  24  27
ENDBRANCH   1  23
TORSDOF 10
ENDMDL
MODEL 10
REMARK VINA RESULT:      -8.7      2.538     11.510
REMARK  10 active torsions:
REMARK  status: ('A' for Active; 'I' for Inactive)
REMARK    1  A    between atoms: N_15  and  C_16 
REMARK    2  A    between atoms: C_16  and  C_17 
REMARK    3  A    between atoms: C_17  and  N_18 
REMARK       I    between atoms: N_18  and  C_19 
REMARK    4  A    between atoms: C_19  and  C_20 
REMARK    5  A    between atoms: C_20  and  C_21 
REMARK    6  A    between atoms: C_21  and  C_22 
REMARK    7  A    between atoms: C_24  and  C_25 
REMARK    8  A    between atoms: C_29  and  O_30 
REMARK    9  A    between atoms: C_31  and  C_32 
REMARK   10  A    between atoms: C_38  and  O_39 
ROOT
HETATM    1  C   UNL     1      24.621  46.944  50.124  1.00  0.00     0.142 C 
ENDROOT
BRANCH   1   2
HETATM    2  C   UNL     1      24.751  45.724  49.204  1.00  0.00     0.151 C 
BRANCH   2   3
HETATM    3  N   UNL     1      24.970  44.458  49.914  1.00  0.00    -0.291 N 
HETATM    4  C   UNL     1      23.952  43.896  50.658  1.00  0.00     0.366 C 
HETATM    5  O   UNL     1      24.473  42.996  51.546  1.00  0.00    -0.287 OA
HETATM    6  O   UNL     1      22.763  44.149  50.580  1.00  0.00    -0.238 OA
HETATM    7  C   UNL     1      25.868  42.745  51.202  1.00  0.00     0.126 C 
HETATM    8  C   UNL     1      26.558  42.382  52.526  1.00  0.00     0.082 C 
HETATM    9  C   UNL     1      26.226  44.094  50.517  1.00  0.00     0.166 C 
HETATM   10  C   UNL     1      25.824  41.505  50.272  1.00  0.00     0.082 C 
HETATM   11  C   UNL     1      27.903  41.654  52.421  1.00  0.00     0.122 C 
HETATM   12  N   UNL     1      27.751  40.472  51.496  1.00  0.00    -0.059 N 
HETATM   13  C   UNL     1      28.266  41.066  53.802  1.00  0.00     0.046 C 
HETATM   14  C   UNL     1      29.078  42.529  51.984  1.00  0.00     0.046 C 
HETATM   15  C   UNL     1      27.083  40.630  50.150  1.00  0.00     0.122 C 
HETATM   16  H   UNL     1      27.219  39.754  52.013  1.00  0.00     0.279 HD
HETATM   17  H   UNL     1      28.676  40.036  51.355  1.00  0.00     0.279 HD
HETATM   18  C   UNL     1      26.643  39.204  49.734  1.00  0.00     0.046 C 
HETATM   19  C   UNL     1      28.109  41.085  49.108  1.00  0.00     0.046 C 
HETATM   20  C   UNL     1      26.717  45.192  51.470  1.00  0.00     0.074 C 
BRANCH   9  21
HETATM   21  O   UNL     1      27.172  43.891  49.492  1.00  0.00    -0.368 OA
HETATM   22  H   UNL     1      26.972  44.519  48.777  1.00  0.00     0.212 HD
ENDBRANCH   9  21
ENDBRANCH   2   3
ENDBRANCH   1   2
BRANCH   1  23
HETATM   23  N   UNL     1      24.074  48.116  49.471  1.00  0.00    -0.359 N 
HETATM   24  C   UNL     1      24.893  49.075  48.927  1.00  0.00     0.217 C 
HETATM   25  O   UNL     1      26.119  49.019  49.022  1.00  0.00    -0.274 OA
HETATM   26  H   UNL     1      23.063  48.183  49.369  1.00  0.00     0.162 HD
BRANCH  24  27
HETATM   27  C   UNL     1      24.233  50.139  48.072  1.00  0.00     0.107 C 
BRANCH  27  28
HETATM   28  C   UNL     1      22.965  50.786  48.621  1.00  0.00     0.048 C 
BRANCH  28  29
HETATM   29  C   UNL     1      21.651  50.241  48.111  1.00  0.00    -0.057 A 
HETATM   30  C   UNL     1      21.516  48.914  47.688  1.00  0.00     0.018 A 
HETATM   31  C   UNL     1      20.278  48.364  47.293  1.00  0.00    -0.016 A 
HETATM   32  C   UNL     1      19.156  49.220  47.394  1.00  0.00     0.079 A 
HETATM   33  C   UNL     1      19.232  50.565  47.836  1.00  0.00    -0.016 A 
HETATM   34  C   UNL     1      20.508  51.046  48.176  1.00  0.00     0.018 A 
BRANCH  31  35
HETATM   35  C   UNL     1      20.216  46.861  46.910  1.00  0.00    -0.021 C 
HETATM   36  C   UNL     1      19.818  46.769  45.423  1.00  0.00     0.019 C 
HETATM   37  C   UNL     1      21.530  46.070  47.104  1.00  0.00     0.019 C 
HETATM   38  C   UNL     1      19.158  46.091  47.746  1.00  0.00     0.019 C 
ENDBRANCH  31  35
BRANCH  32  39
HETATM   39  O   UNL     1      17.916  48.736  47.092  1.00  0.00    -0.360 OA
HETATM   40  H   UNL     1      17.364  49.518  46.927  1.00  0.00     0.217 HD
ENDBRANCH  32  39
BRANCH  33  41
HETATM   41  C   UNL     1      17.982  51.467  47.996  1.00  0.00    -0.021 C 
HETATM   42  C   UNL     1      16.860  50.696  48.727  1.00  0.00     0.019 C 
HETATM   43  C   UNL     1      18.241  52.748  48.833  1.00  0.00     0.019 C 
HETATM   44  C   UNL     1      17.476  51.959  46.621  1.00  0.00     0.019 C 
ENDBRANCH  33  41
ENDBRANCH  28  29
ENDBRANCH  27  28
ENDBRANCH  24  27
ENDBRANCH   1  23
TORSDOF 10
ENDMDL
