MODEL 1
REMARK VINA RESULT:      -9.7      0.000      0.000
REMARK  5 active torsions:
REMARK  status: ('A' for Active; 'I' for Inactive)
REMARK    1  A    between atoms: O_2  and  C_3 
REMARK    2  A    between atoms: C_5  and  C_6 
REMARK       I    between atoms: C_6  and  N_7 
REMARK    3  A    between atoms: N_7  and  C_8 
REMARK    4  A    between atoms: C_8  and  C_9 
REMARK       I    between atoms: C_9  and  N_10 
REMARK    5  A    between atoms: N_10  and  N_11 
ROOT
HETATM    1  C   UNL     1      24.577  47.011  50.502  1.00  0.00     0.255 C 
HETATM    2  N   UNL     1      24.586  45.892  51.320  1.00  0.00    -0.245 N 
HETATM    3  O   UNL     1      25.354  47.961  50.609  1.00  0.00    -0.270 OA
HETATM    4  H   UNL     1      24.003  45.081  51.090  1.00  0.00     0.192 HD
ENDROOT
BRANCH   1   5
HETATM    5  C   UNL     1      23.600  46.933  49.331  1.00  0.00     0.227 C 
BRANCH   5   6
HETATM    6  N   UNL     1      22.460  47.832  49.418  1.00  0.00    -0.348 N 
HETATM    7  C   UNL     1      22.356  48.948  48.619  1.00  0.00     0.252 C 
HETATM    8  O   UNL     1      23.130  49.152  47.691  1.00  0.00    -0.268 OA
HETATM    9  H   UNL     1      21.706  47.572  50.038  1.00  0.00     0.163 HD
BRANCH   7  10
HETATM   10  C   UNL     1      21.252  49.903  48.922  1.00  0.00     0.034 A 
HETATM   11  C   UNL     1      20.247  49.496  49.810  1.00  0.00     0.053 A 
HETATM   12  C   UNL     1      19.147  50.318  50.068  1.00  0.00     0.069 A 
HETATM   13  C   UNL     1      19.066  51.571  49.460  1.00  0.00     0.037 A 
HETATM   14  C   UNL     1      20.064  51.986  48.575  1.00  0.00     0.004 A 
HETATM   15  C   UNL     1      21.149  51.152  48.297  1.00  0.00     0.017 A 
BRANCH  12  16
HETATM   16  O   UNL     1      18.225  49.797  50.935  1.00  0.00    -0.356 OA
HETATM   17  C   UNL     1      18.544  48.537  51.513  1.00  0.00     0.210 C 
ENDBRANCH  12  16
ENDBRANCH   7  10
ENDBRANCH   5   6
ENDBRANCH   1   5
BRANCH   2  18
HETATM   18  N   UNL     1      25.497  45.819  52.332  1.00  0.00    -0.166 NA
HETATM   19  C   UNL     1      26.402  44.900  52.263  1.00  0.00     0.157 A 
HETATM   20  C   UNL     1      26.603  43.812  51.207  1.00  0.00     0.277 A 
HETATM   21  C   UNL     1      27.470  44.712  53.239  1.00  0.00     0.028 A 
HETATM   22  O   UNL     1      25.881  43.623  50.252  1.00  0.00    -0.266 OA
HETATM   23  N   UNL     1      27.730  43.119  51.600  1.00  0.00    -0.321 N 
HETATM   24  C   UNL     1      28.236  43.638  52.789  1.00  0.00     0.048 A 
HETATM   25  H   UNL     1      28.104  42.336  51.085  1.00  0.00     0.169 HD
HETATM   26  C   UNL     1      29.338  43.203  53.496  1.00  0.00     0.032 A 
HETATM   27  C   UNL     1      29.651  43.884  54.681  1.00  0.00     0.021 A 
HETATM   28  C   UNL     1      28.865  44.969  55.122  1.00  0.00     0.012 A 
HETATM   29 BR   UNL     1      29.328  45.854  56.730  1.00  0.00    -0.051 Br
HETATM   30  C   UNL     1      27.755  45.402  54.399  1.00  0.00     0.035 A 
ENDBRANCH   2  18
TORSDOF 5
ENDMDL
MODEL 2
REMARK VINA RESULT:      -9.3      3.523      9.569
REMARK  5 active torsions:
REMARK  status: ('A' for Active; 'I' for Inactive)
REMARK    1  A    between atoms: O_2  and  C_3 
REMARK    2  A    between atoms: C_5  and  C_6 
REMARK       I    between atoms: C_6  and  N_7 
REMARK    3  A    between atoms: N_7  and  C_8 
REMARK    4  A    between atoms: C_8  and  C_9 
REMARK       I    between atoms: C_9  and  N_10 
REMARK    5  A    between atoms: N_10  and  N_11 
ROOT
HETATM    1  C   UNL     1      25.170  44.763  51.088  1.00  0.00     0.255 C 
HETATM    2  N   UNL     1      25.286  45.763  50.136  1.00  0.00    -0.245 N 
HETATM    3  O   UNL     1      24.139  44.506  51.711  1.00  0.00    -0.270 OA
HETATM    4  H   UNL     1      26.131  45.832  49.560  1.00  0.00     0.192 HD
ENDROOT
BRANCH   1   5
HETATM    5  C   UNL     1      26.404  43.873  51.225  1.00  0.00     0.227 C 
BRANCH   5   6
HETATM    6  N   UNL     1      27.304  44.230  52.311  1.00  0.00    -0.348 N 
HETATM    7  C   UNL     1      28.348  43.415  52.682  1.00  0.00     0.252 C 
HETATM    8  O   UNL     1      28.669  42.434  52.022  1.00  0.00    -0.268 OA
HETATM    9  H   UNL     1      27.181  45.137  52.740  1.00  0.00     0.163 HD
BRANCH   7  10
HETATM   10  C   UNL     1      29.087  43.778  53.927  1.00  0.00     0.034 A 
HETATM   11  C   UNL     1      28.643  44.883  54.663  1.00  0.00     0.053 A 
HETATM   12  C   UNL     1      29.344  45.317  55.792  1.00  0.00     0.069 A 
HETATM   13  C   UNL     1      30.479  44.620  56.207  1.00  0.00     0.037 A 
HETATM   14  C   UNL     1      30.928  43.515  55.479  1.00  0.00     0.004 A 
HETATM   15  C   UNL     1      30.242  43.100  54.336  1.00  0.00     0.017 A 
BRANCH  12  16
HETATM   16  O   UNL     1      28.821  46.420  56.410  1.00  0.00    -0.356 OA
HETATM   17  C   UNL     1      27.787  47.104  55.712  1.00  0.00     0.210 C 
ENDBRANCH  12  16
ENDBRANCH   7  10
ENDBRANCH   5   6
ENDBRANCH   1   5
BRANCH   2  18
HETATM   18  N   UNL     1      24.202  46.545  49.863  1.00  0.00    -0.166 NA
HETATM   19  C   UNL     1      24.416  47.753  49.458  1.00  0.00     0.157 A 
HETATM   20  C   UNL     1      25.742  48.489  49.262  1.00  0.00     0.277 A 
HETATM   21  C   UNL     1      23.373  48.701  49.087  1.00  0.00     0.028 A 
HETATM   22  O   UNL     1      26.838  48.035  49.509  1.00  0.00    -0.266 OA
HETATM   23  N   UNL     1      25.402  49.740  48.789  1.00  0.00    -0.321 N 
HETATM   24  C   UNL     1      24.020  49.870  48.690  1.00  0.00     0.048 A 
HETATM   25  H   UNL     1      26.085  50.451  48.567  1.00  0.00     0.169 HD
HETATM   26  C   UNL     1      23.305  50.973  48.271  1.00  0.00     0.032 A 
HETATM   27  C   UNL     1      21.907  50.868  48.264  1.00  0.00     0.021 A 
HETATM   28  C   UNL     1      21.268  49.678  48.670  1.00  0.00     0.012 A 
HETATM   29 BR   UNL     1      19.378  49.588  48.646  1.00  0.00    -0.051 Br
HETATM   30  C   UNL     1      21.999  48.568  49.089  1.00  0.00     0.035 A 
ENDBRANCH   2  18
TORSDOF 5
ENDMDL
MODEL 3
REMARK VINA RESULT:      -9.3      1.022      1.120
REMARK  5 active torsions:
REMARK  status: ('A' for Active; 'I' for Inactive)
REMARK    1  A    between atoms: O_2  and  C_3 
REMARK    2  A    between atoms: C_5  and  C_6 
REMARK       I    between atoms: C_6  and  N_7 
REMARK    3  A    between atoms: N_7  and  C_8 
REMARK    4  A    between atoms: C_8  and  C_9 
REMARK       I    between atoms: C_9  and  N_10 
REMARK    5  A    between atoms: N_10  and  N_11 
ROOT
HETATM    1  C   UNL     1      25.330  46.963  50.957  1.00  0.00     0.255 C 
HETATM    2  N   UNL     1      25.262  45.890  51.831  1.00  0.00    -0.245 N 
HETATM    3  O   UNL     1      26.168  47.864  51.020  1.00  0.00    -0.270 OA
HETATM    4  H   UNL     1      24.628  45.108  51.639  1.00  0.00     0.192 HD
ENDROOT
BRANCH   1   5
HETATM    5  C   UNL     1      24.356  46.888  49.784  1.00  0.00     0.227 C 
BRANCH   5   6
HETATM    6  N   UNL     1      23.251  47.833  49.840  1.00  0.00    -0.348 N 
HETATM    7  C   UNL     1      22.489  48.121  48.730  1.00  0.00     0.252 C 
HETATM    8  O   UNL     1      22.598  47.485  47.688  1.00  0.00    -0.268 OA
HETATM    9  H   UNL     1      23.012  48.220  50.742  1.00  0.00     0.163 HD
BRANCH   7  10
HETATM   10  C   UNL     1      21.512  49.242  48.847  1.00  0.00     0.034 A 
HETATM   11  C   UNL     1      20.195  48.939  49.214  1.00  0.00     0.053 A 
HETATM   12  C   UNL     1      19.219  49.938  49.260  1.00  0.00     0.069 A 
HETATM   13  C   UNL     1      19.570  51.257  48.969  1.00  0.00     0.037 A 
HETATM   14  C   UNL     1      20.881  51.569  48.604  1.00  0.00     0.004 A 
HETATM   15  C   UNL     1      21.849  50.565  48.531  1.00  0.00     0.017 A 
BRANCH  12  16
HETATM   16  O   UNL     1      17.967  49.510  49.610  1.00  0.00    -0.356 OA
HETATM   17  C   UNL     1      17.078  49.216  48.539  1.00  0.00     0.210 C 
ENDBRANCH  12  16
ENDBRANCH   7  10
ENDBRANCH   5   6
ENDBRANCH   1   5
BRANCH   2  18
HETATM   18  N   UNL     1      26.162  45.810  52.853  1.00  0.00    -0.166 NA
HETATM   19  C   UNL     1      27.050  44.873  52.803  1.00  0.00     0.157 A 
HETATM   20  C   UNL     1      27.240  43.771  51.759  1.00  0.00     0.277 A 
HETATM   21  C   UNL     1      28.105  44.675  53.790  1.00  0.00     0.028 A 
HETATM   22  O   UNL     1      26.523  43.585  50.800  1.00  0.00    -0.266 OA
HETATM   23  N   UNL     1      28.349  43.061  52.171  1.00  0.00    -0.321 N 
HETATM   24  C   UNL     1      28.854  43.582  53.359  1.00  0.00     0.048 A 
HETATM   25  H   UNL     1      28.713  42.264  51.667  1.00  0.00     0.169 HD
HETATM   26  C   UNL     1      29.940  43.134  54.081  1.00  0.00     0.032 A 
HETATM   27  C   UNL     1      30.256  43.821  55.262  1.00  0.00     0.021 A 
HETATM   28  C   UNL     1      29.486  44.925  55.684  1.00  0.00     0.012 A 
HETATM   29 BR   UNL     1      29.951  45.818  57.287  1.00  0.00    -0.051 Br
HETATM   30  C   UNL     1      28.391  45.372  54.946  1.00  0.00     0.035 A 
ENDBRANCH   2  18
TORSDOF 5
ENDMDL
MODEL 4
REMARK VINA RESULT:      -9.2      2.704      3.931
REMARK  5 active torsions:
REMARK  status: ('A' for Active; 'I' for Inactive)
REMARK    1  A    between atoms: O_2  and  C_3 
REMARK    2  A    between atoms: C_5  and  C_6 
REMARK       I    between atoms: C_6  and  N_7 
REMARK    3  A    between atoms: N_7  and  C_8 
REMARK    4  A    between atoms: C_8  and  C_9 
REMARK       I    between atoms: C_9  and  N_10 
REMARK    5  A    between atoms: N_10  and  N_11 
ROOT
HETATM    1  C   UNL     1      25.108  44.809  52.453  1.00  0.00     0.255 C 
HETATM    2  N   UNL     1      26.362  45.394  52.373  1.00  0.00    -0.245 N 
HETATM    3  O   UNL     1      24.632  44.313  53.476  1.00  0.00    -0.270 OA
HETATM    4  H   UNL     1      26.638  45.908  51.530  1.00  0.00     0.192 HD
ENDROOT
BRANCH   1   5
HETATM    5  C   UNL     1      24.264  44.943  51.188  1.00  0.00     0.227 C 
BRANCH   5   6
HETATM    6  N   UNL     1      24.209  46.282  50.623  1.00  0.00    -0.348 N 
HETATM    7  C   UNL     1      23.558  46.541  49.438  1.00  0.00     0.252 C 
HETATM    8  O   UNL     1      22.863  45.697  48.884  1.00  0.00    -0.268 OA
HETATM    9  H   UNL     1      24.604  47.036  51.168  1.00  0.00     0.163 HD
BRANCH   7  10
HETATM   10  C   UNL     1      23.727  47.901  48.851  1.00  0.00     0.034 A 
HETATM   11  C   UNL     1      25.009  48.466  48.842  1.00  0.00     0.053 A 
HETATM   12  C   UNL     1      25.212  49.769  48.378  1.00  0.00     0.069 A 
HETATM   13  C   UNL     1      24.130  50.502  47.888  1.00  0.00     0.037 A 
HETATM   14  C   UNL     1      22.848  49.946  47.891  1.00  0.00     0.004 A 
HETATM   15  C   UNL     1      22.643  48.654  48.381  1.00  0.00     0.017 A 
BRANCH  12  16
HETATM   16  O   UNL     1      26.505  50.212  48.443  1.00  0.00    -0.356 OA
HETATM   17  C   UNL     1      27.460  49.298  48.969  1.00  0.00     0.210 C 
ENDBRANCH  12  16
ENDBRANCH   7  10
ENDBRANCH   5   6
ENDBRANCH   1   5
BRANCH   2  18
HETATM   18  N   UNL     1      27.152  45.421  53.485  1.00  0.00    -0.166 NA
HETATM   19  C   UNL     1      28.117  44.566  53.559  1.00  0.00     0.157 A 
HETATM   20  C   UNL     1      28.510  43.459  52.580  1.00  0.00     0.277 A 
HETATM   21  C   UNL     1      29.074  44.488  54.657  1.00  0.00     0.028 A 
HETATM   22  O   UNL     1      27.918  43.186  51.559  1.00  0.00    -0.266 OA
HETATM   23  N   UNL     1      29.627  42.861  53.129  1.00  0.00    -0.321 N 
HETATM   24  C   UNL     1      29.956  43.456  54.344  1.00  0.00     0.048 A 
HETATM   25  H   UNL     1      30.109  42.088  52.693  1.00  0.00     0.169 HD
HETATM   26  C   UNL     1      30.994  43.125  55.189  1.00  0.00     0.032 A 
HETATM   27  C   UNL     1      31.122  43.868  56.372  1.00  0.00     0.021 A 
HETATM   28  C   UNL     1      30.220  44.909  56.674  1.00  0.00     0.012 A 
HETATM   29 BR   UNL     1      30.433  45.880  58.284  1.00  0.00    -0.051 Br
HETATM   30  C   UNL     1      29.175  45.237  55.811  1.00  0.00     0.035 A 
ENDBRANCH   2  18
TORSDOF 5
ENDMDL
MODEL 5
REMARK VINA RESULT:      -9.2      1.781      2.886
REMARK  5 active torsions:
REMARK  status: ('A' for Active; 'I' for Inactive)
REMARK    1  A    between atoms: O_2  and  C_3 
REMARK    2  A    between atoms: C_5  and  C_6 
REMARK       I    between atoms: C_6  and  N_7 
REMARK    3  A    between atoms: N_7  and  C_8 
REMARK    4  A    between atoms: C_8  and  C_9 
REMARK       I    between atoms: C_9  and  N_10 
REMARK    5  A    between atoms: N_10  and  N_11 
ROOT
HETATM    1  C   UNL     1      24.370  44.405  50.519  1.00  0.00     0.255 C 
HETATM    2  N   UNL     1      25.559  45.117  50.524  1.00  0.00    -0.245 N 
HETATM    3  O   UNL     1      24.073  43.532  51.336  1.00  0.00    -0.270 OA
HETATM    4  H   UNL     1      25.681  45.921  49.900  1.00  0.00     0.192 HD
ENDROOT
BRANCH   1   5
HETATM    5  C   UNL     1      23.351  44.881  49.485  1.00  0.00     0.227 C 
BRANCH   5   6
HETATM    6  N   UNL     1      23.034  46.300  49.540  1.00  0.00    -0.348 N 
HETATM    7  C   UNL     1      22.689  47.008  48.412  1.00  0.00     0.252 C 
HETATM    8  O   UNL     1      22.476  46.453  47.340  1.00  0.00    -0.268 OA
HETATM    9  H   UNL     1      23.004  46.737  50.451  1.00  0.00     0.163 HD
BRANCH   7  10
HETATM   10  C   UNL     1      22.574  48.489  48.546  1.00  0.00     0.034 A 
HETATM   11  C   UNL     1      21.395  49.017  49.087  1.00  0.00     0.053 A 
HETATM   12  C   UNL     1      21.200  50.400  49.162  1.00  0.00     0.069 A 
HETATM   13  C   UNL     1      22.206  51.261  48.721  1.00  0.00     0.037 A 
HETATM   14  C   UNL     1      23.385  50.743  48.181  1.00  0.00     0.004 A 
HETATM   15  C   UNL     1      23.567  49.362  48.082  1.00  0.00     0.017 A 
BRANCH  12  16
HETATM   16  O   UNL     1      20.000  50.788  49.690  1.00  0.00    -0.356 OA
HETATM   17  C   UNL     1      19.345  51.872  49.041  1.00  0.00     0.210 C 
ENDBRANCH  12  16
ENDBRANCH   7  10
ENDBRANCH   5   6
ENDBRANCH   1   5
BRANCH   2  18
HETATM   18  N   UNL     1      26.492  44.838  51.479  1.00  0.00    -0.166 NA
HETATM   19  C   UNL     1      26.592  45.650  52.479  1.00  0.00     0.157 A 
HETATM   20  C   UNL     1      25.828  46.946  52.758  1.00  0.00     0.277 A 
HETATM   21  C   UNL     1      27.508  45.477  53.601  1.00  0.00     0.028 A 
HETATM   22  O   UNL     1      25.002  47.443  52.023  1.00  0.00    -0.266 OA
HETATM   23  N   UNL     1      26.303  47.400  53.971  1.00  0.00    -0.321 N 
HETATM   24  C   UNL     1      27.287  46.548  54.465  1.00  0.00     0.048 A 
HETATM   25  H   UNL     1      25.974  48.248  54.410  1.00  0.00     0.169 HD
HETATM   26  C   UNL     1      28.002  46.677  55.637  1.00  0.00     0.032 A 
HETATM   27  C   UNL     1      28.956  45.689  55.920  1.00  0.00     0.021 A 
HETATM   28  C   UNL     1      29.167  44.611  55.035  1.00  0.00     0.012 A 
HETATM   29 BR   UNL     1      30.468  43.305  55.460  1.00  0.00    -0.051 Br
HETATM   30  C   UNL     1      28.437  44.489  53.853  1.00  0.00     0.035 A 
ENDBRANCH   2  18
TORSDOF 5
ENDMDL
MODEL 6
REMARK VINA RESULT:      -9.1      2.092      3.648
REMARK  5 active torsions:
REMARK  status: ('A' for Active; 'I' for Inactive)
REMARK    1  A    between atoms: O_2  and  C_3 
REMARK    2  A    between atoms: C_5  and  C_6 
REMARK       I    between atoms: C_6  and  N_7 
REMARK    3  A    between atoms: N_7  and  C_8 
REMARK    4  A    between atoms: C_8  and  C_9 
REMARK       I    between atoms: C_9  and  N_10 
REMARK    5  A    between atoms: N_10  and  N_11 
ROOT
HETATM    1  C   UNL     1      24.291  44.160  50.657  1.00  0.00     0.255 C 
HETATM    2  N   UNL     1      25.340  45.053  50.806  1.00  0.00    -0.245 N 
HETATM    3  O   UNL     1      24.170  43.111  51.293  1.00  0.00    -0.270 OA
HETATM    4  H   UNL     1      25.307  45.968  50.345  1.00  0.00     0.192 HD
ENDROOT
BRANCH   1   5
HETATM    5  C   UNL     1      23.181  44.635  49.724  1.00  0.00     0.227 C 
BRANCH   5   6
HETATM    6  N   UNL     1      23.064  46.079  49.590  1.00  0.00    -0.348 N 
HETATM    7  C   UNL     1      22.040  46.659  48.878  1.00  0.00     0.252 C 
HETATM    8  O   UNL     1      21.092  46.004  48.458  1.00  0.00    -0.268 OA
HETATM    9  H   UNL     1      23.723  46.650  50.101  1.00  0.00     0.163 HD
BRANCH   7  10
HETATM   10  C   UNL     1      22.122  48.129  48.639  1.00  0.00     0.034 A 
HETATM   11  C   UNL     1      23.288  48.643  48.059  1.00  0.00     0.053 A 
HETATM   12  C   UNL     1      23.453  50.021  47.887  1.00  0.00     0.069 A 
HETATM   13  C   UNL     1      22.430  50.889  48.268  1.00  0.00     0.037 A 
HETATM   14  C   UNL     1      21.262  50.385  48.846  1.00  0.00     0.004 A 
HETATM   15  C   UNL     1      21.111  49.011  49.043  1.00  0.00     0.017 A 
BRANCH  12  16
HETATM   16  O   UNL     1      24.645  50.396  47.329  1.00  0.00    -0.356 OA
HETATM   17  C   UNL     1      25.821  49.956  47.999  1.00  0.00     0.210 C 
ENDBRANCH  12  16
ENDBRANCH   7  10
ENDBRANCH   5   6
ENDBRANCH   1   5
BRANCH   2  18
HETATM   18  N   UNL     1      26.331  44.768  51.699  1.00  0.00    -0.166 NA
HETATM   19  C   UNL     1      26.543  45.612  52.654  1.00  0.00     0.157 A 
HETATM   20  C   UNL     1      25.860  46.951  52.935  1.00  0.00     0.277 A 
HETATM   21  C   UNL     1      27.534  45.439  53.710  1.00  0.00     0.028 A 
HETATM   22  O   UNL     1      25.003  47.458  52.243  1.00  0.00    -0.266 OA
HETATM   23  N   UNL     1      26.446  47.429  54.089  1.00  0.00    -0.321 N 
HETATM   24  C   UNL     1      27.428  46.552  54.542  1.00  0.00     0.048 A 
HETATM   25  H   UNL     1      26.189  48.308  54.516  1.00  0.00     0.169 HD
HETATM   26  C   UNL     1      28.235  46.691  55.651  1.00  0.00     0.032 A 
HETATM   27  C   UNL     1      29.164  45.671  55.903  1.00  0.00     0.021 A 
HETATM   28  C   UNL     1      29.259  44.552  55.050  1.00  0.00     0.012 A 
HETATM   29 BR   UNL     1      30.530  43.203  55.431  1.00  0.00    -0.051 Br
HETATM   30  C   UNL     1      28.436  44.419  53.933  1.00  0.00     0.035 A 
ENDBRANCH   2  18
TORSDOF 5
ENDMDL
MODEL 7
REMARK VINA RESULT:      -8.5      7.292     10.254
REMARK  5 active torsions:
REMARK  status: ('A' for Active; 'I' for Inactive)
REMARK    1  A    between atoms: O_2  and  C_3 
REMARK    2  A    between atoms: C_5  and  C_6 
REMARK       I    between atoms: C_6  and  N_7 
REMARK    3  A    between atoms: N_7  and  C_8 
REMARK    4  A    between atoms: C_8  and  C_9 
REMARK       I    between atoms: C_9  and  N_10 
REMARK    5  A    between atoms: N_10  and  N_11 
ROOT
HETATM    1  C   UNL     1      28.057  41.168  51.628  1.00  0.00     0.255 C 
HETATM    2  N   UNL     1      28.735  40.393  50.701  1.00  0.00    -0.245 N 
HETATM    3  O   UNL     1      27.173  41.980  51.349  1.00  0.00    -0.270 OA
HETATM    4  H   UNL     1      29.359  39.643  51.015  1.00  0.00     0.192 HD
ENDROOT
BRANCH   1   5
HETATM    5  C   UNL     1      28.383  40.846  53.085  1.00  0.00     0.227 C 
BRANCH   5   6
HETATM    6  N   UNL     1      28.521  42.003  53.956  1.00  0.00    -0.348 N 
HETATM    7  C   UNL     1      29.668  42.762  53.974  1.00  0.00     0.252 C 
HETATM    8  O   UNL     1      30.562  42.603  53.150  1.00  0.00    -0.268 OA
HETATM    9  H   UNL     1      27.715  42.276  54.501  1.00  0.00     0.163 HD
BRANCH   7  10
HETATM   10  C   UNL     1      29.781  43.802  55.037  1.00  0.00     0.034 A 
HETATM   11  C   UNL     1      28.905  44.894  54.994  1.00  0.00     0.053 A 
HETATM   12  C   UNL     1      29.018  45.937  55.917  1.00  0.00     0.069 A 
HETATM   13  C   UNL     1      29.994  45.873  56.912  1.00  0.00     0.037 A 
HETATM   14  C   UNL     1      30.872  44.787  56.964  1.00  0.00     0.004 A 
HETATM   15  C   UNL     1      30.775  43.759  56.024  1.00  0.00     0.017 A 
BRANCH  12  16
HETATM   16  O   UNL     1      28.117  46.955  55.755  1.00  0.00    -0.356 OA
HETATM   17  C   UNL     1      27.229  46.840  54.650  1.00  0.00     0.210 C 
ENDBRANCH  12  16
ENDBRANCH   7  10
ENDBRANCH   5   6
ENDBRANCH   1   5
BRANCH   2  18
HETATM   18  N   UNL     1      28.436  40.531  49.378  1.00  0.00    -0.166 NA
HETATM   19  C   UNL     1      28.510  39.481  48.630  1.00  0.00     0.157 A 
HETATM   20  C   UNL     1      28.932  38.057  48.996  1.00  0.00     0.277 A 
HETATM   21  C   UNL     1      28.186  39.449  47.208  1.00  0.00     0.028 A 
HETATM   22  O   UNL     1      29.315  37.700  50.089  1.00  0.00    -0.266 OA
HETATM   23  N   UNL     1      28.805  37.325  47.833  1.00  0.00    -0.321 N 
HETATM   24  C   UNL     1      28.375  38.135  46.785  1.00  0.00     0.048 A 
HETATM   25  H   UNL     1      29.019  36.339  47.775  1.00  0.00     0.169 HD
HETATM   26  C   UNL     1      28.147  37.768  45.476  1.00  0.00     0.032 A 
HETATM   27  C   UNL     1      27.721  38.770  44.592  1.00  0.00     0.021 A 
HETATM   28  C   UNL     1      27.536  40.096  45.036  1.00  0.00     0.012 A 
HETATM   29 BR   UNL     1      26.963  41.413  43.804  1.00  0.00    -0.051 Br
HETATM   30  C   UNL     1      27.766  40.456  46.363  1.00  0.00     0.035 A 
ENDBRANCH   2  18
TORSDOF 5
ENDMDL
MODEL 8
REMARK VINA RESULT:      -8.4      3.255      5.215
REMARK  5 active torsions:
REMARK  status: ('A' for Active; 'I' for Inactive)
REMARK    1  A    between atoms: O_2  and  C_3 
REMARK    2  A    between atoms: C_5  and  C_6 
REMARK       I    between atoms: C_6  and  N_7 
REMARK    3  A    between atoms: N_7  and  C_8 
REMARK    4  A    between atoms: C_8  and  C_9 
REMARK       I    between atoms: C_9  and  N_10 
REMARK    5  A    between atoms: N_10  and  N_11 
ROOT
HETATM    1  C   UNL     1      27.035  41.319  51.143  1.00  0.00     0.255 C 
HETATM    2  N   UNL     1      26.831  42.328  52.070  1.00  0.00    -0.245 N 
HETATM    3  O   UNL     1      28.038  40.605  51.095  1.00  0.00    -0.270 OA
HETATM    4  H   UNL     1      25.919  42.790  52.138  1.00  0.00     0.192 HD
ENDROOT
BRANCH   1   5
HETATM    5  C   UNL     1      25.839  41.041  50.236  1.00  0.00     0.227 C 
BRANCH   5   6
HETATM    6  N   UNL     1      25.295  42.208  49.559  1.00  0.00    -0.348 N 
HETATM    7  C   UNL     1      24.264  42.942  50.099  1.00  0.00     0.252 C 
HETATM    8  O   UNL     1      23.863  42.750  51.242  1.00  0.00    -0.268 OA
HETATM    9  H   UNL     1      25.748  42.507  48.707  1.00  0.00     0.163 HD
BRANCH   7  10
HETATM   10  C   UNL     1      23.653  43.996  49.238  1.00  0.00     0.034 A 
HETATM   11  C   UNL     1      23.740  45.329  49.659  1.00  0.00     0.053 A 
HETATM   12  C   UNL     1      23.116  46.348  48.933  1.00  0.00     0.069 A 
HETATM   13  C   UNL     1      22.428  46.036  47.760  1.00  0.00     0.037 A 
HETATM   14  C   UNL     1      22.337  44.709  47.333  1.00  0.00     0.004 A 
HETATM   15  C   UNL     1      22.938  43.689  48.074  1.00  0.00     0.017 A 
BRANCH  12  16
HETATM   16  O   UNL     1      23.256  47.604  49.460  1.00  0.00    -0.356 OA
HETATM   17  C   UNL     1      23.520  48.651  48.533  1.00  0.00     0.210 C 
ENDBRANCH  12  16
ENDBRANCH   7  10
ENDBRANCH   5   6
ENDBRANCH   1   5
BRANCH   2  18
HETATM   18  N   UNL     1      27.801  42.582  52.996  1.00  0.00    -0.166 NA
HETATM   19  C   UNL     1      27.829  43.757  53.533  1.00  0.00     0.157 A 
HETATM   20  C   UNL     1      26.938  44.970  53.261  1.00  0.00     0.277 A 
HETATM   21  C   UNL     1      28.772  44.176  54.563  1.00  0.00     0.028 A 
HETATM   22  O   UNL     1      26.056  45.018  52.431  1.00  0.00    -0.266 OA
HETATM   23  N   UNL     1      27.379  45.952  54.124  1.00  0.00    -0.321 N 
HETATM   24  C   UNL     1      28.453  45.495  54.883  1.00  0.00     0.048 A 
HETATM   25  H   UNL     1      26.969  46.874  54.166  1.00  0.00     0.169 HD
HETATM   26  C   UNL     1      29.165  46.188  55.838  1.00  0.00     0.032 A 
HETATM   27  C   UNL     1      30.220  45.514  56.470  1.00  0.00     0.021 A 
HETATM   28  C   UNL     1      30.530  44.179  56.134  1.00  0.00     0.012 A 
HETATM   29 BR   UNL     1      31.965  43.314  57.012  1.00  0.00    -0.051 Br
HETATM   30  C   UNL     1      29.802  43.486  55.168  1.00  0.00     0.035 A 
ENDBRANCH   2  18
TORSDOF 5
ENDMDL
MODEL 9
REMARK VINA RESULT:      -8.1      3.732      9.144
REMARK  5 active torsions:
REMARK  status: ('A' for Active; 'I' for Inactive)
REMARK    1  A    between atoms: O_2  and  C_3 
REMARK    2  A    between atoms: C_5  and  C_6 
REMARK       I    between atoms: C_6  and  N_7 
REMARK    3  A    between atoms: N_7  and  C_8 
REMARK    4  A    between atoms: C_8  and  C_9 
REMARK       I    between atoms: C_9  and  N_10 
REMARK    5  A    between atoms: N_10  and  N_11 
ROOT
HETATM    1  C   UNL     1      22.764  45.046  49.098  1.00  0.00     0.255 C 
HETATM    2  N   UNL     1      22.834  46.420  48.936  1.00  0.00    -0.245 N 
HETATM    3  O   UNL     1      21.717  44.395  49.111  1.00  0.00    -0.270 OA
HETATM    4  H   UNL     1      23.741  46.877  48.799  1.00  0.00     0.192 HD
ENDROOT
BRANCH   1   5
HETATM    5  C   UNL     1      24.117  44.340  49.123  1.00  0.00     0.227 C 
BRANCH   5   6
HETATM    6  N   UNL     1      24.987  44.715  50.228  1.00  0.00    -0.348 N 
HETATM    7  C   UNL     1      24.951  44.052  51.434  1.00  0.00     0.252 C 
HETATM    8  O   UNL     1      24.305  43.021  51.586  1.00  0.00    -0.268 OA
HETATM    9  H   UNL     1      25.675  45.435  50.058  1.00  0.00     0.163 HD
BRANCH   7  10
HETATM   10  C   UNL     1      25.739  44.637  52.557  1.00  0.00     0.034 A 
HETATM   11  C   UNL     1      25.370  45.898  53.041  1.00  0.00     0.053 A 
HETATM   12  C   UNL     1      26.122  46.529  54.036  1.00  0.00     0.069 A 
HETATM   13  C   UNL     1      27.233  45.879  54.575  1.00  0.00     0.037 A 
HETATM   14  C   UNL     1      27.607  44.620  54.100  1.00  0.00     0.004 A 
HETATM   15  C   UNL     1      26.871  44.004  53.086  1.00  0.00     0.017 A 
BRANCH  12  16
HETATM   16  O   UNL     1      25.670  47.767  54.406  1.00  0.00    -0.356 OA
HETATM   17  C   UNL     1      26.370  48.401  55.471  1.00  0.00     0.210 C 
ENDBRANCH  12  16
ENDBRANCH   7  10
ENDBRANCH   5   6
ENDBRANCH   1   5
BRANCH   2  18
HETATM   18  N   UNL     1      21.678  47.130  48.796  1.00  0.00    -0.166 NA
HETATM   19  C   UNL     1      21.733  48.411  48.955  1.00  0.00     0.157 A 
HETATM   20  C   UNL     1      22.927  49.291  49.327  1.00  0.00     0.277 A 
HETATM   21  C   UNL     1      20.601  49.316  48.802  1.00  0.00     0.028 A 
HETATM   22  O   UNL     1      24.043  48.889  49.577  1.00  0.00    -0.266 OA
HETATM   23  N   UNL     1      22.443  50.584  49.337  1.00  0.00    -0.321 N 
HETATM   24  C   UNL     1      21.084  50.603  49.036  1.00  0.00     0.048 A 
HETATM   25  H   UNL     1      23.017  51.386  49.552  1.00  0.00     0.169 HD
HETATM   26  C   UNL     1      20.252  51.700  48.963  1.00  0.00     0.032 A 
HETATM   27  C   UNL     1      18.906  51.467  48.647  1.00  0.00     0.021 A 
HETATM   28  C   UNL     1      18.433  50.158  48.414  1.00  0.00     0.012 A 
HETATM   29 BR   UNL     1      16.606  49.896  47.995  1.00  0.00    -0.051 Br
HETATM   30  C   UNL     1      19.282  49.056  48.488  1.00  0.00     0.035 A 
ENDBRANCH   2  18
TORSDOF 5
ENDMDL
MODEL 10
REMARK VINA RESULT:      -8.1      4.068     10.175
REMARK  5 active torsions:
REMARK  status: ('A' for Active; 'I' for Inactive)
REMARK    1  A    between atoms: O_2  and  C_3 
REMARK    2  A    between atoms: C_5  and  C_6 
REMARK       I    between atoms: C_6  and  N_7 
REMARK    3  A    between atoms: N_7  and  C_8 
REMARK    4  A    between atoms: C_8  and  C_9 
REMARK       I    between atoms: C_9  and  N_10 
REMARK    5  A    between atoms: N_10  and  N_11 
ROOT
HETATM    1  C   UNL     1      22.669  48.445  48.625  1.00  0.00     0.255 C 
HETATM    2  N   UNL     1      21.636  48.552  49.542  1.00  0.00    -0.245 N 
HETATM    3  O   UNL     1      22.518  48.411  47.402  1.00  0.00    -0.270 OA
HETATM    4  H   UNL     1      21.842  48.713  50.534  1.00  0.00     0.192 HD
ENDROOT
BRANCH   1   5
HETATM    5  C   UNL     1      24.067  48.514  49.234  1.00  0.00     0.227 C 
BRANCH   5   6
HETATM    6  N   UNL     1      24.303  47.601  50.342  1.00  0.00    -0.348 N 
HETATM    7  C   UNL     1      25.560  47.415  50.871  1.00  0.00     0.252 C 
HETATM    8  O   UNL     1      26.509  48.121  50.547  1.00  0.00    -0.268 OA
HETATM    9  H   UNL     1      23.498  47.158  50.761  1.00  0.00     0.163 HD
BRANCH   7  10
HETATM   10  C   UNL     1      25.724  46.318  51.868  1.00  0.00     0.034 A 
HETATM   11  C   UNL     1      25.894  45.011  51.394  1.00  0.00     0.053 A 
HETATM   12  C   UNL     1      25.972  43.935  52.283  1.00  0.00     0.069 A 
HETATM   13  C   UNL     1      25.912  44.170  53.656  1.00  0.00     0.037 A 
HETATM   14  C   UNL     1      25.744  45.471  54.138  1.00  0.00     0.004 A 
HETATM   15  C   UNL     1      25.639  46.542  53.248  1.00  0.00     0.017 A 
BRANCH  12  16
HETATM   16  O   UNL     1      26.116  42.708  51.694  1.00  0.00    -0.356 OA
HETATM   17  C   UNL     1      27.408  42.117  51.774  1.00  0.00     0.210 C 
ENDBRANCH  12  16
ENDBRANCH   7  10
ENDBRANCH   5   6
ENDBRANCH   1   5
BRANCH   2  18
HETATM   18  N   UNL     1      20.351  48.607  49.089  1.00  0.00    -0.166 NA
HETATM   19  C   UNL     1      19.674  49.682  49.324  1.00  0.00     0.157 A 
HETATM   20  C   UNL     1      20.085  50.939  50.092  1.00  0.00     0.277 A 
HETATM   21  C   UNL     1      18.306  49.917  48.875  1.00  0.00     0.028 A 
HETATM   22  O   UNL     1      21.147  51.100  50.653  1.00  0.00    -0.266 OA
HETATM   23  N   UNL     1      18.999  51.788  50.018  1.00  0.00    -0.321 N 
HETATM   24  C   UNL     1      17.956  51.193  49.313  1.00  0.00     0.048 A 
HETATM   25  H   UNL     1      18.984  52.704  50.442  1.00  0.00     0.169 HD
HETATM   26  C   UNL     1      16.711  51.721  49.045  1.00  0.00     0.032 A 
HETATM   27  C   UNL     1      15.817  50.923  48.317  1.00  0.00     0.021 A 
HETATM   28  C   UNL     1      16.187  49.633  47.881  1.00  0.00     0.012 A 
HETATM   29 BR   UNL     1      14.943  48.594  46.904  1.00  0.00    -0.051 Br
HETATM   30  C   UNL     1      17.449  49.109  48.156  1.00  0.00     0.035 A 
ENDBRANCH   2  18
TORSDOF 5
ENDMDL
