MODEL 1
REMARK VINA RESULT:      -7.5      0.000      0.000
REMARK  6 active torsions:
REMARK  status: ('A' for Active; 'I' for Inactive)
REMARK    1  A    between atoms: C_2  and  N_3 
REMARK    2  A    between atoms: C_2  and  C_18 
REMARK    3  A    between atoms: N_3  and  C_6 
REMARK    4  A    between atoms: C_6  and  C_7 
REMARK    5  A    between atoms: C_10  and  N_11 
REMARK       I    between atoms: N_11  and  C_12 
REMARK    6  A    between atoms: C_12  and  O_13 
ROOT
HETATM    1  N   UNL     1      26.474  48.583  41.042  1.00  0.00    -0.063 N 
HETATM    2  H   UNL     1      25.521  48.312  41.318  1.00  0.00     0.278 HD
HETATM    3  H   UNL     1      26.812  49.166  41.816  1.00  0.00     0.278 HD
ENDROOT
BRANCH   1   4
HETATM    4  C   UNL     1      27.307  47.339  40.936  1.00  0.00     0.216 C 
HETATM    5  C   UNL     1      26.945  46.568  39.668  1.00  0.00     0.045 C 
BRANCH   4   6
HETATM    6  C   UNL     1      28.776  47.685  40.978  1.00  0.00    -0.009 A 
HETATM    7  C   UNL     1      29.657  47.109  40.068  1.00  0.00     0.126 A 
HETATM    8  N   UNL     1      30.982  47.329  40.013  1.00  0.00    -0.259 NA
HETATM    9  C   UNL     1      31.484  48.207  40.920  1.00  0.00     0.074 A 
HETATM   10  C   UNL     1      30.685  48.840  41.870  1.00  0.00     0.034 A 
HETATM   11  C   UNL     1      32.850  48.597  41.026  1.00  0.00     0.040 A 
HETATM   12  S   UNL     1      31.615  49.887  42.867  1.00  0.00    -0.100 SA
HETATM   13  C   UNL     1      29.306  48.583  41.915  1.00  0.00     0.032 A 
HETATM   14  C   UNL     1      33.060  49.505  42.039  1.00  0.00     0.053 A 
ENDBRANCH   4   6
ENDBRANCH   1   4
BRANCH   1  15
HETATM   15  C   UNL     1      26.361  49.426  39.816  1.00  0.00     0.271 C 
BRANCH  15  16
HETATM   16  C   UNL     1      27.228  50.649  39.916  1.00  0.00    -0.033 A 
HETATM   17  C   UNL     1      27.925  51.126  38.798  1.00  0.00     0.011 A 
HETATM   18  C   UNL     1      28.750  52.257  38.894  1.00  0.00     0.030 A 
HETATM   19  C   UNL     1      28.890  52.937  40.102  1.00  0.00     0.036 A 
HETATM   20  C   UNL     1      28.183  52.465  41.215  1.00  0.00     0.030 A 
HETATM   21  C   UNL     1      27.365  51.332  41.129  1.00  0.00     0.011 A 
BRANCH  19  22
HETATM   22  N   UNL     1      29.681  54.081  40.297  1.00  0.00    -0.303 N 
HETATM   23  C   UNL     1      30.979  54.252  40.700  1.00  0.00     0.364 C 
HETATM   24  O   UNL     1      31.456  55.381  40.764  1.00  0.00    -0.238 OA
HETATM   25  H   UNL     1      29.249  54.981  40.124  1.00  0.00     0.171 HD
BRANCH  23  26
HETATM   26  O   UNL     1      31.648  53.121  41.031  1.00  0.00    -0.309 OA
HETATM   27  C   UNL     1      32.497  52.622  39.995  1.00  0.00     0.215 C 
ENDBRANCH  23  26
ENDBRANCH  19  22
ENDBRANCH  15  16
ENDBRANCH   1  15
TORSDOF 6
ENDMDL
MODEL 2
REMARK VINA RESULT:      -7.4     12.516     14.485
REMARK  6 active torsions:
REMARK  status: ('A' for Active; 'I' for Inactive)
REMARK    1  A    between atoms: C_2  and  N_3 
REMARK    2  A    between atoms: C_2  and  C_18 
REMARK    3  A    between atoms: N_3  and  C_6 
REMARK    4  A    between atoms: C_6  and  C_7 
REMARK    5  A    between atoms: C_10  and  N_11 
REMARK       I    between atoms: N_11  and  C_12 
REMARK    6  A    between atoms: C_12  and  O_13 
ROOT
HETATM    1  N   UNL     1      25.835  45.623  52.257  1.00  0.00    -0.063 N 
HETATM    2  H   UNL     1      26.172  46.311  52.943  1.00  0.00     0.278 HD
HETATM    3  H   UNL     1      24.839  45.841  52.139  1.00  0.00     0.278 HD
ENDROOT
BRANCH   1   4
HETATM    4  C   UNL     1      26.565  45.847  50.965  1.00  0.00     0.216 C 
HETATM    5  C   UNL     1      26.558  44.569  50.126  1.00  0.00     0.045 C 
BRANCH   4   6
HETATM    6  C   UNL     1      25.962  47.009  50.214  1.00  0.00    -0.009 A 
HETATM    7  C   UNL     1      26.784  47.956  49.611  1.00  0.00     0.126 A 
HETATM    8  N   UNL     1      26.366  49.036  48.927  1.00  0.00    -0.259 NA
HETATM    9  C   UNL     1      25.021  49.189  48.810  1.00  0.00     0.074 A 
HETATM   10  C   UNL     1      24.113  48.295  49.373  1.00  0.00     0.034 A 
HETATM   11  C   UNL     1      24.366  50.247  48.115  1.00  0.00     0.040 A 
HETATM   12  S   UNL     1      22.493  48.765  49.048  1.00  0.00    -0.100 SA
HETATM   13  C   UNL     1      24.576  47.182  50.094  1.00  0.00     0.032 A 
HETATM   14  C   UNL     1      22.995  50.138  48.164  1.00  0.00     0.053 A 
ENDBRANCH   4   6
ENDBRANCH   1   4
BRANCH   1  15
HETATM   15  C   UNL     1      25.962  44.273  52.880  1.00  0.00     0.271 C 
BRANCH  15  16
HETATM   16  C   UNL     1      27.243  44.152  53.656  1.00  0.00    -0.033 A 
HETATM   17  C   UNL     1      27.758  45.245  54.365  1.00  0.00     0.011 A 
HETATM   18  C   UNL     1      28.963  45.139  55.074  1.00  0.00     0.030 A 
HETATM   19  C   UNL     1      29.673  43.940  55.097  1.00  0.00     0.036 A 
HETATM   20  C   UNL     1      29.150  42.845  54.398  1.00  0.00     0.030 A 
HETATM   21  C   UNL     1      27.953  42.947  53.680  1.00  0.00     0.011 A 
BRANCH  19  22
HETATM   22  N   UNL     1      30.879  43.730  55.784  1.00  0.00    -0.303 N 
HETATM   23  C   UNL     1      31.256  43.947  57.084  1.00  0.00     0.364 C 
HETATM   24  O   UNL     1      32.386  43.646  57.453  1.00  0.00    -0.238 OA
HETATM   25  H   UNL     1      31.656  43.350  55.257  1.00  0.00     0.171 HD
BRANCH  23  26
HETATM   26  O   UNL     1      30.321  44.522  57.881  1.00  0.00    -0.309 OA
HETATM   27  C   UNL     1      30.641  45.855  58.285  1.00  0.00     0.215 C 
ENDBRANCH  23  26
ENDBRANCH  19  22
ENDBRANCH  15  16
ENDBRANCH   1  15
TORSDOF 6
ENDMDL
MODEL 3
REMARK VINA RESULT:      -7.3     12.154     13.505
REMARK  6 active torsions:
REMARK  status: ('A' for Active; 'I' for Inactive)
REMARK    1  A    between atoms: C_2  and  N_3 
REMARK    2  A    between atoms: C_2  and  C_18 
REMARK    3  A    between atoms: N_3  and  C_6 
REMARK    4  A    between atoms: C_6  and  C_7 
REMARK    5  A    between atoms: C_10  and  N_11 
REMARK       I    between atoms: N_11  and  C_12 
REMARK    6  A    between atoms: C_12  and  O_13 
ROOT
HETATM    1  N   UNL     1      20.546  49.556  49.824  1.00  0.00    -0.063 N 
HETATM    2  H   UNL     1      21.111  49.615  50.682  1.00  0.00     0.278 HD
HETATM    3  H   UNL     1      20.579  50.501  49.426  1.00  0.00     0.278 HD
ENDROOT
BRANCH   1   4
HETATM    4  C   UNL     1      21.206  48.584  48.890  1.00  0.00     0.216 C 
HETATM    5  C   UNL     1      20.494  48.585  47.538  1.00  0.00     0.045 C 
BRANCH   4   6
HETATM    6  C   UNL     1      22.674  48.907  48.747  1.00  0.00    -0.009 A 
HETATM    7  C   UNL     1      23.087  49.929  47.897  1.00  0.00     0.126 A 
HETATM    8  N   UNL     1      24.361  50.300  47.679  1.00  0.00    -0.259 NA
HETATM    9  C   UNL     1      25.312  49.621  48.371  1.00  0.00     0.074 A 
HETATM   10  C   UNL     1      25.003  48.584  49.249  1.00  0.00     0.034 A 
HETATM   11  C   UNL     1      26.715  49.862  48.304  1.00  0.00     0.040 A 
HETATM   12  S   UNL     1      26.421  47.930  49.965  1.00  0.00    -0.100 SA
HETATM   13  C   UNL     1      23.665  48.206  49.449  1.00  0.00     0.032 A 
HETATM   14  C   UNL     1      27.433  49.017  49.120  1.00  0.00     0.053 A 
ENDBRANCH   4   6
ENDBRANCH   1   4
BRANCH   1  15
HETATM   15  C   UNL     1      19.144  49.253  50.234  1.00  0.00     0.271 C 
BRANCH  15  16
HETATM   16  C   UNL     1      18.192  50.298  49.725  1.00  0.00    -0.033 A 
HETATM   17  C   UNL     1      17.100  49.943  48.923  1.00  0.00     0.011 A 
HETATM   18  C   UNL     1      16.220  50.919  48.433  1.00  0.00     0.030 A 
HETATM   19  C   UNL     1      16.407  52.266  48.738  1.00  0.00     0.036 A 
HETATM   20  C   UNL     1      17.493  52.617  49.551  1.00  0.00     0.030 A 
HETATM   21  C   UNL     1      18.380  51.649  50.036  1.00  0.00     0.011 A 
BRANCH  19  22
HETATM   22  N   UNL     1      15.579  53.314  48.306  1.00  0.00    -0.303 N 
HETATM   23  C   UNL     1      14.457  53.889  48.841  1.00  0.00     0.364 C 
HETATM   24  O   UNL     1      13.922  54.834  48.270  1.00  0.00    -0.238 OA
HETATM   25  H   UNL     1      15.814  53.762  47.428  1.00  0.00     0.171 HD
BRANCH  23  26
HETATM   26  O   UNL     1      13.997  53.331  49.988  1.00  0.00    -0.309 OA
HETATM   27  C   UNL     1      14.203  54.136  51.151  1.00  0.00     0.215 C 
ENDBRANCH  23  26
ENDBRANCH  19  22
ENDBRANCH  15  16
ENDBRANCH   1  15
TORSDOF 6
ENDMDL
MODEL 4
REMARK VINA RESULT:      -7.2     12.093     13.396
REMARK  6 active torsions:
REMARK  status: ('A' for Active; 'I' for Inactive)
REMARK    1  A    between atoms: C_2  and  N_3 
REMARK    2  A    between atoms: C_2  and  C_18 
REMARK    3  A    between atoms: N_3  and  C_6 
REMARK    4  A    between atoms: C_6  and  C_7 
REMARK    5  A    between atoms: C_10  and  N_11 
REMARK       I    between atoms: N_11  and  C_12 
REMARK    6  A    between atoms: C_12  and  O_13 
ROOT
HETATM    1  N   UNL     1      27.315  43.939  51.794  1.00  0.00    -0.063 N 
HETATM    2  H   UNL     1      28.141  43.332  51.872  1.00  0.00     0.278 HD
HETATM    3  H   UNL     1      26.519  43.293  51.761  1.00  0.00     0.278 HD
ENDROOT
BRANCH   1   4
HETATM    4  C   UNL     1      27.235  44.787  53.030  1.00  0.00     0.216 C 
HETATM    5  C   UNL     1      25.867  44.627  53.692  1.00  0.00     0.045 C 
BRANCH   4   6
HETATM    6  C   UNL     1      28.357  44.440  53.979  1.00  0.00    -0.009 A 
HETATM    7  C   UNL     1      29.173  43.342  53.727  1.00  0.00     0.126 A 
HETATM    8  N   UNL     1      30.192  42.928  54.501  1.00  0.00    -0.259 NA
HETATM    9  C   UNL     1      30.444  43.671  55.610  1.00  0.00     0.074 A 
HETATM   10  C   UNL     1      29.688  44.792  55.949  1.00  0.00     0.034 A 
HETATM   11  C   UNL     1      31.483  43.423  56.554  1.00  0.00     0.040 A 
HETATM   12  S   UNL     1      30.256  45.509  57.403  1.00  0.00    -0.100 SA
HETATM   13  C   UNL     1      28.620  45.194  55.131  1.00  0.00     0.032 A 
HETATM   14  C   UNL     1      31.496  44.345  57.575  1.00  0.00     0.053 A 
ENDBRANCH   4   6
ENDBRANCH   1   4
BRANCH   1  15
HETATM   15  C   UNL     1      27.410  44.656  50.489  1.00  0.00     0.271 C 
BRANCH  15  16
HETATM   16  C   UNL     1      26.171  45.463  50.221  1.00  0.00    -0.033 A 
HETATM   17  C   UNL     1      25.060  44.883  49.594  1.00  0.00     0.011 A 
HETATM   18  C   UNL     1      23.910  45.640  49.327  1.00  0.00     0.030 A 
HETATM   19  C   UNL     1      23.841  46.985  49.685  1.00  0.00     0.036 A 
HETATM   20  C   UNL     1      24.949  47.559  50.323  1.00  0.00     0.030 A 
HETATM   21  C   UNL     1      26.103  46.812  50.584  1.00  0.00     0.011 A 
BRANCH  19  22
HETATM   22  N   UNL     1      22.735  47.822  49.471  1.00  0.00    -0.303 N 
HETATM   23  C   UNL     1      22.477  48.799  48.545  1.00  0.00     0.364 C 
HETATM   24  O   UNL     1      21.396  49.378  48.552  1.00  0.00    -0.238 OA
HETATM   25  H   UNL     1      21.949  47.726  50.103  1.00  0.00     0.171 HD
BRANCH  23  26
HETATM   26  O   UNL     1      23.484  49.073  47.681  1.00  0.00    -0.309 OA
HETATM   27  C   UNL     1      24.156  50.307  47.943  1.00  0.00     0.215 C 
ENDBRANCH  23  26
ENDBRANCH  19  22
ENDBRANCH  15  16
ENDBRANCH   1  15
TORSDOF 6
ENDMDL
MODEL 5
REMARK VINA RESULT:      -7.1     12.453     14.332
REMARK  6 active torsions:
REMARK  status: ('A' for Active; 'I' for Inactive)
REMARK    1  A    between atoms: C_2  and  N_3 
REMARK    2  A    between atoms: C_2  and  C_18 
REMARK    3  A    between atoms: N_3  and  C_6 
REMARK    4  A    between atoms: C_6  and  C_7 
REMARK    5  A    between atoms: C_10  and  N_11 
REMARK       I    between atoms: N_11  and  C_12 
REMARK    6  A    between atoms: C_12  and  O_13 
ROOT
HETATM    1  N   UNL     1      27.499  40.713  52.458  1.00  0.00    -0.063 N 
HETATM    2  H   UNL     1      26.614  41.095  52.820  1.00  0.00     0.278 HD
HETATM    3  H   UNL     1      27.369  39.696  52.477  1.00  0.00     0.278 HD
ENDROOT
BRANCH   1   4
HETATM    4  C   UNL     1      27.672  41.182  51.043  1.00  0.00     0.216 C 
HETATM    5  C   UNL     1      27.466  40.019  50.073  1.00  0.00     0.045 C 
BRANCH   4   6
HETATM    6  C   UNL     1      26.732  42.326  50.750  1.00  0.00    -0.009 A 
HETATM    7  C   UNL     1      25.355  42.125  50.771  1.00  0.00     0.126 A 
HETATM    8  N   UNL     1      24.422  43.060  50.516  1.00  0.00    -0.259 NA
HETATM    9  C   UNL     1      24.882  44.307  50.235  1.00  0.00     0.074 A 
HETATM   10  C   UNL     1      26.241  44.613  50.194  1.00  0.00     0.034 A 
HETATM   11  C   UNL     1      24.070  45.444  49.955  1.00  0.00     0.040 A 
HETATM   12  S   UNL     1      26.495  46.269  49.812  1.00  0.00    -0.100 SA
HETATM   13  C   UNL     1      27.195  43.615  50.450  1.00  0.00     0.032 A 
HETATM   14  C   UNL     1      24.816  46.574  49.709  1.00  0.00     0.053 A 
ENDBRANCH   4   6
ENDBRANCH   1   4
BRANCH   1  15
HETATM   15  C   UNL     1      28.571  41.081  53.428  1.00  0.00     0.271 C 
BRANCH  15  16
HETATM   16  C   UNL     1      28.355  42.462  53.979  1.00  0.00    -0.033 A 
HETATM   17  C   UNL     1      29.437  43.327  54.191  1.00  0.00     0.011 A 
HETATM   18  C   UNL     1      29.239  44.609  54.722  1.00  0.00     0.030 A 
HETATM   19  C   UNL     1      27.959  45.057  55.047  1.00  0.00     0.036 A 
HETATM   20  C   UNL     1      26.878  44.195  54.822  1.00  0.00     0.030 A 
HETATM   21  C   UNL     1      27.069  42.911  54.301  1.00  0.00     0.011 A 
BRANCH  19  22
HETATM   22  N   UNL     1      27.657  46.323  55.572  1.00  0.00    -0.303 N 
HETATM   23  C   UNL     1      27.158  47.467  55.006  1.00  0.00     0.364 C 
HETATM   24  O   UNL     1      26.951  48.455  55.703  1.00  0.00    -0.238 OA
HETATM   25  H   UNL     1      27.829  46.471  56.560  1.00  0.00     0.171 HD
BRANCH  23  26
HETATM   26  O   UNL     1      26.950  47.420  53.668  1.00  0.00    -0.309 OA
HETATM   27  C   UNL     1      25.573  47.318  53.296  1.00  0.00     0.215 C 
ENDBRANCH  23  26
ENDBRANCH  19  22
ENDBRANCH  15  16
ENDBRANCH   1  15
TORSDOF 6
ENDMDL
MODEL 6
REMARK VINA RESULT:      -7.1     11.739     12.958
REMARK  6 active torsions:
REMARK  status: ('A' for Active; 'I' for Inactive)
REMARK    1  A    between atoms: C_2  and  N_3 
REMARK    2  A    between atoms: C_2  and  C_18 
REMARK    3  A    between atoms: N_3  and  C_6 
REMARK    4  A    between atoms: C_6  and  C_7 
REMARK    5  A    between atoms: C_10  and  N_11 
REMARK       I    between atoms: N_11  and  C_12 
REMARK    6  A    between atoms: C_12  and  O_13 
ROOT
HETATM    1  N   UNL     1      25.679  43.512  52.579  1.00  0.00    -0.063 N 
HETATM    2  H   UNL     1      25.141  43.116  53.362  1.00  0.00     0.278 HD
HETATM    3  H   UNL     1      25.859  44.484  52.853  1.00  0.00     0.278 HD
ENDROOT
BRANCH   1   4
HETATM    4  C   UNL     1      26.974  42.762  52.470  1.00  0.00     0.216 C 
HETATM    5  C   UNL     1      27.520  42.856  51.046  1.00  0.00     0.045 C 
BRANCH   4   6
HETATM    6  C   UNL     1      27.968  43.278  53.482  1.00  0.00    -0.009 A 
HETATM    7  C   UNL     1      29.177  42.617  53.679  1.00  0.00     0.126 A 
HETATM    8  N   UNL     1      30.132  42.973  54.555  1.00  0.00    -0.259 NA
HETATM    9  C   UNL     1      29.888  44.089  55.290  1.00  0.00     0.074 A 
HETATM   10  C   UNL     1      28.711  44.825  55.166  1.00  0.00     0.034 A 
HETATM   11  C   UNL     1      30.768  44.651  56.259  1.00  0.00     0.040 A 
HETATM   12  S   UNL     1      28.705  46.174  56.230  1.00  0.00    -0.100 SA
HETATM   13  C   UNL     1      27.722  44.424  54.253  1.00  0.00     0.032 A 
HETATM   14  C   UNL     1      30.252  45.786  56.843  1.00  0.00     0.053 A 
ENDBRANCH   4   6
ENDBRANCH   1   4
BRANCH   1  15
HETATM   15  C   UNL     1      24.792  43.505  51.380  1.00  0.00     0.271 C 
BRANCH  15  16
HETATM   16  C   UNL     1      24.654  44.884  50.799  1.00  0.00    -0.033 A 
HETATM   17  C   UNL     1      25.354  45.966  51.347  1.00  0.00     0.011 A 
HETATM   18  C   UNL     1      25.212  47.257  50.817  1.00  0.00     0.030 A 
HETATM   19  C   UNL     1      24.376  47.493  49.727  1.00  0.00     0.036 A 
HETATM   20  C   UNL     1      23.686  46.407  49.173  1.00  0.00     0.030 A 
HETATM   21  C   UNL     1      23.816  45.118  49.703  1.00  0.00     0.011 A 
BRANCH  19  22
HETATM   22  N   UNL     1      24.175  48.742  49.120  1.00  0.00    -0.303 N 
HETATM   23  C   UNL     1      24.972  49.528  48.330  1.00  0.00     0.364 C 
HETATM   24  O   UNL     1      24.543  50.589  47.890  1.00  0.00    -0.238 OA
HETATM   25  H   UNL     1      23.281  49.195  49.271  1.00  0.00     0.171 HD
BRANCH  23  26
HETATM   26  O   UNL     1      26.226  49.062  48.110  1.00  0.00    -0.309 OA
HETATM   27  C   UNL     1      27.248  49.807  48.775  1.00  0.00     0.215 C 
ENDBRANCH  23  26
ENDBRANCH  19  22
ENDBRANCH  15  16
ENDBRANCH   1  15
TORSDOF 6
ENDMDL
MODEL 7
REMARK VINA RESULT:      -7.0     13.655     15.521
REMARK  6 active torsions:
REMARK  status: ('A' for Active; 'I' for Inactive)
REMARK    1  A    between atoms: C_2  and  N_3 
REMARK    2  A    between atoms: C_2  and  C_18 
REMARK    3  A    between atoms: N_3  and  C_6 
REMARK    4  A    between atoms: C_6  and  C_7 
REMARK    5  A    between atoms: C_10  and  N_11 
REMARK       I    between atoms: N_11  and  C_12 
REMARK    6  A    between atoms: C_12  and  O_13 
ROOT
HETATM    1  N   UNL     1      25.695  44.431  52.736  1.00  0.00    -0.063 N 
HETATM    2  H   UNL     1      26.130  43.765  53.388  1.00  0.00     0.278 HD
HETATM    3  H   UNL     1      24.757  44.593  53.118  1.00  0.00     0.278 HD
ENDROOT
BRANCH   1   4
HETATM    4  C   UNL     1      26.487  45.705  52.765  1.00  0.00     0.216 C 
HETATM    5  C   UNL     1      25.548  46.911  52.748  1.00  0.00     0.045 C 
BRANCH   4   6
HETATM    6  C   UNL     1      27.402  45.729  53.965  1.00  0.00    -0.009 A 
HETATM    7  C   UNL     1      27.237  46.693  54.954  1.00  0.00     0.126 A 
HETATM    8  N   UNL     1      27.993  46.822  56.058  1.00  0.00    -0.259 NA
HETATM    9  C   UNL     1      28.988  45.910  56.215  1.00  0.00     0.074 A 
HETATM   10  C   UNL     1      29.234  44.902  55.284  1.00  0.00     0.034 A 
HETATM   11  C   UNL     1      29.891  45.852  57.315  1.00  0.00     0.040 A 
HETATM   12  S   UNL     1      30.554  43.916  55.769  1.00  0.00    -0.100 SA
HETATM   13  C   UNL     1      28.438  44.798  54.132  1.00  0.00     0.032 A 
HETATM   14  C   UNL     1      30.792  44.817  57.202  1.00  0.00     0.053 A 
ENDBRANCH   4   6
ENDBRANCH   1   4
BRANCH   1  15
HETATM   15  C   UNL     1      25.567  43.745  51.417  1.00  0.00     0.271 C 
BRANCH  15  16
HETATM   16  C   UNL     1      26.559  42.623  51.290  1.00  0.00    -0.033 A 
HETATM   17  C   UNL     1      26.957  42.158  50.030  1.00  0.00     0.011 A 
HETATM   18  C   UNL     1      27.869  41.099  49.910  1.00  0.00     0.030 A 
HETATM   19  C   UNL     1      28.407  40.489  51.042  1.00  0.00     0.036 A 
HETATM   20  C   UNL     1      28.016  40.964  52.300  1.00  0.00     0.030 A 
HETATM   21  C   UNL     1      27.100  42.014  52.428  1.00  0.00     0.011 A 
BRANCH  19  22
HETATM   22  N   UNL     1      29.331  39.432  51.027  1.00  0.00    -0.303 N 
HETATM   23  C   UNL     1      29.314  38.195  50.440  1.00  0.00     0.364 C 
HETATM   24  O   UNL     1      30.281  37.449  50.555  1.00  0.00    -0.238 OA
HETATM   25  H   UNL     1      30.194  39.561  51.542  1.00  0.00     0.171 HD
BRANCH  23  26
HETATM   26  O   UNL     1      28.177  37.872  49.776  1.00  0.00    -0.309 OA
HETATM   27  C   UNL     1      28.332  37.799  48.357  1.00  0.00     0.215 C 
ENDBRANCH  23  26
ENDBRANCH  19  22
ENDBRANCH  15  16
ENDBRANCH   1  15
TORSDOF 6
ENDMDL
MODEL 8
REMARK VINA RESULT:      -6.9     13.596     15.537
REMARK  6 active torsions:
REMARK  status: ('A' for Active; 'I' for Inactive)
REMARK    1  A    between atoms: C_2  and  N_3 
REMARK    2  A    between atoms: C_2  and  C_18 
REMARK    3  A    between atoms: N_3  and  C_6 
REMARK    4  A    between atoms: C_6  and  C_7 
REMARK    5  A    between atoms: C_10  and  N_11 
REMARK       I    between atoms: N_11  and  C_12 
REMARK    6  A    between atoms: C_12  and  O_13 
ROOT
HETATM    1  N   UNL     1      26.339  44.006  53.309  1.00  0.00    -0.063 N 
HETATM    2  H   UNL     1      26.772  43.151  53.682  1.00  0.00     0.278 HD
HETATM    3  H   UNL     1      25.566  44.208  53.952  1.00  0.00     0.278 HD
ENDROOT
BRANCH   1   4
HETATM    4  C   UNL     1      27.353  45.111  53.363  1.00  0.00     0.216 C 
HETATM    5  C   UNL     1      26.678  46.429  53.742  1.00  0.00     0.045 C 
BRANCH   4   6
HETATM    6  C   UNL     1      28.464  44.758  54.322  1.00  0.00    -0.009 A 
HETATM    7  C   UNL     1      29.335  43.712  54.032  1.00  0.00     0.126 A 
HETATM    8  N   UNL     1      30.351  43.299  54.809  1.00  0.00    -0.259 NA
HETATM    9  C   UNL     1      30.541  43.986  55.966  1.00  0.00     0.074 A 
HETATM   10  C   UNL     1      29.727  45.052  56.346  1.00  0.00     0.034 A 
HETATM   11  C   UNL     1      31.565  43.728  56.922  1.00  0.00     0.040 A 
HETATM   12  S   UNL     1      30.225  45.707  57.854  1.00  0.00    -0.100 SA
HETATM   13  C   UNL     1      28.664  45.455  55.522  1.00  0.00     0.032 A 
HETATM   14  C   UNL     1      31.511  44.590  57.995  1.00  0.00     0.053 A 
ENDBRANCH   4   6
ENDBRANCH   1   4
BRANCH   1  15
HETATM   15  C   UNL     1      25.776  43.672  51.968  1.00  0.00     0.271 C 
BRANCH  15  16
HETATM   16  C   UNL     1      26.608  42.631  51.274  1.00  0.00    -0.033 A 
HETATM   17  C   UNL     1      27.394  41.734  52.010  1.00  0.00     0.011 A 
HETATM   18  C   UNL     1      28.185  40.773  51.362  1.00  0.00     0.030 A 
HETATM   19  C   UNL     1      28.204  40.684  49.972  1.00  0.00     0.036 A 
HETATM   20  C   UNL     1      27.408  41.574  49.239  1.00  0.00     0.030 A 
HETATM   21  C   UNL     1      26.623  42.541  49.878  1.00  0.00     0.011 A 
BRANCH  19  22
HETATM   22  N   UNL     1      28.952  39.754  49.233  1.00  0.00    -0.303 N 
HETATM   23  C   UNL     1      28.830  38.402  49.050  1.00  0.00     0.364 C 
HETATM   24  O   UNL     1      29.613  37.810  48.315  1.00  0.00    -0.238 OA
HETATM   25  H   UNL     1      29.754  40.102  48.722  1.00  0.00     0.171 HD
BRANCH  23  26
HETATM   26  O   UNL     1      27.830  37.801  49.741  1.00  0.00    -0.309 OA
HETATM   27  C   UNL     1      26.841  37.183  48.916  1.00  0.00     0.215 C 
ENDBRANCH  23  26
ENDBRANCH  19  22
ENDBRANCH  15  16
ENDBRANCH   1  15
TORSDOF 6
ENDMDL
MODEL 9
REMARK VINA RESULT:      -6.8     12.501     14.450
REMARK  6 active torsions:
REMARK  status: ('A' for Active; 'I' for Inactive)
REMARK    1  A    between atoms: C_2  and  N_3 
REMARK    2  A    between atoms: C_2  and  C_18 
REMARK    3  A    between atoms: N_3  and  C_6 
REMARK    4  A    between atoms: C_6  and  C_7 
REMARK    5  A    between atoms: C_10  and  N_11 
REMARK       I    between atoms: N_11  and  C_12 
REMARK    6  A    between atoms: C_12  and  O_13 
ROOT
HETATM    1  N   UNL     1      27.038  41.174  50.949  1.00  0.00    -0.063 N 
HETATM    2  H   UNL     1      26.348  41.673  51.526  1.00  0.00     0.278 HD
HETATM    3  H   UNL     1      26.539  40.346  50.606  1.00  0.00     0.278 HD
ENDROOT
BRANCH   1   4
HETATM    4  C   UNL     1      27.418  42.058  49.798  1.00  0.00     0.216 C 
HETATM    5  C   UNL     1      27.436  41.254  48.498  1.00  0.00     0.045 C 
BRANCH   4   6
HETATM    6  C   UNL     1      26.480  43.238  49.709  1.00  0.00    -0.009 A 
HETATM    7  C   UNL     1      25.240  43.103  49.093  1.00  0.00     0.126 A 
HETATM    8  N   UNL     1      24.328  44.080  48.944  1.00  0.00    -0.259 NA
HETATM    9  C   UNL     1      24.655  45.292  49.463  1.00  0.00     0.074 A 
HETATM   10  C   UNL     1      25.870  45.529  50.103  1.00  0.00     0.034 A 
HETATM   11  C   UNL     1      23.832  46.454  49.432  1.00  0.00     0.040 A 
HETATM   12  S   UNL     1      25.980  47.156  50.646  1.00  0.00    -0.100 SA
HETATM   13  C   UNL     1      26.811  44.496  50.234  1.00  0.00     0.032 A 
HETATM   14  C   UNL     1      24.428  47.536  50.040  1.00  0.00     0.053 A 
ENDBRANCH   4   6
ENDBRANCH   1   4
BRANCH   1  15
HETATM   15  C   UNL     1      28.139  40.733  51.854  1.00  0.00     0.271 C 
BRANCH  15  16
HETATM   16  C   UNL     1      28.560  41.841  52.778  1.00  0.00    -0.033 A 
HETATM   17  C   UNL     1      29.909  42.197  52.901  1.00  0.00     0.011 A 
HETATM   18  C   UNL     1      30.305  43.219  53.777  1.00  0.00     0.030 A 
HETATM   19  C   UNL     1      29.365  43.909  54.540  1.00  0.00     0.036 A 
HETATM   20  C   UNL     1      28.016  43.559  54.405  1.00  0.00     0.030 A 
HETATM   21  C   UNL     1      27.614  42.534  53.541  1.00  0.00     0.011 A 
BRANCH  19  22
HETATM   22  N   UNL     1      29.659  44.950  55.434  1.00  0.00    -0.303 N 
HETATM   23  C   UNL     1      30.291  44.978  56.649  1.00  0.00     0.364 C 
HETATM   24  O   UNL     1      30.453  46.045  57.232  1.00  0.00    -0.238 OA
HETATM   25  H   UNL     1      29.360  45.884  55.177  1.00  0.00     0.171 HD
BRANCH  23  26
HETATM   26  O   UNL     1      30.679  43.775  57.140  1.00  0.00    -0.309 OA
HETATM   27  C   UNL     1      32.096  43.627  57.267  1.00  0.00     0.215 C 
ENDBRANCH  23  26
ENDBRANCH  19  22
ENDBRANCH  15  16
ENDBRANCH   1  15
TORSDOF 6
ENDMDL
MODEL 10
REMARK VINA RESULT:      -6.8     11.957     13.370
REMARK  6 active torsions:
REMARK  status: ('A' for Active; 'I' for Inactive)
REMARK    1  A    between atoms: C_2  and  N_3 
REMARK    2  A    between atoms: C_2  and  C_18 
REMARK    3  A    between atoms: N_3  and  C_6 
REMARK    4  A    between atoms: C_6  and  C_7 
REMARK    5  A    between atoms: C_10  and  N_11 
REMARK       I    between atoms: N_11  and  C_12 
REMARK    6  A    between atoms: C_12  and  O_13 
ROOT
HETATM    1  N   UNL     1      26.285  42.289  52.187  1.00  0.00    -0.063 N 
HETATM    2  H   UNL     1      25.644  41.512  52.396  1.00  0.00     0.278 HD
HETATM    3  H   UNL     1      25.909  43.085  52.715  1.00  0.00     0.278 HD
ENDROOT
BRANCH   1   4
HETATM    4  C   UNL     1      27.647  41.929  52.705  1.00  0.00     0.216 C 
HETATM    5  C   UNL     1      28.606  41.682  51.541  1.00  0.00     0.045 C 
BRANCH   4   6
HETATM    6  C   UNL     1      28.159  43.005  53.631  1.00  0.00    -0.009 A 
HETATM    7  C   UNL     1      27.475  44.211  53.751  1.00  0.00     0.126 A 
HETATM    8  N   UNL     1      27.837  45.245  54.530  1.00  0.00    -0.259 NA
HETATM    9  C   UNL     1      28.961  45.072  55.273  1.00  0.00     0.074 A 
HETATM   10  C   UNL     1      29.716  43.901  55.229  1.00  0.00     0.034 A 
HETATM   11  C   UNL     1      29.511  46.027  56.176  1.00  0.00     0.040 A 
HETATM   12  S   UNL     1      31.072  43.994  56.280  1.00  0.00    -0.100 SA
HETATM   13  C   UNL     1      29.323  42.841  54.396  1.00  0.00     0.032 A 
HETATM   14  C   UNL     1      30.655  45.571  56.791  1.00  0.00     0.053 A 
ENDBRANCH   4   6
ENDBRANCH   1   4
BRANCH   1  15
HETATM   15  C   UNL     1      26.173  42.580  50.729  1.00  0.00     0.271 C 
BRANCH  15  16
HETATM   16  C   UNL     1      25.922  44.042  50.484  1.00  0.00    -0.033 A 
HETATM   17  C   UNL     1      26.870  44.830  49.818  1.00  0.00     0.011 A 
HETATM   18  C   UNL     1      26.645  46.198  49.606  1.00  0.00     0.030 A 
HETATM   19  C   UNL     1      25.469  46.804  50.046  1.00  0.00     0.036 A 
HETATM   20  C   UNL     1      24.518  46.011  50.700  1.00  0.00     0.030 A 
HETATM   21  C   UNL     1      24.740  44.647  50.924  1.00  0.00     0.011 A 
BRANCH  19  22
HETATM   22  N   UNL     1      25.147  48.160  49.872  1.00  0.00    -0.303 N 
HETATM   23  C   UNL     1      24.174  48.796  49.147  1.00  0.00     0.364 C 
HETATM   24  O   UNL     1      24.083  50.018  49.186  1.00  0.00    -0.238 OA
HETATM   25  H   UNL     1      25.722  48.841  50.354  1.00  0.00     0.171 HD
BRANCH  23  26
HETATM   26  O   UNL     1      23.378  47.994  48.398  1.00  0.00    -0.309 OA
HETATM   27  C   UNL     1      22.144  48.601  48.007  1.00  0.00     0.215 C 
ENDBRANCH  23  26
ENDBRANCH  19  22
ENDBRANCH  15  16
ENDBRANCH   1  15
TORSDOF 6
ENDMDL
