MODEL 1
REMARK VINA RESULT:      -9.7      0.000      0.000
REMARK  5 active torsions:
REMARK  status: ('A' for Active; 'I' for Inactive)
REMARK    1  A    between atoms: C_5  and  N_6 
REMARK       I    between atoms: N_6  and  C_7 
REMARK       I    between atoms: C_7  and  N_8 
REMARK    2  A    between atoms: N_8  and  C_9 
REMARK    3  A    between atoms: C_11  and  C_12 
REMARK       I    between atoms: C_12  and  N_13 
REMARK    4  A    between atoms: N_13  and  C_14 
REMARK    5  A    between atoms: C_14  and  C_15 
ROOT
HETATM    1  C   UNL     1      24.883  47.118  50.008  1.00  0.00     0.175 A 
HETATM    2  S   UNL     1      25.699  46.884  51.475  1.00  0.00    -0.044 SA
HETATM    3  C   UNL     1      24.963  45.329  51.626  1.00  0.00     0.100 A 
HETATM    4  C   UNL     1      24.099  45.131  50.552  1.00  0.00     0.056 A 
HETATM    5  C   UNL     1      23.274  43.932  50.236  1.00  0.00     0.072 C 
HETATM    6  N   UNL     1      24.058  46.175  49.633  1.00  0.00    -0.228 NA
ENDROOT
BRANCH   1   7
HETATM    7  N   UNL     1      25.196  48.268  49.347  1.00  0.00    -0.287 N 
HETATM    8  C   UNL     1      24.330  49.272  49.014  1.00  0.00     0.326 C 
HETATM    9  N   UNL     1      23.033  49.130  49.432  1.00  0.00    -0.309 N 
HETATM   10  O   UNL     1      24.777  50.209  48.353  1.00  0.00    -0.247 OA
HETATM   11  H   UNL     1      22.868  48.336  50.044  1.00  0.00     0.170 HD
HETATM   12  H   UNL     1      26.130  48.364  48.978  1.00  0.00     0.172 HD
BRANCH   9  13
HETATM   13  C   UNL     1      21.917  49.928  49.117  1.00  0.00     0.036 A 
HETATM   14  C   UNL     1      21.361  50.026  47.841  1.00  0.00     0.030 A 
HETATM   15  C   UNL     1      20.225  50.814  47.622  1.00  0.00     0.009 A 
HETATM   16  C   UNL     1      19.625  51.514  48.673  1.00  0.00    -0.062 A 
HETATM   17  C   UNL     1      18.417  52.365  48.419  1.00  0.00     0.048 C 
HETATM   18  C   UNL     1      20.191  51.430  49.948  1.00  0.00     0.009 A 
HETATM   19  C   UNL     1      21.323  50.638  50.168  1.00  0.00     0.030 A 
ENDBRANCH   9  13
ENDBRANCH   1   7
BRANCH   3  20
HETATM   20  C   UNL     1      25.363  44.477  52.734  1.00  0.00     0.260 C 
HETATM   21  N   UNL     1      26.678  44.063  52.727  1.00  0.00    -0.352 N 
HETATM   22  H   UNL     1      27.232  44.152  51.890  1.00  0.00     0.163 HD
HETATM   23  O   UNL     1      24.602  44.142  53.640  1.00  0.00    -0.267 OA
BRANCH  21  24
HETATM   24  C   UNL     1      27.262  43.324  53.824  1.00  0.00     0.163 C 
BRANCH  24  25
HETATM   25  C   UNL     1      28.178  44.174  54.663  1.00  0.00    -0.019 A 
HETATM   26  C   UNL     1      29.553  43.916  54.780  1.00  0.00     0.042 A 
HETATM   27 CL   UNL     1      30.290  42.557  54.005  1.00  0.00    -0.084 Cl
HETATM   28  C   UNL     1      30.375  44.756  55.538  1.00  0.00     0.024 A 
HETATM   29  C   UNL     1      29.832  45.862  56.193  1.00  0.00     0.002 A 
HETATM   30  C   UNL     1      28.467  46.120  56.102  1.00  0.00     0.001 A 
HETATM   31  C   UNL     1      27.646  45.280  55.348  1.00  0.00     0.010 A 
ENDBRANCH  24  25
ENDBRANCH  21  24
ENDBRANCH   3  20
TORSDOF 5
ENDMDL
MODEL 2
REMARK VINA RESULT:      -9.6      2.849      9.847
REMARK  5 active torsions:
REMARK  status: ('A' for Active; 'I' for Inactive)
REMARK    1  A    between atoms: C_5  and  N_6 
REMARK       I    between atoms: N_6  and  C_7 
REMARK       I    between atoms: C_7  and  N_8 
REMARK    2  A    between atoms: N_8  and  C_9 
REMARK    3  A    between atoms: C_11  and  C_12 
REMARK       I    between atoms: C_12  and  N_13 
REMARK    4  A    between atoms: N_13  and  C_14 
REMARK    5  A    between atoms: C_14  and  C_15 
ROOT
HETATM    1  C   UNL     1      25.726  45.764  50.143  1.00  0.00     0.175 A 
HETATM    2  S   UNL     1      24.226  46.514  49.896  1.00  0.00    -0.044 SA
HETATM    3  C   UNL     1      25.038  47.956  49.403  1.00  0.00     0.100 A 
HETATM    4  C   UNL     1      26.412  47.764  49.517  1.00  0.00     0.056 A 
HETATM    5  C   UNL     1      27.512  48.708  49.175  1.00  0.00     0.072 C 
HETATM    6  N   UNL     1      26.792  46.498  49.954  1.00  0.00    -0.228 NA
ENDROOT
BRANCH   1   7
HETATM    7  N   UNL     1      25.667  44.448  50.492  1.00  0.00    -0.287 N 
HETATM    8  C   UNL     1      26.414  43.832  51.457  1.00  0.00     0.326 C 
HETATM    9  N   UNL     1      27.267  44.627  52.176  1.00  0.00    -0.309 N 
HETATM   10  O   UNL     1      26.276  42.616  51.589  1.00  0.00    -0.247 OA
HETATM   11  H   UNL     1      27.180  45.622  51.990  1.00  0.00     0.170 HD
HETATM   12  H   UNL     1      25.091  43.836  49.935  1.00  0.00     0.172 HD
BRANCH   9  13
HETATM   13  C   UNL     1      28.239  44.243  53.119  1.00  0.00     0.036 A 
HETATM   14  C   UNL     1      29.225  43.286  52.880  1.00  0.00     0.030 A 
HETATM   15  C   UNL     1      30.180  42.991  53.860  1.00  0.00     0.009 A 
HETATM   16  C   UNL     1      30.166  43.648  55.094  1.00  0.00    -0.062 A 
HETATM   17  C   UNL     1      31.186  43.311  56.139  1.00  0.00     0.048 C 
HETATM   18  C   UNL     1      29.168  44.595  55.341  1.00  0.00     0.009 A 
HETATM   19  C   UNL     1      28.218  44.893  54.359  1.00  0.00     0.030 A 
ENDBRANCH   9  13
ENDBRANCH   1   7
BRANCH   3  20
HETATM   20  C   UNL     1      24.240  49.068  48.911  1.00  0.00     0.260 C 
HETATM   21  N   UNL     1      23.136  48.727  48.159  1.00  0.00    -0.352 N 
HETATM   22  H   UNL     1      23.044  47.794  47.789  1.00  0.00     0.163 HD
HETATM   23  O   UNL     1      24.502  50.246  49.146  1.00  0.00    -0.267 OA
BRANCH  21  24
HETATM   24  C   UNL     1      22.173  49.707  47.712  1.00  0.00     0.163 C 
BRANCH  24  25
HETATM   25  C   UNL     1      21.005  49.834  48.654  1.00  0.00    -0.019 A 
HETATM   26  C   UNL     1      20.252  48.728  49.080  1.00  0.00     0.042 A 
HETATM   27 CL   UNL     1      20.580  47.131  48.503  1.00  0.00    -0.084 Cl
HETATM   28  C   UNL     1      19.201  48.888  49.989  1.00  0.00     0.024 A 
HETATM   29  C   UNL     1      18.886  50.155  50.480  1.00  0.00     0.002 A 
HETATM   30  C   UNL     1      19.612  51.263  50.053  1.00  0.00     0.001 A 
HETATM   31  C   UNL     1      20.659  51.106  49.143  1.00  0.00     0.010 A 
ENDBRANCH  24  25
ENDBRANCH  21  24
ENDBRANCH   3  20
TORSDOF 5
ENDMDL
MODEL 3
REMARK VINA RESULT:      -9.5      1.843      2.380
REMARK  5 active torsions:
REMARK  status: ('A' for Active; 'I' for Inactive)
REMARK    1  A    between atoms: C_5  and  N_6 
REMARK       I    between atoms: N_6  and  C_7 
REMARK       I    between atoms: C_7  and  N_8 
REMARK    2  A    between atoms: N_8  and  C_9 
REMARK    3  A    between atoms: C_11  and  C_12 
REMARK       I    between atoms: C_12  and  N_13 
REMARK    4  A    between atoms: N_13  and  C_14 
REMARK    5  A    between atoms: C_14  and  C_15 
ROOT
HETATM    1  C   UNL     1      24.181  45.830  49.772  1.00  0.00     0.175 A 
HETATM    2  S   UNL     1      24.198  44.352  50.602  1.00  0.00    -0.044 SA
HETATM    3  C   UNL     1      25.113  45.086  51.870  1.00  0.00     0.100 A 
HETATM    4  C   UNL     1      25.380  46.408  51.529  1.00  0.00     0.056 A 
HETATM    5  C   UNL     1      26.104  47.442  52.321  1.00  0.00     0.072 C 
HETATM    6  N   UNL     1      24.843  46.820  50.313  1.00  0.00    -0.228 NA
ENDROOT
BRANCH   1   7
HETATM    7  N   UNL     1      23.445  45.844  48.625  1.00  0.00    -0.287 N 
HETATM    8  C   UNL     1      22.556  46.810  48.245  1.00  0.00     0.326 C 
HETATM    9  N   UNL     1      22.432  47.892  49.074  1.00  0.00    -0.309 N 
HETATM   10  O   UNL     1      21.927  46.621  47.204  1.00  0.00    -0.247 OA
HETATM   11  H   UNL     1      23.097  47.919  49.842  1.00  0.00     0.170 HD
HETATM   12  H   UNL     1      23.477  45.029  48.032  1.00  0.00     0.172 HD
BRANCH   9  13
HETATM   13  C   UNL     1      21.507  48.951  49.004  1.00  0.00     0.036 A 
HETATM   14  C   UNL     1      20.164  48.842  49.363  1.00  0.00     0.030 A 
HETATM   15  C   UNL     1      19.319  49.956  49.299  1.00  0.00     0.009 A 
HETATM   16  C   UNL     1      19.803  51.198  48.877  1.00  0.00    -0.062 A 
HETATM   17  C   UNL     1      18.882  52.379  48.799  1.00  0.00     0.048 C 
HETATM   18  C   UNL     1      21.145  51.305  48.499  1.00  0.00     0.009 A 
HETATM   19  C   UNL     1      21.989  50.192  48.569  1.00  0.00     0.030 A 
ENDBRANCH   9  13
ENDBRANCH   1   7
BRANCH   3  20
HETATM   20  C   UNL     1      25.402  44.301  53.060  1.00  0.00     0.260 C 
HETATM   21  N   UNL     1      26.685  43.806  53.155  1.00  0.00    -0.352 N 
HETATM   22  H   UNL     1      27.284  43.794  52.345  1.00  0.00     0.163 HD
HETATM   23  O   UNL     1      24.578  44.088  53.947  1.00  0.00    -0.267 OA
BRANCH  21  24
HETATM   24  C   UNL     1      27.164  43.123  54.335  1.00  0.00     0.163 C 
BRANCH  24  25
HETATM   25  C   UNL     1      28.491  43.655  54.806  1.00  0.00    -0.019 A 
HETATM   26  C   UNL     1      28.648  44.955  55.316  1.00  0.00     0.042 A 
HETATM   27 CL   UNL     1      27.325  46.066  55.388  1.00  0.00    -0.084 Cl
HETATM   28  C   UNL     1      29.892  45.393  55.782  1.00  0.00     0.024 A 
HETATM   29  C   UNL     1      30.996  44.542  55.737  1.00  0.00     0.002 A 
HETATM   30  C   UNL     1      30.860  43.258  55.218  1.00  0.00     0.001 A 
HETATM   31  C   UNL     1      29.620  42.820  54.751  1.00  0.00     0.010 A 
ENDBRANCH  24  25
ENDBRANCH  21  24
ENDBRANCH   3  20
TORSDOF 5
ENDMDL
MODEL 4
REMARK VINA RESULT:      -9.4      1.758      2.301
REMARK  5 active torsions:
REMARK  status: ('A' for Active; 'I' for Inactive)
REMARK    1  A    between atoms: C_5  and  N_6 
REMARK       I    between atoms: N_6  and  C_7 
REMARK       I    between atoms: C_7  and  N_8 
REMARK    2  A    between atoms: N_8  and  C_9 
REMARK    3  A    between atoms: C_11  and  C_12 
REMARK       I    between atoms: C_12  and  N_13 
REMARK    4  A    between atoms: N_13  and  C_14 
REMARK    5  A    between atoms: C_14  and  C_15 
ROOT
HETATM    1  C   UNL     1      23.966  47.259  49.505  1.00  0.00     0.175 A 
HETATM    2  S   UNL     1      24.881  46.417  50.657  1.00  0.00    -0.044 SA
HETATM    3  C   UNL     1      24.080  44.954  50.209  1.00  0.00     0.100 A 
HETATM    4  C   UNL     1      23.126  45.238  49.236  1.00  0.00     0.056 A 
HETATM    5  C   UNL     1      22.219  44.297  48.524  1.00  0.00     0.072 C 
HETATM    6  N   UNL     1      23.067  46.574  48.847  1.00  0.00    -0.228 NA
ENDROOT
BRANCH   1   7
HETATM    7  N   UNL     1      24.284  48.577  49.361  1.00  0.00    -0.287 N 
HETATM    8  C   UNL     1      23.407  49.626  49.352  1.00  0.00     0.326 C 
HETATM    9  N   UNL     1      22.087  49.325  49.560  1.00  0.00    -0.309 N 
HETATM   10  O   UNL     1      23.869  50.746  49.140  1.00  0.00    -0.247 OA
HETATM   11  H   UNL     1      21.904  48.357  49.807  1.00  0.00     0.170 HD
HETATM   12  H   UNL     1      25.241  48.812  49.146  1.00  0.00     0.172 HD
BRANCH   9  13
HETATM   13  C   UNL     1      20.969  50.175  49.465  1.00  0.00     0.036 A 
HETATM   14  C   UNL     1      20.881  51.258  48.592  1.00  0.00     0.030 A 
HETATM   15  C   UNL     1      19.715  52.031  48.534  1.00  0.00     0.009 A 
HETATM   16  C   UNL     1      18.617  51.731  49.346  1.00  0.00    -0.062 A 
HETATM   17  C   UNL     1      17.380  52.576  49.283  1.00  0.00     0.048 C 
HETATM   18  C   UNL     1      18.710  50.655  50.235  1.00  0.00     0.009 A 
HETATM   19  C   UNL     1      19.874  49.881  50.287  1.00  0.00     0.030 A 
ENDBRANCH   9  13
ENDBRANCH   1   7
BRANCH   3  20
HETATM   20  C   UNL     1      24.522  43.708  50.815  1.00  0.00     0.260 C 
HETATM   21  N   UNL     1      25.886  43.555  50.945  1.00  0.00    -0.352 N 
HETATM   22  H   UNL     1      26.514  44.158  50.435  1.00  0.00     0.163 HD
HETATM   23  O   UNL     1      23.751  42.836  51.209  1.00  0.00    -0.267 OA
BRANCH  21  24
HETATM   24  C   UNL     1      26.476  42.437  51.646  1.00  0.00     0.163 C 
BRANCH  24  25
HETATM   25  C   UNL     1      27.599  42.858  52.555  1.00  0.00    -0.019 A 
HETATM   26  C   UNL     1      27.382  43.558  53.753  1.00  0.00     0.042 A 
HETATM   27 CL   UNL     1      25.796  44.040  54.246  1.00  0.00    -0.084 Cl
HETATM   28  C   UNL     1      28.453  43.892  54.588  1.00  0.00     0.024 A 
HETATM   29  C   UNL     1      29.755  43.537  54.233  1.00  0.00     0.002 A 
HETATM   30  C   UNL     1      29.988  42.859  53.040  1.00  0.00     0.001 A 
HETATM   31  C   UNL     1      28.920  42.527  52.205  1.00  0.00     0.010 A 
ENDBRANCH  24  25
ENDBRANCH  21  24
ENDBRANCH   3  20
TORSDOF 5
ENDMDL
MODEL 5
REMARK VINA RESULT:      -9.2      1.805      2.145
REMARK  5 active torsions:
REMARK  status: ('A' for Active; 'I' for Inactive)
REMARK    1  A    between atoms: C_5  and  N_6 
REMARK       I    between atoms: N_6  and  C_7 
REMARK       I    between atoms: C_7  and  N_8 
REMARK    2  A    between atoms: N_8  and  C_9 
REMARK    3  A    between atoms: C_11  and  C_12 
REMARK       I    between atoms: C_12  and  N_13 
REMARK    4  A    between atoms: N_13  and  C_14 
REMARK    5  A    between atoms: C_14  and  C_15 
ROOT
HETATM    1  C   UNL     1      23.343  45.995  49.170  1.00  0.00     0.175 A 
HETATM    2  S   UNL     1      23.479  44.512  49.980  1.00  0.00    -0.044 SA
HETATM    3  C   UNL     1      24.745  45.171  50.953  1.00  0.00     0.100 A 
HETATM    4  C   UNL     1      25.002  46.475  50.541  1.00  0.00     0.056 A 
HETATM    5  C   UNL     1      25.978  47.450  51.102  1.00  0.00     0.072 C 
HETATM    6  N   UNL     1      24.191  46.933  49.506  1.00  0.00    -0.228 NA
ENDROOT
BRANCH   1   7
HETATM    7  N   UNL     1      22.332  46.069  48.259  1.00  0.00    -0.287 N 
HETATM    8  C   UNL     1      21.428  47.086  48.133  1.00  0.00     0.326 C 
HETATM    9  N   UNL     1      21.586  48.157  48.973  1.00  0.00    -0.309 N 
HETATM   10  O   UNL     1      20.537  46.951  47.295  1.00  0.00    -0.247 OA
HETATM   11  H   UNL     1      22.431  48.135  49.537  1.00  0.00     0.170 HD
HETATM   12  H   UNL     1      22.162  45.265  47.674  1.00  0.00     0.172 HD
BRANCH   9  13
HETATM   13  C   UNL     1      20.733  49.262  49.156  1.00  0.00     0.036 A 
HETATM   14  C   UNL     1      20.967  50.527  48.618  1.00  0.00     0.030 A 
HETATM   15  C   UNL     1      20.047  51.564  48.816  1.00  0.00     0.009 A 
HETATM   16  C   UNL     1      18.878  51.352  49.553  1.00  0.00    -0.062 A 
HETATM   17  C   UNL     1      17.909  52.476  49.769  1.00  0.00     0.048 C 
HETATM   18  C   UNL     1      18.651  50.088  50.108  1.00  0.00     0.009 A 
HETATM   19  C   UNL     1      19.569  49.052  49.904  1.00  0.00     0.030 A 
ENDBRANCH   9  13
ENDBRANCH   1   7
BRANCH   3  20
HETATM   20  C   UNL     1      25.285  44.359  52.031  1.00  0.00     0.260 C 
HETATM   21  N   UNL     1      26.652  44.181  52.023  1.00  0.00    -0.352 N 
HETATM   22  H   UNL     1      27.185  44.399  51.195  1.00  0.00     0.163 HD
HETATM   23  O   UNL     1      24.591  43.861  52.917  1.00  0.00    -0.267 OA
BRANCH  21  24
HETATM   24  C   UNL     1      27.352  43.513  53.096  1.00  0.00     0.163 C 
BRANCH  24  25
HETATM   25  C   UNL     1      27.988  44.483  54.056  1.00  0.00    -0.019 A 
HETATM   26  C   UNL     1      29.146  44.174  54.788  1.00  0.00     0.042 A 
HETATM   27 CL   UNL     1      29.901  42.622  54.678  1.00  0.00    -0.084 Cl
HETATM   28  C   UNL     1      29.727  45.121  55.637  1.00  0.00     0.024 A 
HETATM   29  C   UNL     1      29.154  46.386  55.772  1.00  0.00     0.002 A 
HETATM   30  C   UNL     1      27.996  46.700  55.067  1.00  0.00     0.001 A 
HETATM   31  C   UNL     1      27.414  45.755  54.221  1.00  0.00     0.010 A 
ENDBRANCH  24  25
ENDBRANCH  21  24
ENDBRANCH   3  20
TORSDOF 5
ENDMDL
MODEL 6
REMARK VINA RESULT:      -8.9      3.292      9.792
REMARK  5 active torsions:
REMARK  status: ('A' for Active; 'I' for Inactive)
REMARK    1  A    between atoms: C_5  and  N_6 
REMARK       I    between atoms: N_6  and  C_7 
REMARK       I    between atoms: C_7  and  N_8 
REMARK    2  A    between atoms: N_8  and  C_9 
REMARK    3  A    between atoms: C_11  and  C_12 
REMARK       I    between atoms: C_12  and  N_13 
REMARK    4  A    between atoms: N_13  and  C_14 
REMARK    5  A    between atoms: C_14  and  C_15 
ROOT
HETATM    1  C   UNL     1      26.579  43.495  51.116  1.00  0.00     0.175 A 
HETATM    2  S   UNL     1      24.994  43.231  50.574  1.00  0.00    -0.044 SA
HETATM    3  C   UNL     1      25.013  44.774  49.797  1.00  0.00     0.100 A 
HETATM    4  C   UNL     1      26.228  45.399  50.060  1.00  0.00     0.056 A 
HETATM    5  C   UNL     1      26.715  46.721  49.576  1.00  0.00     0.072 C 
HETATM    6  N   UNL     1      27.117  44.653  50.829  1.00  0.00    -0.228 NA
ENDROOT
BRANCH   1   7
HETATM    7  N   UNL     1      27.148  42.450  51.779  1.00  0.00    -0.287 N 
HETATM    8  C   UNL     1      27.868  42.522  52.939  1.00  0.00     0.326 C 
HETATM    9  N   UNL     1      27.986  43.759  53.513  1.00  0.00    -0.309 N 
HETATM   10  O   UNL     1      28.368  41.479  53.359  1.00  0.00    -0.247 OA
HETATM   11  H   UNL     1      27.431  44.488  53.074  1.00  0.00     0.170 HD
HETATM   12  H   UNL     1      27.124  41.542  51.341  1.00  0.00     0.172 HD
BRANCH   9  13
HETATM   13  C   UNL     1      28.774  44.144  54.615  1.00  0.00     0.036 A 
HETATM   14  C   UNL     1      29.978  43.534  54.967  1.00  0.00     0.030 A 
HETATM   15  C   UNL     1      30.720  44.004  56.057  1.00  0.00     0.009 A 
HETATM   16  C   UNL     1      30.272  45.093  56.811  1.00  0.00    -0.062 A 
HETATM   17  C   UNL     1      31.071  45.576  57.984  1.00  0.00     0.048 C 
HETATM   18  C   UNL     1      29.057  45.695  56.470  1.00  0.00     0.009 A 
HETATM   19  C   UNL     1      28.319  45.227  55.377  1.00  0.00     0.030 A 
ENDBRANCH   9  13
ENDBRANCH   1   7
BRANCH   3  20
HETATM   20  C   UNL     1      23.870  45.153  48.982  1.00  0.00     0.260 C 
HETATM   21  N   UNL     1      23.309  46.379  49.270  1.00  0.00    -0.352 N 
HETATM   22  H   UNL     1      23.531  46.847  50.134  1.00  0.00     0.163 HD
HETATM   23  O   UNL     1      23.421  44.452  48.077  1.00  0.00    -0.267 OA
BRANCH  21  24
HETATM   24  C   UNL     1      22.255  46.955  48.465  1.00  0.00     0.163 C 
BRANCH  24  25
HETATM   25  C   UNL     1      22.202  48.455  48.579  1.00  0.00    -0.019 A 
HETATM   26  C   UNL     1      21.084  49.136  49.089  1.00  0.00     0.042 A 
HETATM   27 CL   UNL     1      19.654  48.294  49.575  1.00  0.00    -0.084 Cl
HETATM   28  C   UNL     1      21.094  50.528  49.216  1.00  0.00     0.024 A 
HETATM   29  C   UNL     1      22.218  51.259  48.830  1.00  0.00     0.002 A 
HETATM   30  C   UNL     1      23.326  50.600  48.306  1.00  0.00     0.001 A 
HETATM   31  C   UNL     1      23.316  49.210  48.176  1.00  0.00     0.010 A 
ENDBRANCH  24  25
ENDBRANCH  21  24
ENDBRANCH   3  20
TORSDOF 5
ENDMDL
MODEL 7
REMARK VINA RESULT:      -8.8      3.520     10.359
REMARK  5 active torsions:
REMARK  status: ('A' for Active; 'I' for Inactive)
REMARK    1  A    between atoms: C_5  and  N_6 
REMARK       I    between atoms: N_6  and  C_7 
REMARK       I    between atoms: C_7  and  N_8 
REMARK    2  A    between atoms: N_8  and  C_9 
REMARK    3  A    between atoms: C_11  and  C_12 
REMARK       I    between atoms: C_12  and  N_13 
REMARK    4  A    between atoms: N_13  and  C_14 
REMARK    5  A    between atoms: C_14  and  C_15 
ROOT
HETATM    1  C   UNL     1      26.032  45.188  50.562  1.00  0.00     0.175 A 
HETATM    2  S   UNL     1      24.441  45.773  50.596  1.00  0.00    -0.044 SA
HETATM    3  C   UNL     1      24.980  47.251  49.883  1.00  0.00     0.100 A 
HETATM    4  C   UNL     1      26.362  47.198  49.720  1.00  0.00     0.056 A 
HETATM    5  C   UNL     1      27.264  48.218  49.117  1.00  0.00     0.072 C 
HETATM    6  N   UNL     1      26.954  46.005  50.124  1.00  0.00    -0.228 NA
ENDROOT
BRANCH   1   7
HETATM    7  N   UNL     1      26.185  43.897  50.974  1.00  0.00    -0.287 N 
HETATM    8  C   UNL     1      26.972  43.464  52.003  1.00  0.00     0.326 C 
HETATM    9  N   UNL     1      27.632  44.426  52.721  1.00  0.00    -0.309 N 
HETATM   10  O   UNL     1      27.042  42.249  52.189  1.00  0.00    -0.247 OA
HETATM   11  H   UNL     1      27.383  45.382  52.481  1.00  0.00     0.170 HD
HETATM   12  H   UNL     1      25.756  43.170  50.422  1.00  0.00     0.172 HD
BRANCH   9  13
HETATM   13  C   UNL     1      28.603  44.260  53.727  1.00  0.00     0.036 A 
HETATM   14  C   UNL     1      28.680  45.046  54.876  1.00  0.00     0.030 A 
HETATM   15  C   UNL     1      29.655  44.789  55.847  1.00  0.00     0.009 A 
HETATM   16  C   UNL     1      30.566  43.740  55.687  1.00  0.00    -0.062 A 
HETATM   17  C   UNL     1      31.614  43.486  56.730  1.00  0.00     0.048 C 
HETATM   18  C   UNL     1      30.500  42.962  54.527  1.00  0.00     0.009 A 
HETATM   19  C   UNL     1      29.522  43.217  53.560  1.00  0.00     0.030 A 
ENDBRANCH   9  13
ENDBRANCH   1   7
BRANCH   3  20
HETATM   20  C   UNL     1      23.987  48.247  49.517  1.00  0.00     0.260 C 
HETATM   21  N   UNL     1      22.700  47.779  49.354  1.00  0.00    -0.352 N 
HETATM   22  H   UNL     1      22.529  46.790  49.261  1.00  0.00     0.163 HD
HETATM   23  O   UNL     1      24.246  49.440  49.369  1.00  0.00    -0.267 OA
BRANCH  21  24
HETATM   24  C   UNL     1      21.580  48.662  49.122  1.00  0.00     0.163 C 
BRANCH  24  25
HETATM   25  C   UNL     1      20.606  48.101  48.120  1.00  0.00    -0.019 A 
HETATM   26  C   UNL     1      19.817  48.916  47.293  1.00  0.00     0.042 A 
HETATM   27 CL   UNL     1      19.867  50.642  47.406  1.00  0.00    -0.084 Cl
HETATM   28  C   UNL     1      18.956  48.352  46.347  1.00  0.00     0.024 A 
HETATM   29  C   UNL     1      18.867  46.966  46.220  1.00  0.00     0.002 A 
HETATM   30  C   UNL     1      19.630  46.144  47.045  1.00  0.00     0.001 A 
HETATM   31  C   UNL     1      20.488  46.707  47.991  1.00  0.00     0.010 A 
ENDBRANCH  24  25
ENDBRANCH  21  24
ENDBRANCH   3  20
TORSDOF 5
ENDMDL
MODEL 8
REMARK VINA RESULT:      -8.0      6.477     10.361
REMARK  5 active torsions:
REMARK  status: ('A' for Active; 'I' for Inactive)
REMARK    1  A    between atoms: C_5  and  N_6 
REMARK       I    between atoms: N_6  and  C_7 
REMARK       I    between atoms: C_7  and  N_8 
REMARK    2  A    between atoms: N_8  and  C_9 
REMARK    3  A    between atoms: C_11  and  C_12 
REMARK       I    between atoms: C_12  and  N_13 
REMARK    4  A    between atoms: N_13  and  C_14 
REMARK    5  A    between atoms: C_14  and  C_15 
ROOT
HETATM    1  C   UNL     1      26.605  42.064  50.863  1.00  0.00     0.175 A 
HETATM    2  S   UNL     1      26.528  42.467  49.219  1.00  0.00    -0.044 SA
HETATM    3  C   UNL     1      27.538  41.115  48.849  1.00  0.00     0.100 A 
HETATM    4  C   UNL     1      27.901  40.483  50.035  1.00  0.00     0.056 A 
HETATM    5  C   UNL     1      28.729  39.260  50.218  1.00  0.00     0.072 C 
HETATM    6  N   UNL     1      27.362  41.047  51.188  1.00  0.00    -0.228 NA
ENDROOT
BRANCH   1   7
HETATM    7  N   UNL     1      25.838  42.832  51.687  1.00  0.00    -0.287 N 
HETATM    8  C   UNL     1      26.284  43.604  52.723  1.00  0.00     0.326 C 
HETATM    9  N   UNL     1      27.639  43.645  52.920  1.00  0.00    -0.309 N 
HETATM   10  O   UNL     1      25.437  44.179  53.406  1.00  0.00    -0.247 OA
HETATM   11  H   UNL     1      28.188  43.179  52.203  1.00  0.00     0.170 HD
HETATM   12  H   UNL     1      24.836  42.768  51.597  1.00  0.00     0.172 HD
BRANCH   9  13
HETATM   13  C   UNL     1      28.355  44.235  53.979  1.00  0.00     0.036 A 
HETATM   14  C   UNL     1      28.026  45.460  54.558  1.00  0.00     0.030 A 
HETATM   15  C   UNL     1      28.769  45.959  55.635  1.00  0.00     0.009 A 
HETATM   16  C   UNL     1      29.850  45.239  56.153  1.00  0.00    -0.062 A 
HETATM   17  C   UNL     1      30.644  45.792  57.298  1.00  0.00     0.048 C 
HETATM   18  C   UNL     1      30.191  44.018  55.563  1.00  0.00     0.009 A 
HETATM   19  C   UNL     1      29.445  43.519  54.489  1.00  0.00     0.030 A 
ENDBRANCH   9  13
ENDBRANCH   1   7
BRANCH   3  20
HETATM   20  C   UNL     1      27.798  40.806  47.453  1.00  0.00     0.260 C 
HETATM   21  N   UNL     1      27.015  39.813  46.902  1.00  0.00    -0.352 N 
HETATM   22  H   UNL     1      26.483  39.199  47.499  1.00  0.00     0.163 HD
HETATM   23  O   UNL     1      28.647  41.385  46.777  1.00  0.00    -0.267 OA
BRANCH  21  24
HETATM   24  C   UNL     1      27.061  39.484  45.496  1.00  0.00     0.163 C 
BRANCH  24  25
HETATM   25  C   UNL     1      27.994  38.338  45.206  1.00  0.00    -0.019 A 
HETATM   26  C   UNL     1      29.003  38.411  44.233  1.00  0.00     0.042 A 
HETATM   27 CL   UNL     1      29.213  39.818  43.249  1.00  0.00    -0.084 Cl
HETATM   28  C   UNL     1      29.874  37.337  44.026  1.00  0.00     0.024 A 
HETATM   29  C   UNL     1      29.744  36.174  44.784  1.00  0.00     0.002 A 
HETATM   30  C   UNL     1      28.737  36.079  45.740  1.00  0.00     0.001 A 
HETATM   31  C   UNL     1      27.865  37.150  45.945  1.00  0.00     0.010 A 
ENDBRANCH  24  25
ENDBRANCH  21  24
ENDBRANCH   3  20
TORSDOF 5
ENDMDL
MODEL 9
REMARK VINA RESULT:      -8.0      4.348     10.634
REMARK  5 active torsions:
REMARK  status: ('A' for Active; 'I' for Inactive)
REMARK    1  A    between atoms: C_5  and  N_6 
REMARK       I    between atoms: N_6  and  C_7 
REMARK       I    between atoms: C_7  and  N_8 
REMARK    2  A    between atoms: N_8  and  C_9 
REMARK    3  A    between atoms: C_11  and  C_12 
REMARK       I    between atoms: C_12  and  N_13 
REMARK    4  A    between atoms: N_13  and  C_14 
REMARK    5  A    between atoms: C_14  and  C_15 
ROOT
HETATM    1  C   UNL     1      22.999  48.702  48.877  1.00  0.00     0.175 A 
HETATM    2  S   UNL     1      22.066  50.035  49.350  1.00  0.00    -0.044 SA
HETATM    3  C   UNL     1      20.643  49.059  49.260  1.00  0.00     0.100 A 
HETATM    4  C   UNL     1      20.994  47.786  48.819  1.00  0.00     0.056 A 
HETATM    5  C   UNL     1      20.117  46.599  48.621  1.00  0.00     0.072 C 
HETATM    6  N   UNL     1      22.355  47.599  48.594  1.00  0.00    -0.228 NA
ENDROOT
BRANCH   1   7
HETATM    7  N   UNL     1      24.346  48.910  48.866  1.00  0.00    -0.287 N 
HETATM    8  C   UNL     1      25.273  48.255  49.628  1.00  0.00     0.326 C 
HETATM    9  N   UNL     1      24.806  47.259  50.444  1.00  0.00    -0.309 N 
HETATM   10  O   UNL     1      26.443  48.623  49.536  1.00  0.00    -0.247 OA
HETATM   11  H   UNL     1      23.823  47.033  50.320  1.00  0.00     0.170 HD
HETATM   12  H   UNL     1      24.703  49.678  48.319  1.00  0.00     0.172 HD
BRANCH   9  13
HETATM   13  C   UNL     1      25.503  46.526  51.423  1.00  0.00     0.036 A 
HETATM   14  C   UNL     1      26.099  45.286  51.195  1.00  0.00     0.030 A 
HETATM   15  C   UNL     1      26.808  44.641  52.215  1.00  0.00     0.009 A 
HETATM   16  C   UNL     1      26.936  45.226  53.478  1.00  0.00    -0.062 A 
HETATM   17  C   UNL     1      27.687  44.517  54.565  1.00  0.00     0.048 C 
HETATM   18  C   UNL     1      26.325  46.462  53.713  1.00  0.00     0.009 A 
HETATM   19  C   UNL     1      25.621  47.108  52.691  1.00  0.00     0.030 A 
ENDBRANCH   9  13
ENDBRANCH   1   7
BRANCH   3  20
HETATM   20  C   UNL     1      19.379  49.636  49.686  1.00  0.00     0.260 C 
HETATM   21  N   UNL     1      18.546  50.070  48.676  1.00  0.00    -0.352 N 
HETATM   22  H   UNL     1      18.905  50.192  47.742  1.00  0.00     0.163 HD
HETATM   23  O   UNL     1      19.041  49.731  50.865  1.00  0.00    -0.267 OA
BRANCH  21  24
HETATM   24  C   UNL     1      17.205  50.543  48.930  1.00  0.00     0.163 C 
BRANCH  24  25
HETATM   25  C   UNL     1      16.245  50.158  47.836  1.00  0.00    -0.019 A 
HETATM   26  C   UNL     1      15.761  48.849  47.679  1.00  0.00     0.042 A 
HETATM   27 CL   UNL     1      16.280  47.561  48.710  1.00  0.00    -0.084 Cl
HETATM   28  C   UNL     1      14.837  48.545  46.674  1.00  0.00     0.024 A 
HETATM   29  C   UNL     1      14.392  49.544  45.808  1.00  0.00     0.002 A 
HETATM   30  C   UNL     1      14.877  50.842  45.939  1.00  0.00     0.001 A 
HETATM   31  C   UNL     1      15.800  51.145  46.940  1.00  0.00     0.010 A 
ENDBRANCH  24  25
ENDBRANCH  21  24
ENDBRANCH   3  20
TORSDOF 5
ENDMDL
MODEL 10
REMARK VINA RESULT:      -8.0      6.054      8.847
REMARK  5 active torsions:
REMARK  status: ('A' for Active; 'I' for Inactive)
REMARK    1  A    between atoms: C_5  and  N_6 
REMARK       I    between atoms: N_6  and  C_7 
REMARK       I    between atoms: C_7  and  N_8 
REMARK    2  A    between atoms: N_8  and  C_9 
REMARK    3  A    between atoms: C_11  and  C_12 
REMARK       I    between atoms: C_12  and  N_13 
REMARK    4  A    between atoms: N_13  and  C_14 
REMARK    5  A    between atoms: C_14  and  C_15 
ROOT
HETATM    1  C   UNL     1      25.511  40.682  49.296  1.00  0.00     0.175 A 
HETATM    2  S   UNL     1      24.797  42.104  49.882  1.00  0.00    -0.044 SA
HETATM    3  C   UNL     1      26.091  42.276  51.013  1.00  0.00     0.100 A 
HETATM    4  C   UNL     1      26.952  41.190  50.886  1.00  0.00     0.056 A 
HETATM    5  C   UNL     1      28.219  40.920  51.621  1.00  0.00     0.072 C 
HETATM    6  N   UNL     1      26.599  40.275  49.898  1.00  0.00    -0.228 NA
ENDROOT
BRANCH   1   7
HETATM    7  N   UNL     1      24.885  40.117  48.226  1.00  0.00    -0.287 N 
HETATM    8  C   UNL     1      25.470  39.754  47.045  1.00  0.00     0.326 C 
HETATM    9  N   UNL     1      26.825  39.931  46.949  1.00  0.00    -0.309 N 
HETATM   10  O   UNL     1      24.734  39.319  46.160  1.00  0.00    -0.247 OA
HETATM   11  H   UNL     1      27.279  40.217  47.812  1.00  0.00     0.170 HD
HETATM   12  H   UNL     1      23.881  40.035  48.253  1.00  0.00     0.172 HD
BRANCH   9  13
HETATM   13  C   UNL     1      27.653  39.777  45.821  1.00  0.00     0.036 A 
HETATM   14  C   UNL     1      28.067  38.544  45.318  1.00  0.00     0.030 A 
HETATM   15  C   UNL     1      28.861  38.479  44.166  1.00  0.00     0.009 A 
HETATM   16  C   UNL     1      29.251  39.643  43.498  1.00  0.00    -0.062 A 
HETATM   17  C   UNL     1      30.113  39.557  42.274  1.00  0.00     0.048 C 
HETATM   18  C   UNL     1      28.850  40.881  44.012  1.00  0.00     0.009 A 
HETATM   19  C   UNL     1      28.053  40.944  45.159  1.00  0.00     0.030 A 
ENDBRANCH   9  13
ENDBRANCH   1   7
BRANCH   3  20
HETATM   20  C   UNL     1      26.137  43.474  51.837  1.00  0.00     0.260 C 
HETATM   21  N   UNL     1      27.184  43.547  52.731  1.00  0.00    -0.352 N 
HETATM   22  H   UNL     1      27.720  42.722  52.951  1.00  0.00     0.163 HD
HETATM   23  O   UNL     1      25.317  44.385  51.753  1.00  0.00    -0.267 OA
BRANCH  21  24
HETATM   24  C   UNL     1      27.444  44.728  53.522  1.00  0.00     0.163 C 
BRANCH  24  25
HETATM   25  C   UNL     1      28.652  44.571  54.406  1.00  0.00    -0.019 A 
HETATM   26  C   UNL     1      29.021  45.531  55.362  1.00  0.00     0.042 A 
HETATM   27 CL   UNL     1      28.134  47.004  55.557  1.00  0.00    -0.084 Cl
HETATM   28  C   UNL     1      30.128  45.325  56.191  1.00  0.00     0.024 A 
HETATM   29  C   UNL     1      30.886  44.160  56.070  1.00  0.00     0.002 A 
HETATM   30  C   UNL     1      30.544  43.207  55.114  1.00  0.00     0.001 A 
HETATM   31  C   UNL     1      29.440  43.413  54.285  1.00  0.00     0.010 A 
ENDBRANCH  24  25
ENDBRANCH  21  24
ENDBRANCH   3  20
TORSDOF 5
ENDMDL
