MODEL 1
REMARK VINA RESULT:     -10.3      0.000      0.000
REMARK  9 active torsions:
REMARK  status: ('A' for Active; 'I' for Inactive)
REMARK    1  A    between atoms: C_2  and  O_3 
REMARK    2  A    between atoms: O_3  and  C_4 
REMARK    3  A    between atoms: C_7  and  N_8 
REMARK       I    between atoms: N_8  and  C_9 
REMARK    4  A    between atoms: C_9  and  C_10 
REMARK    5  A    between atoms: C_10  and  S_11 
REMARK    6  A    between atoms: S_11  and  C_12 
REMARK    7  A    between atoms: C_16  and  C_17 
REMARK       I    between atoms: C_17  and  N_18 
REMARK    8  A    between atoms: N_18  and  C_19 
REMARK    9  A    between atoms: C_27  and  C_28 
ROOT
HETATM    1  C   UNL     1      23.680  44.818  49.815  1.00  0.00     0.087 C 
HETATM    2  N   UNL     1      24.200  45.752  50.692  1.00  0.00    -0.353 N 
HETATM    3  C   UNL     1      25.301  45.554  51.504  1.00  0.00     0.019 C 
HETATM    4  C   UNL     1      25.814  46.778  52.222  1.00  0.00     0.069 C 
HETATM    5  C   UNL     1      25.836  44.317  51.609  1.00  0.00     0.046 C 
HETATM    6  C   UNL     1      25.154  43.123  50.945  1.00  0.00     0.104 C 
HETATM    7  C   UNL     1      24.071  43.527  49.921  1.00  0.00     0.055 C 
HETATM    8  C   UNL     1      23.364  42.398  49.187  1.00  0.00     0.019 C 
HETATM    9  N   UNL     1      22.777  41.464  48.579  1.00  0.00    -0.096 N 
HETATM   10  H   UNL     1      23.945  46.724  50.492  1.00  0.00     0.166 HD
ENDROOT
BRANCH   1  11
HETATM   11  S   UNL     1      22.497  45.334  48.629  1.00  0.00    -0.102 SA
BRANCH  11  12
HETATM   12  C   UNL     1      22.818  47.134  48.558  1.00  0.00     0.184 C 
BRANCH  12  13
HETATM   13  C   UNL     1      21.549  47.945  48.306  1.00  0.00     0.231 C 
HETATM   14  N   UNL     1      21.478  49.088  49.094  1.00  0.00    -0.327 N 
HETATM   15  H   UNL     1      22.234  49.242  49.749  1.00  0.00     0.169 HD
HETATM   16  O   UNL     1      20.677  47.539  47.539  1.00  0.00    -0.272 OA
BRANCH  14  17
HETATM   17  C   UNL     1      20.371  49.950  49.247  1.00  0.00     0.034 A 
HETATM   18  C   UNL     1      19.256  49.665  50.034  1.00  0.00     0.032 A 
HETATM   19  C   UNL     1      18.256  50.631  50.219  1.00  0.00     0.039 A 
HETATM   20  C   UNL     1      18.371  51.891  49.637  1.00  0.00     0.068 A 
HETATM   21  C   UNL     1      19.443  52.155  48.789  1.00  0.00     0.039 A 
HETATM   22  C   UNL     1      20.431  51.184  48.587  1.00  0.00     0.032 A 
BRANCH  20  23
HETATM   23  O   UNL     1      17.377  52.784  49.935  1.00  0.00    -0.352 OA
BRANCH  23  24
HETATM   24  C   UNL     1      16.068  52.380  49.522  1.00  0.00     0.171 C 
HETATM   25  C   UNL     1      15.051  53.243  50.249  1.00  0.00     0.034 C 
ENDBRANCH  23  24
ENDBRANCH  20  23
ENDBRANCH  14  17
ENDBRANCH  12  13
ENDBRANCH  11  12
ENDBRANCH   1  11
BRANCH   6  26
HETATM   26  C   UNL     1      26.127  42.098  50.366  1.00  0.00    -0.042 A 
HETATM   27  C   UNL     1      26.696  42.311  49.102  1.00  0.00     0.027 A 
HETATM   28  C   UNL     1      27.571  41.365  48.593  1.00  0.00     0.116 A 
HETATM   29  N   UNL     1      27.911  40.236  49.246  1.00  0.00    -0.273 NA
HETATM   30  C   UNL     1      27.362  40.047  50.464  1.00  0.00     0.116 A 
HETATM   31  C   UNL     1      26.488  40.940  51.063  1.00  0.00     0.027 A 
ENDBRANCH   6  26
BRANCH   5  32
HETATM   32  C   UNL     1      27.192  44.210  52.219  1.00  0.00     0.255 C 
HETATM   33  N   UNL     1      27.215  44.016  53.580  1.00  0.00    -0.323 N 
HETATM   34  H   UNL     1      26.340  43.841  54.053  1.00  0.00     0.169 HD
HETATM   35  O   UNL     1      28.172  44.244  51.480  1.00  0.00    -0.268 OA
BRANCH  33  36
HETATM   36  C   UNL     1      28.385  43.938  54.372  1.00  0.00     0.035 A 
HETATM   37  C   UNL     1      29.214  42.809  54.415  1.00  0.00     0.031 A 
HETATM   38  C   UNL     1      30.359  42.790  55.217  1.00  0.00     0.026 A 
HETATM   39  C   UNL     1      30.681  43.902  55.987  1.00  0.00     0.034 A 
HETATM   40 CL   UNL     1      32.082  43.876  56.982  1.00  0.00    -0.084 Cl
HETATM   41  C   UNL     1      29.873  45.036  55.949  1.00  0.00     0.026 A 
HETATM   42  C   UNL     1      28.734  45.057  55.135  1.00  0.00     0.031 A 
ENDBRANCH  33  36
ENDBRANCH   5  32
TORSDOF 9
ENDMDL
MODEL 2
REMARK VINA RESULT:     -10.1      1.445      1.649
REMARK  9 active torsions:
REMARK  status: ('A' for Active; 'I' for Inactive)
REMARK    1  A    between atoms: C_2  and  O_3 
REMARK    2  A    between atoms: O_3  and  C_4 
REMARK    3  A    between atoms: C_7  and  N_8 
REMARK       I    between atoms: N_8  and  C_9 
REMARK    4  A    between atoms: C_9  and  C_10 
REMARK    5  A    between atoms: C_10  and  S_11 
REMARK    6  A    between atoms: S_11  and  C_12 
REMARK    7  A    between atoms: C_16  and  C_17 
REMARK       I    between atoms: C_17  and  N_18 
REMARK    8  A    between atoms: N_18  and  C_19 
REMARK    9  A    between atoms: C_27  and  C_28 
ROOT
HETATM    1  C   UNL     1      24.529  46.513  50.216  1.00  0.00     0.087 C 
HETATM    2  N   UNL     1      24.813  47.128  51.421  1.00  0.00    -0.353 N 
HETATM    3  C   UNL     1      25.388  46.508  52.514  1.00  0.00     0.019 C 
HETATM    4  C   UNL     1      25.796  47.420  53.646  1.00  0.00     0.069 C 
HETATM    5  C   UNL     1      25.544  45.165  52.512  1.00  0.00     0.046 C 
HETATM    6  C   UNL     1      24.971  44.325  51.372  1.00  0.00     0.104 C 
HETATM    7  C   UNL     1      24.548  45.162  50.146  1.00  0.00     0.055 C 
HETATM    8  C   UNL     1      23.996  44.400  48.951  1.00  0.00     0.019 C 
HETATM    9  N   UNL     1      23.539  43.769  47.961  1.00  0.00    -0.096 N 
HETATM   10  H   UNL     1      24.886  48.149  51.381  1.00  0.00     0.166 HD
ENDROOT
BRANCH   1  11
HETATM   11  S   UNL     1      24.112  47.507  48.834  1.00  0.00    -0.102 SA
BRANCH  11  12
HETATM   12  C   UNL     1      23.536  49.039  49.651  1.00  0.00     0.184 C 
BRANCH  12  13
HETATM   13  C   UNL     1      22.326  49.656  48.953  1.00  0.00     0.231 C 
HETATM   14  N   UNL     1      21.448  50.266  49.841  1.00  0.00    -0.327 N 
HETATM   15  H   UNL     1      21.681  50.216  50.825  1.00  0.00     0.169 HD
HETATM   16  O   UNL     1      22.154  49.522  47.743  1.00  0.00    -0.272 OA
BRANCH  14  17
HETATM   17  C   UNL     1      20.158  50.763  49.557  1.00  0.00     0.034 A 
HETATM   18  C   UNL     1      18.983  50.261  50.114  1.00  0.00     0.032 A 
HETATM   19  C   UNL     1      17.756  50.893  49.864  1.00  0.00     0.039 A 
HETATM   20  C   UNL     1      17.696  52.038  49.074  1.00  0.00     0.068 A 
HETATM   21  C   UNL     1      18.854  52.500  48.454  1.00  0.00     0.039 A 
HETATM   22  C   UNL     1      20.076  51.857  48.687  1.00  0.00     0.032 A 
BRANCH  20  23
HETATM   23  O   UNL     1      16.462  52.619  48.949  1.00  0.00    -0.352 OA
BRANCH  23  24
HETATM   24  C   UNL     1      16.019  53.334  50.106  1.00  0.00     0.171 C 
HETATM   25  C   UNL     1      14.545  53.032  50.317  1.00  0.00     0.034 C 
ENDBRANCH  23  24
ENDBRANCH  20  23
ENDBRANCH  14  17
ENDBRANCH  12  13
ENDBRANCH  11  12
ENDBRANCH   1  11
BRANCH   6  26
HETATM   26  C   UNL     1      25.850  43.141  50.974  1.00  0.00    -0.042 A 
HETATM   27  C   UNL     1      25.334  41.838  51.032  1.00  0.00     0.027 A 
HETATM   28  C   UNL     1      26.151  40.778  50.672  1.00  0.00     0.116 A 
HETATM   29  N   UNL     1      27.429  40.924  50.268  1.00  0.00    -0.273 NA
HETATM   30  C   UNL     1      27.910  42.184  50.211  1.00  0.00     0.116 A 
HETATM   31  C   UNL     1      27.168  43.309  50.536  1.00  0.00     0.027 A 
ENDBRANCH   6  26
BRANCH   5  32
HETATM   32  C   UNL     1      26.449  44.581  53.542  1.00  0.00     0.255 C 
HETATM   33  N   UNL     1      27.754  45.012  53.495  1.00  0.00    -0.323 N 
HETATM   34  H   UNL     1      27.986  45.767  52.865  1.00  0.00     0.169 HD
HETATM   35  O   UNL     1      25.973  43.817  54.376  1.00  0.00    -0.268 OA
BRANCH  33  36
HETATM   36  C   UNL     1      28.794  44.555  54.340  1.00  0.00     0.035 A 
HETATM   37  C   UNL     1      29.474  43.346  54.141  1.00  0.00     0.031 A 
HETATM   38  C   UNL     1      30.494  42.947  55.010  1.00  0.00     0.026 A 
HETATM   39  C   UNL     1      30.839  43.754  56.088  1.00  0.00     0.034 A 
HETATM   40 CL   UNL     1      32.085  43.259  57.163  1.00  0.00    -0.084 Cl
HETATM   41  C   UNL     1      30.179  44.964  56.294  1.00  0.00     0.026 A 
HETATM   42  C   UNL     1      29.167  45.367  55.416  1.00  0.00     0.031 A 
ENDBRANCH  33  36
ENDBRANCH   5  32
TORSDOF 9
ENDMDL
MODEL 3
REMARK VINA RESULT:      -9.9      3.722     10.743
REMARK  9 active torsions:
REMARK  status: ('A' for Active; 'I' for Inactive)
REMARK    1  A    between atoms: C_2  and  O_3 
REMARK    2  A    between atoms: O_3  and  C_4 
REMARK    3  A    between atoms: C_7  and  N_8 
REMARK       I    between atoms: N_8  and  C_9 
REMARK    4  A    between atoms: C_9  and  C_10 
REMARK    5  A    between atoms: C_10  and  S_11 
REMARK    6  A    between atoms: S_11  and  C_12 
REMARK    7  A    between atoms: C_16  and  C_17 
REMARK       I    between atoms: C_17  and  N_18 
REMARK    8  A    between atoms: N_18  and  C_19 
REMARK    9  A    between atoms: C_27  and  C_28 
ROOT
HETATM    1  C   UNL     1      23.799  44.230  49.093  1.00  0.00     0.087 C 
HETATM    2  N   UNL     1      24.277  45.429  49.590  1.00  0.00    -0.353 N 
HETATM    3  C   UNL     1      23.735  46.672  49.324  1.00  0.00     0.019 C 
HETATM    4  C   UNL     1      24.290  47.816  50.138  1.00  0.00     0.069 C 
HETATM    5  C   UNL     1      22.774  46.791  48.381  1.00  0.00     0.046 C 
HETATM    6  C   UNL     1      22.383  45.591  47.522  1.00  0.00     0.104 C 
HETATM    7  C   UNL     1      22.917  44.248  48.066  1.00  0.00     0.055 C 
HETATM    8  C   UNL     1      22.546  42.995  47.289  1.00  0.00     0.019 C 
HETATM    9  N   UNL     1      22.239  41.957  46.645  1.00  0.00    -0.096 N 
HETATM   10  H   UNL     1      24.856  45.349  50.431  1.00  0.00     0.166 HD
ENDROOT
BRANCH   1  11
HETATM   11  S   UNL     1      24.388  42.730  49.782  1.00  0.00    -0.102 SA
BRANCH  11  12
HETATM   12  C   UNL     1      26.116  42.711  49.183  1.00  0.00     0.184 C 
BRANCH  12  13
HETATM   13  C   UNL     1      27.059  43.499  50.089  1.00  0.00     0.231 C 
HETATM   14  N   UNL     1      27.351  42.830  51.271  1.00  0.00    -0.327 N 
HETATM   15  H   UNL     1      26.903  41.934  51.415  1.00  0.00     0.169 HD
HETATM   16  O   UNL     1      27.421  44.637  49.794  1.00  0.00    -0.272 OA
BRANCH  14  17
HETATM   17  C   UNL     1      28.030  43.345  52.397  1.00  0.00     0.034 A 
HETATM   18  C   UNL     1      27.538  44.361  53.214  1.00  0.00     0.032 A 
HETATM   19  C   UNL     1      28.229  44.729  54.378  1.00  0.00     0.039 A 
HETATM   20  C   UNL     1      29.402  44.073  54.744  1.00  0.00     0.068 A 
HETATM   21  C   UNL     1      29.937  43.110  53.893  1.00  0.00     0.039 A 
HETATM   22  C   UNL     1      29.260  42.757  52.720  1.00  0.00     0.032 A 
BRANCH  20  23
HETATM   23  O   UNL     1      29.961  44.459  55.933  1.00  0.00    -0.352 OA
BRANCH  23  24
HETATM   24  C   UNL     1      31.364  44.199  56.045  1.00  0.00     0.171 C 
HETATM   25  C   UNL     1      31.583  43.278  57.233  1.00  0.00     0.034 C 
ENDBRANCH  23  24
ENDBRANCH  20  23
ENDBRANCH  14  17
ENDBRANCH  12  13
ENDBRANCH  11  12
ENDBRANCH   1  11
BRANCH   6  26
HETATM   26  C   UNL     1      20.892  45.519  47.201  1.00  0.00    -0.042 A 
HETATM   27  C   UNL     1      19.971  45.239  48.221  1.00  0.00     0.027 A 
HETATM   28  C   UNL     1      18.623  45.173  47.906  1.00  0.00     0.116 A 
HETATM   29  N   UNL     1      18.137  45.359  46.662  1.00  0.00    -0.273 NA
HETATM   30  C   UNL     1      19.034  45.635  45.692  1.00  0.00     0.116 A 
HETATM   31  C   UNL     1      20.400  45.736  45.910  1.00  0.00     0.027 A 
ENDBRANCH   6  26
BRANCH   5  32
HETATM   32  C   UNL     1      21.997  48.063  48.357  1.00  0.00     0.255 C 
HETATM   33  N   UNL     1      21.067  48.207  49.360  1.00  0.00    -0.323 N 
HETATM   34  H   UNL     1      21.053  47.521  50.101  1.00  0.00     0.169 HD
HETATM   35  O   UNL     1      22.266  48.899  47.500  1.00  0.00    -0.268 OA
BRANCH  33  36
HETATM   36  C   UNL     1      20.186  49.305  49.502  1.00  0.00     0.035 A 
HETATM   37  C   UNL     1      20.608  50.594  49.855  1.00  0.00     0.031 A 
HETATM   38  C   UNL     1      19.689  51.640  49.980  1.00  0.00     0.026 A 
HETATM   39  C   UNL     1      18.338  51.403  49.756  1.00  0.00     0.034 A 
HETATM   40 CL   UNL     1      17.206  52.686  49.921  1.00  0.00    -0.084 Cl
HETATM   41  C   UNL     1      17.902  50.130  49.395  1.00  0.00     0.026 A 
HETATM   42  C   UNL     1      18.825  49.087  49.259  1.00  0.00     0.031 A 
ENDBRANCH  33  36
ENDBRANCH   5  32
TORSDOF 9
ENDMDL
MODEL 4
REMARK VINA RESULT:      -9.2      1.323      1.844
REMARK  9 active torsions:
REMARK  status: ('A' for Active; 'I' for Inactive)
REMARK    1  A    between atoms: C_2  and  O_3 
REMARK    2  A    between atoms: O_3  and  C_4 
REMARK    3  A    between atoms: C_7  and  N_8 
REMARK       I    between atoms: N_8  and  C_9 
REMARK    4  A    between atoms: C_9  and  C_10 
REMARK    5  A    between atoms: C_10  and  S_11 
REMARK    6  A    between atoms: S_11  and  C_12 
REMARK    7  A    between atoms: C_16  and  C_17 
REMARK       I    between atoms: C_17  and  N_18 
REMARK    8  A    between atoms: N_18  and  C_19 
REMARK    9  A    between atoms: C_27  and  C_28 
ROOT
HETATM    1  C   UNL     1      23.191  43.720  48.440  1.00  0.00     0.087 C 
HETATM    2  N   UNL     1      23.464  44.809  49.248  1.00  0.00    -0.353 N 
HETATM    3  C   UNL     1      24.498  44.882  50.161  1.00  0.00     0.019 C 
HETATM    4  C   UNL     1      24.731  46.239  50.780  1.00  0.00     0.069 C 
HETATM    5  C   UNL     1      25.216  43.772  50.443  1.00  0.00     0.046 C 
HETATM    6  C   UNL     1      24.808  42.421  49.861  1.00  0.00     0.104 C 
HETATM    7  C   UNL     1      23.778  42.533  48.716  1.00  0.00     0.055 C 
HETATM    8  C   UNL     1      23.340  41.235  48.057  1.00  0.00     0.019 C 
HETATM    9  N   UNL     1      22.977  40.159  47.510  1.00  0.00    -0.096 N 
HETATM   10  H   UNL     1      23.073  45.699  48.923  1.00  0.00     0.166 HD
ENDROOT
BRANCH   1  11
HETATM   11  S   UNL     1      22.061  43.909  47.114  1.00  0.00    -0.102 SA
BRANCH  11  12
HETATM   12  C   UNL     1      22.161  45.710  46.807  1.00  0.00     0.184 C 
BRANCH  12  13
HETATM   13  C   UNL     1      20.871  46.439  47.172  1.00  0.00     0.231 C 
HETATM   14  N   UNL     1      21.102  47.676  47.763  1.00  0.00    -0.327 N 
HETATM   15  H   UNL     1      22.068  47.942  47.909  1.00  0.00     0.169 HD
HETATM   16  O   UNL     1      19.773  45.906  47.017  1.00  0.00    -0.272 OA
BRANCH  14  17
HETATM   17  C   UNL     1      20.152  48.516  48.382  1.00  0.00     0.034 A 
HETATM   18  C   UNL     1      19.448  48.186  49.539  1.00  0.00     0.032 A 
HETATM   19  C   UNL     1      18.609  49.130  50.149  1.00  0.00     0.039 A 
HETATM   20  C   UNL     1      18.483  50.413  49.621  1.00  0.00     0.068 A 
HETATM   21  C   UNL     1      19.123  50.723  48.425  1.00  0.00     0.039 A 
HETATM   22  C   UNL     1      19.944  49.774  47.804  1.00  0.00     0.032 A 
BRANCH  20  23
HETATM   23  O   UNL     1      17.695  51.280  50.329  1.00  0.00    -0.352 OA
BRANCH  23  24
HETATM   24  C   UNL     1      16.550  51.763  49.618  1.00  0.00     0.171 C 
HETATM   25  C   UNL     1      16.408  53.249  49.900  1.00  0.00     0.034 C 
ENDBRANCH  23  24
ENDBRANCH  20  23
ENDBRANCH  14  17
ENDBRANCH  12  13
ENDBRANCH  11  12
ENDBRANCH   1  11
BRANCH   6  26
HETATM   26  C   UNL     1      25.987  41.530  49.477  1.00  0.00    -0.042 A 
HETATM   27  C   UNL     1      26.298  40.408  50.258  1.00  0.00     0.027 A 
HETATM   28  C   UNL     1      27.377  39.617  49.896  1.00  0.00     0.116 A 
HETATM   29  N   UNL     1      28.158  39.866  48.826  1.00  0.00    -0.273 NA
HETATM   30  C   UNL     1      27.843  40.945  48.079  1.00  0.00     0.116 A 
HETATM   31  C   UNL     1      26.777  41.788  48.352  1.00  0.00     0.027 A 
ENDBRANCH   6  26
BRANCH   5  32
HETATM   32  C   UNL     1      26.506  43.960  51.167  1.00  0.00     0.255 C 
HETATM   33  N   UNL     1      26.510  43.560  52.483  1.00  0.00    -0.323 N 
HETATM   34  H   UNL     1      25.703  43.066  52.835  1.00  0.00     0.169 HD
HETATM   35  O   UNL     1      27.470  44.395  50.544  1.00  0.00    -0.268 OA
BRANCH  33  36
HETATM   36  C   UNL     1      27.604  43.691  53.371  1.00  0.00     0.035 A 
HETATM   37  C   UNL     1      27.810  44.816  54.180  1.00  0.00     0.031 A 
HETATM   38  C   UNL     1      28.911  44.889  55.040  1.00  0.00     0.026 A 
HETATM   39  C   UNL     1      29.817  43.836  55.092  1.00  0.00     0.034 A 
HETATM   40 CL   UNL     1      31.176  43.929  56.140  1.00  0.00    -0.084 Cl
HETATM   41  C   UNL     1      29.621  42.706  54.301  1.00  0.00     0.026 A 
HETATM   42  C   UNL     1      28.512  42.630  53.451  1.00  0.00     0.031 A 
ENDBRANCH  33  36
ENDBRANCH   5  32
TORSDOF 9
ENDMDL
MODEL 5
REMARK VINA RESULT:      -8.7      5.206     12.489
REMARK  9 active torsions:
REMARK  status: ('A' for Active; 'I' for Inactive)
REMARK    1  A    between atoms: C_2  and  O_3 
REMARK    2  A    between atoms: O_3  and  C_4 
REMARK    3  A    between atoms: C_7  and  N_8 
REMARK       I    between atoms: N_8  and  C_9 
REMARK    4  A    between atoms: C_9  and  C_10 
REMARK    5  A    between atoms: C_10  and  S_11 
REMARK    6  A    between atoms: S_11  and  C_12 
REMARK    7  A    between atoms: C_16  and  C_17 
REMARK       I    between atoms: C_17  and  N_18 
REMARK    8  A    between atoms: N_18  and  C_19 
REMARK    9  A    between atoms: C_27  and  C_28 
ROOT
HETATM    1  C   UNL     1      21.750  47.966  48.977  1.00  0.00     0.087 C 
HETATM    2  N   UNL     1      21.219  46.732  48.651  1.00  0.00    -0.353 N 
HETATM    3  C   UNL     1      19.881  46.479  48.415  1.00  0.00     0.019 C 
HETATM    4  C   UNL     1      19.559  45.108  47.872  1.00  0.00     0.069 C 
HETATM    5  C   UNL     1      18.966  47.439  48.677  1.00  0.00     0.046 C 
HETATM    6  C   UNL     1      19.388  48.742  49.352  1.00  0.00     0.104 C 
HETATM    7  C   UNL     1      20.916  48.959  49.365  1.00  0.00     0.055 C 
HETATM    8  C   UNL     1      21.422  50.250  49.990  1.00  0.00     0.019 C 
HETATM    9  N   UNL     1      21.841  51.319  50.508  1.00  0.00    -0.096 N 
HETATM   10  H   UNL     1      21.889  46.059  48.265  1.00  0.00     0.166 HD
ENDROOT
BRANCH   1  11
HETATM   11  S   UNL     1      23.487  48.185  48.918  1.00  0.00    -0.102 SA
BRANCH  11  12
HETATM   12  C   UNL     1      24.067  46.727  49.859  1.00  0.00     0.184 C 
BRANCH  12  13
HETATM   13  C   UNL     1      25.242  47.052  50.778  1.00  0.00     0.231 C 
HETATM   14  N   UNL     1      25.273  46.249  51.913  1.00  0.00    -0.327 N 
HETATM   15  H   UNL     1      24.525  45.576  52.020  1.00  0.00     0.169 HD
HETATM   16  O   UNL     1      25.999  47.990  50.536  1.00  0.00    -0.272 OA
BRANCH  14  17
HETATM   17  C   UNL     1      26.103  46.404  53.044  1.00  0.00     0.034 A 
HETATM   18  C   UNL     1      26.010  47.462  53.947  1.00  0.00     0.032 A 
HETATM   19  C   UNL     1      26.800  47.473  55.106  1.00  0.00     0.039 A 
HETATM   20  C   UNL     1      27.670  46.422  55.381  1.00  0.00     0.068 A 
HETATM   21  C   UNL     1      27.823  45.401  54.447  1.00  0.00     0.039 A 
HETATM   22  C   UNL     1      27.051  45.400  53.279  1.00  0.00     0.032 A 
BRANCH  20  23
HETATM   23  O   UNL     1      28.344  46.494  56.571  1.00  0.00    -0.352 OA
BRANCH  23  24
HETATM   24  C   UNL     1      29.521  45.682  56.641  1.00  0.00     0.171 C 
HETATM   25  C   UNL     1      30.241  46.000  57.941  1.00  0.00     0.034 C 
ENDBRANCH  23  24
ENDBRANCH  20  23
ENDBRANCH  14  17
ENDBRANCH  12  13
ENDBRANCH  11  12
ENDBRANCH   1  11
BRANCH   6  26
HETATM   26  C   UNL     1      18.645  49.973  48.840  1.00  0.00    -0.042 A 
HETATM   27  C   UNL     1      18.919  50.471  47.557  1.00  0.00     0.027 A 
HETATM   28  C   UNL     1      18.238  51.593  47.114  1.00  0.00     0.116 A 
HETATM   29  N   UNL     1      17.318  52.247  47.851  1.00  0.00    -0.273 NA
HETATM   30  C   UNL     1      17.059  51.753  49.080  1.00  0.00     0.116 A 
HETATM   31  C   UNL     1      17.677  50.630  49.607  1.00  0.00     0.027 A 
ENDBRANCH   6  26
BRANCH   5  32
HETATM   32  C   UNL     1      17.600  47.253  48.110  1.00  0.00     0.255 C 
HETATM   33  N   UNL     1      17.460  47.584  46.783  1.00  0.00    -0.323 N 
HETATM   34  H   UNL     1      18.291  47.809  46.256  1.00  0.00     0.169 HD
HETATM   35  O   UNL     1      16.726  46.777  48.829  1.00  0.00    -0.268 OA
BRANCH  33  36
HETATM   36  C   UNL     1      16.247  47.535  46.055  1.00  0.00     0.035 A 
HETATM   37  C   UNL     1      16.031  46.672  44.972  1.00  0.00     0.031 A 
HETATM   38  C   UNL     1      14.810  46.669  44.291  1.00  0.00     0.026 A 
HETATM   39  C   UNL     1      13.797  47.534  44.686  1.00  0.00     0.034 A 
HETATM   40 CL   UNL     1      12.300  47.540  43.841  1.00  0.00    -0.084 Cl
HETATM   41  C   UNL     1      13.992  48.392  45.766  1.00  0.00     0.026 A 
HETATM   42  C   UNL     1      15.210  48.385  46.454  1.00  0.00     0.031 A 
ENDBRANCH  33  36
ENDBRANCH   5  32
TORSDOF 9
ENDMDL
MODEL 6
REMARK VINA RESULT:      -8.4      4.820     12.316
REMARK  9 active torsions:
REMARK  status: ('A' for Active; 'I' for Inactive)
REMARK    1  A    between atoms: C_2  and  O_3 
REMARK    2  A    between atoms: O_3  and  C_4 
REMARK    3  A    between atoms: C_7  and  N_8 
REMARK       I    between atoms: N_8  and  C_9 
REMARK    4  A    between atoms: C_9  and  C_10 
REMARK    5  A    between atoms: C_10  and  S_11 
REMARK    6  A    between atoms: S_11  and  C_12 
REMARK    7  A    between atoms: C_16  and  C_17 
REMARK       I    between atoms: C_17  and  N_18 
REMARK    8  A    between atoms: N_18  and  C_19 
REMARK    9  A    between atoms: C_27  and  C_28 
ROOT
HETATM    1  C   UNL     1      20.288  46.358  48.365  1.00  0.00     0.087 C 
HETATM    2  N   UNL     1      19.902  47.020  49.516  1.00  0.00    -0.353 N 
HETATM    3  C   UNL     1      18.996  48.062  49.567  1.00  0.00     0.019 C 
HETATM    4  C   UNL     1      18.570  48.492  50.951  1.00  0.00     0.069 C 
HETATM    5  C   UNL     1      18.558  48.621  48.417  1.00  0.00     0.046 C 
HETATM    6  C   UNL     1      19.158  48.199  47.078  1.00  0.00     0.104 C 
HETATM    7  C   UNL     1      19.994  46.904  47.162  1.00  0.00     0.055 C 
HETATM    8  C   UNL     1      20.601  46.392  45.865  1.00  0.00     0.019 C 
HETATM    9  N   UNL     1      21.105  45.968  44.791  1.00  0.00    -0.096 N 
HETATM   10  H   UNL     1      20.061  46.505  50.387  1.00  0.00     0.166 HD
ENDROOT
BRANCH   1  11
HETATM   11  S   UNL     1      21.184  44.859  48.509  1.00  0.00    -0.102 SA
BRANCH  11  12
HETATM   12  C   UNL     1      22.861  45.475  48.902  1.00  0.00     0.184 C 
BRANCH  12  13
HETATM   13  C   UNL     1      23.460  44.798  50.131  1.00  0.00     0.231 C 
HETATM   14  N   UNL     1      24.556  45.484  50.641  1.00  0.00    -0.327 N 
HETATM   15  H   UNL     1      24.848  46.317  50.145  1.00  0.00     0.169 HD
HETATM   16  O   UNL     1      23.034  43.716  50.533  1.00  0.00    -0.272 OA
BRANCH  14  17
HETATM   17  C   UNL     1      25.447  45.044  51.643  1.00  0.00     0.034 A 
HETATM   18  C   UNL     1      25.121  44.941  52.994  1.00  0.00     0.032 A 
HETATM   19  C   UNL     1      26.034  44.383  53.901  1.00  0.00     0.039 A 
HETATM   20  C   UNL     1      27.268  43.908  53.464  1.00  0.00     0.068 A 
HETATM   21  C   UNL     1      27.630  44.078  52.130  1.00  0.00     0.039 A 
HETATM   22  C   UNL     1      26.727  44.653  51.228  1.00  0.00     0.032 A 
BRANCH  20  23
HETATM   23  O   UNL     1      28.058  43.319  54.415  1.00  0.00    -0.352 OA
BRANCH  23  24
HETATM   24  C   UNL     1      29.241  44.053  54.746  1.00  0.00     0.171 C 
HETATM   25  C   UNL     1      30.423  43.100  54.687  1.00  0.00     0.034 C 
ENDBRANCH  23  24
ENDBRANCH  20  23
ENDBRANCH  14  17
ENDBRANCH  12  13
ENDBRANCH  11  12
ENDBRANCH   1  11
BRANCH   6  26
HETATM   26  C   UNL     1      18.146  48.147  45.936  1.00  0.00    -0.042 A 
HETATM   27  C   UNL     1      17.245  47.075  45.849  1.00  0.00     0.027 A 
HETATM   28  C   UNL     1      16.340  47.044  44.801  1.00  0.00     0.116 A 
HETATM   29  N   UNL     1      16.272  47.992  43.845  1.00  0.00    -0.273 NA
HETATM   30  C   UNL     1      17.139  49.021  43.945  1.00  0.00     0.116 A 
HETATM   31  C   UNL     1      18.072  49.148  44.962  1.00  0.00     0.027 A 
ENDBRANCH   6  26
BRANCH   5  32
HETATM   32  C   UNL     1      17.357  49.500  48.499  1.00  0.00     0.255 C 
HETATM   33  N   UNL     1      17.612  50.852  48.515  1.00  0.00    -0.323 N 
HETATM   34  H   UNL     1      18.559  51.161  48.352  1.00  0.00     0.169 HD
HETATM   35  O   UNL     1      16.246  48.978  48.492  1.00  0.00    -0.268 OA
BRANCH  33  36
HETATM   36  C   UNL     1      16.632  51.864  48.640  1.00  0.00     0.035 A 
HETATM   37  C   UNL     1      15.767  52.233  47.601  1.00  0.00     0.031 A 
HETATM   38  C   UNL     1      14.817  53.243  47.784  1.00  0.00     0.026 A 
HETATM   39  C   UNL     1      14.728  53.894  49.009  1.00  0.00     0.034 A 
HETATM   40 CL   UNL     1      13.568  55.143  49.232  1.00  0.00    -0.084 Cl
HETATM   41  C   UNL     1      15.574  53.533  50.055  1.00  0.00     0.026 A 
HETATM   42  C   UNL     1      16.516  52.514  49.874  1.00  0.00     0.031 A 
ENDBRANCH  33  36
ENDBRANCH   5  32
TORSDOF 9
ENDMDL
MODEL 7
REMARK VINA RESULT:      -8.3      3.372      3.714
REMARK  9 active torsions:
REMARK  status: ('A' for Active; 'I' for Inactive)
REMARK    1  A    between atoms: C_2  and  O_3 
REMARK    2  A    between atoms: O_3  and  C_4 
REMARK    3  A    between atoms: C_7  and  N_8 
REMARK       I    between atoms: N_8  and  C_9 
REMARK    4  A    between atoms: C_9  and  C_10 
REMARK    5  A    between atoms: C_10  and  S_11 
REMARK    6  A    between atoms: S_11  and  C_12 
REMARK    7  A    between atoms: C_16  and  C_17 
REMARK       I    between atoms: C_17  and  N_18 
REMARK    8  A    between atoms: N_18  and  C_19 
REMARK    9  A    between atoms: C_27  and  C_28 
ROOT
HETATM    1  C   UNL     1      23.246  44.373  49.076  1.00  0.00     0.087 C 
HETATM    2  N   UNL     1      23.672  45.407  49.890  1.00  0.00    -0.353 N 
HETATM    3  C   UNL     1      24.753  45.349  50.749  1.00  0.00     0.019 C 
HETATM    4  C   UNL     1      25.157  46.658  51.382  1.00  0.00     0.069 C 
HETATM    5  C   UNL     1      25.364  44.164  50.971  1.00  0.00     0.046 C 
HETATM    6  C   UNL     1      24.787  42.877  50.384  1.00  0.00     0.104 C 
HETATM    7  C   UNL     1      23.718  43.125  49.297  1.00  0.00     0.055 C 
HETATM    8  C   UNL     1      23.114  41.896  48.635  1.00  0.00     0.019 C 
HETATM    9  N   UNL     1      22.612  40.879  48.087  1.00  0.00    -0.096 N 
HETATM   10  H   UNL     1      23.361  46.341  49.604  1.00  0.00     0.166 HD
ENDROOT
BRANCH   1  11
HETATM   11  S   UNL     1      22.077  44.713  47.815  1.00  0.00    -0.102 SA
BRANCH  11  12
HETATM   12  C   UNL     1      20.594  45.133  48.801  1.00  0.00     0.184 C 
BRANCH  12  13
HETATM   13  C   UNL     1      19.335  45.246  47.945  1.00  0.00     0.231 C 
HETATM   14  N   UNL     1      19.527  46.023  46.808  1.00  0.00    -0.327 N 
HETATM   15  H   UNL     1      20.442  46.439  46.685  1.00  0.00     0.169 HD
HETATM   16  O   UNL     1      18.269  44.756  48.314  1.00  0.00    -0.272 OA
BRANCH  14  17
HETATM   17  C   UNL     1      18.538  46.480  45.911  1.00  0.00     0.034 A 
HETATM   18  C   UNL     1      17.607  45.655  45.281  1.00  0.00     0.032 A 
HETATM   19  C   UNL     1      16.588  46.211  44.495  1.00  0.00     0.039 A 
HETATM   20  C   UNL     1      16.479  47.592  44.349  1.00  0.00     0.068 A 
HETATM   21  C   UNL     1      17.449  48.416  44.913  1.00  0.00     0.039 A 
HETATM   22  C   UNL     1      18.479  47.860  45.680  1.00  0.00     0.032 A 
BRANCH  20  23
HETATM   23  O   UNL     1      15.408  48.037  43.620  1.00  0.00    -0.352 OA
BRANCH  23  24
HETATM   24  C   UNL     1      14.355  47.081  43.462  1.00  0.00     0.171 C 
HETATM   25  C   UNL     1      13.798  47.214  42.055  1.00  0.00     0.034 C 
ENDBRANCH  23  24
ENDBRANCH  20  23
ENDBRANCH  14  17
ENDBRANCH  12  13
ENDBRANCH  11  12
ENDBRANCH   1  11
BRANCH   6  26
HETATM   26  C   UNL     1      25.845  41.879  49.920  1.00  0.00    -0.042 A 
HETATM   27  C   UNL     1      26.585  42.136  48.757  1.00  0.00     0.027 A 
HETATM   28  C   UNL     1      27.536  41.214  48.350  1.00  0.00     0.116 A 
HETATM   29  N   UNL     1      27.795  40.068  49.013  1.00  0.00    -0.273 NA
HETATM   30  C   UNL     1      27.082  39.838  50.134  1.00  0.00     0.116 A 
HETATM   31  C   UNL     1      26.119  40.705  50.629  1.00  0.00     0.027 A 
ENDBRANCH   6  26
BRANCH   5  32
HETATM   32  C   UNL     1      26.701  44.198  51.629  1.00  0.00     0.255 C 
HETATM   33  N   UNL     1      26.723  43.798  52.945  1.00  0.00    -0.323 N 
HETATM   34  H   UNL     1      25.881  43.402  53.338  1.00  0.00     0.169 HD
HETATM   35  O   UNL     1      27.677  44.518  50.958  1.00  0.00    -0.268 OA
BRANCH  33  36
HETATM   36  C   UNL     1      27.867  43.799  53.778  1.00  0.00     0.035 A 
HETATM   37  C   UNL     1      28.753  42.719  53.872  1.00  0.00     0.031 A 
HETATM   38  C   UNL     1      29.869  42.778  54.713  1.00  0.00     0.026 A 
HETATM   39  C   UNL     1      30.103  43.920  55.470  1.00  0.00     0.034 A 
HETATM   40 CL   UNL     1      31.468  43.990  56.513  1.00  0.00    -0.084 Cl
HETATM   41  C   UNL     1      29.237  45.008  55.380  1.00  0.00     0.026 A 
HETATM   42  C   UNL     1      28.128  44.951  54.529  1.00  0.00     0.031 A 
ENDBRANCH  33  36
ENDBRANCH   5  32
TORSDOF 9
ENDMDL
MODEL 8
REMARK VINA RESULT:      -8.3      5.395     13.322
REMARK  9 active torsions:
REMARK  status: ('A' for Active; 'I' for Inactive)
REMARK    1  A    between atoms: C_2  and  O_3 
REMARK    2  A    between atoms: O_3  and  C_4 
REMARK    3  A    between atoms: C_7  and  N_8 
REMARK       I    between atoms: N_8  and  C_9 
REMARK    4  A    between atoms: C_9  and  C_10 
REMARK    5  A    between atoms: C_10  and  S_11 
REMARK    6  A    between atoms: S_11  and  C_12 
REMARK    7  A    between atoms: C_16  and  C_17 
REMARK       I    between atoms: C_17  and  N_18 
REMARK    8  A    between atoms: N_18  and  C_19 
REMARK    9  A    between atoms: C_27  and  C_28 
ROOT
HETATM    1  C   UNL     1      19.510  47.950  47.978  1.00  0.00     0.087 C 
HETATM    2  N   UNL     1      19.308  47.808  46.617  1.00  0.00    -0.353 N 
HETATM    3  C   UNL     1      18.364  48.494  45.878  1.00  0.00     0.019 C 
HETATM    4  C   UNL     1      18.463  48.334  44.380  1.00  0.00     0.069 C 
HETATM    5  C   UNL     1      17.436  49.243  46.514  1.00  0.00     0.046 C 
HETATM    6  C   UNL     1      17.344  49.225  48.038  1.00  0.00     0.104 C 
HETATM    7  C   UNL     1      18.574  48.587  48.719  1.00  0.00     0.055 C 
HETATM    8  C   UNL     1      18.580  48.558  50.239  1.00  0.00     0.019 C 
HETATM    9  N   UNL     1      18.586  48.534  51.499  1.00  0.00    -0.096 N 
HETATM   10  H   UNL     1      20.099  47.412  46.100  1.00  0.00     0.166 HD
ENDROOT
BRANCH   1  11
HETATM   11  S   UNL     1      20.951  47.261  48.698  1.00  0.00    -0.102 SA
BRANCH  11  12
HETATM   12  C   UNL     1      22.078  48.702  48.705  1.00  0.00     0.184 C 
BRANCH  12  13
HETATM   13  C   UNL     1      23.436  48.382  49.324  1.00  0.00     0.231 C 
HETATM   14  N   UNL     1      23.600  47.026  49.586  1.00  0.00    -0.327 N 
HETATM   15  H   UNL     1      22.818  46.419  49.371  1.00  0.00     0.169 HD
HETATM   16  O   UNL     1      24.228  49.275  49.618  1.00  0.00    -0.272 OA
BRANCH  14  17
HETATM   17  C   UNL     1      24.644  46.419  50.315  1.00  0.00     0.034 A 
HETATM   18  C   UNL     1      25.091  46.858  51.560  1.00  0.00     0.032 A 
HETATM   19  C   UNL     1      26.056  46.124  52.264  1.00  0.00     0.039 A 
HETATM   20  C   UNL     1      26.565  44.938  51.741  1.00  0.00     0.068 A 
HETATM   21  C   UNL     1      26.179  44.534  50.466  1.00  0.00     0.039 A 
HETATM   22  C   UNL     1      25.232  45.279  49.754  1.00  0.00     0.032 A 
BRANCH  20  23
HETATM   23  O   UNL     1      27.450  44.260  52.537  1.00  0.00    -0.352 OA
BRANCH  23  24
HETATM   24  C   UNL     1      27.397  44.613  53.923  1.00  0.00     0.171 C 
HETATM   25  C   UNL     1      28.811  44.580  54.477  1.00  0.00     0.034 C 
ENDBRANCH  23  24
ENDBRANCH  20  23
ENDBRANCH  14  17
ENDBRANCH  12  13
ENDBRANCH  11  12
ENDBRANCH   1  11
BRANCH   6  26
HETATM   26  C   UNL     1      16.996  50.579  48.652  1.00  0.00    -0.042 A 
HETATM   27  C   UNL     1      18.018  51.489  48.963  1.00  0.00     0.027 A 
HETATM   28  C   UNL     1      17.680  52.709  49.526  1.00  0.00     0.116 A 
HETATM   29  N   UNL     1      16.413  53.079  49.800  1.00  0.00    -0.273 NA
HETATM   30  C   UNL     1      15.440  52.198  49.489  1.00  0.00     0.116 A 
HETATM   31  C   UNL     1      15.675  50.959  48.912  1.00  0.00     0.027 A 
ENDBRANCH   6  26
BRANCH   5  32
HETATM   32  C   UNL     1      16.659  50.212  45.690  1.00  0.00     0.255 C 
HETATM   33  N   UNL     1      17.285  51.410  45.437  1.00  0.00    -0.323 N 
HETATM   34  H   UNL     1      18.252  51.511  45.712  1.00  0.00     0.169 HD
HETATM   35  O   UNL     1      15.564  49.867  45.255  1.00  0.00    -0.268 OA
BRANCH  33  36
HETATM   36  C   UNL     1      16.718  52.492  44.723  1.00  0.00     0.035 A 
HETATM   37  C   UNL     1      17.157  52.896  43.456  1.00  0.00     0.031 A 
HETATM   38  C   UNL     1      16.556  53.973  42.798  1.00  0.00     0.026 A 
HETATM   39  C   UNL     1      15.511  54.658  43.408  1.00  0.00     0.034 A 
HETATM   40 CL   UNL     1      14.779  55.991  42.606  1.00  0.00    -0.084 Cl
HETATM   41  C   UNL     1      15.056  54.264  44.664  1.00  0.00     0.026 A 
HETATM   42  C   UNL     1      15.651  53.177  45.315  1.00  0.00     0.031 A 
ENDBRANCH  33  36
ENDBRANCH   5  32
TORSDOF 9
ENDMDL
MODEL 9
REMARK VINA RESULT:      -8.0     19.440     23.059
REMARK  9 active torsions:
REMARK  status: ('A' for Active; 'I' for Inactive)
REMARK    1  A    between atoms: C_2  and  O_3 
REMARK    2  A    between atoms: O_3  and  C_4 
REMARK    3  A    between atoms: C_7  and  N_8 
REMARK       I    between atoms: N_8  and  C_9 
REMARK    4  A    between atoms: C_9  and  C_10 
REMARK    5  A    between atoms: C_10  and  S_11 
REMARK    6  A    between atoms: S_11  and  C_12 
REMARK    7  A    between atoms: C_16  and  C_17 
REMARK       I    between atoms: C_17  and  N_18 
REMARK    8  A    between atoms: N_18  and  C_19 
REMARK    9  A    between atoms: C_27  and  C_28 
ROOT
HETATM    1  C   UNL     1      42.021  41.380  67.200  1.00  0.00     0.087 C 
HETATM    2  N   UNL     1      41.052  41.843  68.072  1.00  0.00    -0.353 N 
HETATM    3  C   UNL     1      40.790  43.174  68.336  1.00  0.00     0.019 C 
HETATM    4  C   UNL     1      39.554  43.448  69.158  1.00  0.00     0.069 C 
HETATM    5  C   UNL     1      41.628  44.123  67.862  1.00  0.00     0.046 C 
HETATM    6  C   UNL     1      42.923  43.727  67.157  1.00  0.00     0.104 C 
HETATM    7  C   UNL     1      42.973  42.235  66.762  1.00  0.00     0.055 C 
HETATM    8  C   UNL     1      44.216  41.761  66.025  1.00  0.00     0.019 C 
HETATM    9  N   UNL     1      45.246  41.368  65.414  1.00  0.00    -0.096 N 
HETATM   10  H   UNL     1      40.302  41.176  68.282  1.00  0.00     0.166 HD
ENDROOT
BRANCH   1  11
HETATM   11  S   UNL     1      42.003  39.692  66.732  1.00  0.00    -0.102 SA
BRANCH  11  12
HETATM   12  C   UNL     1      41.531  39.810  64.968  1.00  0.00     0.184 C 
BRANCH  12  13
HETATM   13  C   UNL     1      40.222  40.568  64.762  1.00  0.00     0.231 C 
HETATM   14  N   UNL     1      40.414  41.837  64.229  1.00  0.00    -0.327 N 
HETATM   15  H   UNL     1      41.371  42.126  64.064  1.00  0.00     0.169 HD
HETATM   16  O   UNL     1      39.147  40.093  65.127  1.00  0.00    -0.272 OA
BRANCH  14  17
HETATM   17  C   UNL     1      39.451  42.858  64.088  1.00  0.00     0.034 A 
HETATM   18  C   UNL     1      39.145  43.489  62.884  1.00  0.00     0.032 A 
HETATM   19  C   UNL     1      38.091  44.412  62.817  1.00  0.00     0.039 A 
HETATM   20  C   UNL     1      37.324  44.696  63.945  1.00  0.00     0.068 A 
HETATM   21  C   UNL     1      37.672  44.127  65.166  1.00  0.00     0.039 A 
HETATM   22  C   UNL     1      38.738  43.221  65.238  1.00  0.00     0.032 A 
BRANCH  20  23
HETATM   23  O   UNL     1      36.276  45.557  63.758  1.00  0.00    -0.352 OA
BRANCH  23  24
HETATM   24  C   UNL     1      36.267  46.686  64.637  1.00  0.00     0.171 C 
HETATM   25  C   UNL     1      36.677  47.913  63.840  1.00  0.00     0.034 C 
ENDBRANCH  23  24
ENDBRANCH  20  23
ENDBRANCH  14  17
ENDBRANCH  12  13
ENDBRANCH  11  12
ENDBRANCH   1  11
BRANCH   6  26
HETATM   26  C   UNL     1      43.294  44.635  65.987  1.00  0.00    -0.042 A 
HETATM   27  C   UNL     1      42.567  44.564  64.790  1.00  0.00     0.027 A 
HETATM   28  C   UNL     1      42.925  45.393  63.739  1.00  0.00     0.116 A 
HETATM   29  N   UNL     1      43.944  46.273  63.796  1.00  0.00    -0.273 NA
HETATM   30  C   UNL     1      44.631  46.336  64.956  1.00  0.00     0.116 A 
HETATM   31  C   UNL     1      44.341  45.559  66.068  1.00  0.00     0.027 A 
ENDBRANCH   6  26
BRANCH   5  32
HETATM   32  C   UNL     1      41.143  45.533  67.883  1.00  0.00     0.255 C 
HETATM   33  N   UNL     1      40.163  45.836  66.967  1.00  0.00    -0.323 N 
HETATM   34  H   UNL     1      39.757  45.080  66.435  1.00  0.00     0.169 HD
HETATM   35  O   UNL     1      41.598  46.297  68.730  1.00  0.00    -0.268 OA
BRANCH  33  36
HETATM   36  C   UNL     1      39.595  47.117  66.775  1.00  0.00     0.035 A 
HETATM   37  C   UNL     1      38.480  47.582  67.485  1.00  0.00     0.031 A 
HETATM   38  C   UNL     1      37.963  48.859  67.253  1.00  0.00     0.026 A 
HETATM   39  C   UNL     1      38.557  49.682  66.302  1.00  0.00     0.034 A 
HETATM   40 CL   UNL     1      37.915  51.249  66.007  1.00  0.00    -0.084 Cl
HETATM   41  C   UNL     1      39.672  49.240  65.594  1.00  0.00     0.026 A 
HETATM   42  C   UNL     1      40.196  47.965  65.838  1.00  0.00     0.031 A 
ENDBRANCH  33  36
ENDBRANCH   5  32
TORSDOF 9
ENDMDL
MODEL 10
REMARK VINA RESULT:      -8.0      2.890      3.539
REMARK  9 active torsions:
REMARK  status: ('A' for Active; 'I' for Inactive)
REMARK    1  A    between atoms: C_2  and  O_3 
REMARK    2  A    between atoms: O_3  and  C_4 
REMARK    3  A    between atoms: C_7  and  N_8 
REMARK       I    between atoms: N_8  and  C_9 
REMARK    4  A    between atoms: C_9  and  C_10 
REMARK    5  A    between atoms: C_10  and  S_11 
REMARK    6  A    between atoms: S_11  and  C_12 
REMARK    7  A    between atoms: C_16  and  C_17 
REMARK       I    between atoms: C_17  and  N_18 
REMARK    8  A    between atoms: N_18  and  C_19 
REMARK    9  A    between atoms: C_27  and  C_28 
ROOT
HETATM    1  C   UNL     1      23.583  43.442  48.250  1.00  0.00     0.087 C 
HETATM    2  N   UNL     1      23.770  44.546  49.062  1.00  0.00    -0.353 N 
HETATM    3  C   UNL     1      24.759  44.669  50.020  1.00  0.00     0.019 C 
HETATM    4  C   UNL     1      24.903  46.038  50.639  1.00  0.00     0.069 C 
HETATM    5  C   UNL     1      25.513  43.594  50.340  1.00  0.00     0.046 C 
HETATM    6  C   UNL     1      25.192  42.223  49.749  1.00  0.00     0.104 C 
HETATM    7  C   UNL     1      24.210  42.284  48.559  1.00  0.00     0.055 C 
HETATM    8  C   UNL     1      23.860  40.964  47.889  1.00  0.00     0.019 C 
HETATM    9  N   UNL     1      23.570  39.871  47.334  1.00  0.00    -0.096 N 
HETATM   10  H   UNL     1      23.354  45.416  48.715  1.00  0.00     0.166 HD
ENDROOT
BRANCH   1  11
HETATM   11  S   UNL     1      22.505  43.574  46.875  1.00  0.00    -0.102 SA
BRANCH  11  12
HETATM   12  C   UNL     1      21.221  44.702  47.528  1.00  0.00     0.184 C 
BRANCH  12  13
HETATM   13  C   UNL     1      21.041  45.948  46.665  1.00  0.00     0.231 C 
HETATM   14  N   UNL     1      19.709  46.327  46.541  1.00  0.00    -0.327 N 
HETATM   15  H   UNL     1      19.021  45.741  46.997  1.00  0.00     0.169 HD
HETATM   16  O   UNL     1      21.997  46.470  46.094  1.00  0.00    -0.272 OA
BRANCH  14  17
HETATM   17  C   UNL     1      19.179  47.307  45.675  1.00  0.00     0.034 A 
HETATM   18  C   UNL     1      18.829  47.076  44.346  1.00  0.00     0.032 A 
HETATM   19  C   UNL     1      18.201  48.081  43.595  1.00  0.00     0.039 A 
HETATM   20  C   UNL     1      17.902  49.313  44.170  1.00  0.00     0.068 A 
HETATM   21  C   UNL     1      18.317  49.576  45.473  1.00  0.00     0.039 A 
HETATM   22  C   UNL     1      18.963  48.581  46.216  1.00  0.00     0.032 A 
BRANCH  20  23
HETATM   23  O   UNL     1      17.226  50.200  43.375  1.00  0.00    -0.352 OA
BRANCH  23  24
HETATM   24  C   UNL     1      18.061  51.121  42.665  1.00  0.00     0.171 C 
HETATM   25  C   UNL     1      17.449  52.506  42.783  1.00  0.00     0.034 C 
ENDBRANCH  23  24
ENDBRANCH  20  23
ENDBRANCH  14  17
ENDBRANCH  12  13
ENDBRANCH  11  12
ENDBRANCH   1  11
BRANCH   6  26
HETATM   26  C   UNL     1      26.426  41.386  49.423  1.00  0.00    -0.042 A 
HETATM   27  C   UNL     1      26.845  40.384  50.311  1.00  0.00     0.027 A 
HETATM   28  C   UNL     1      27.971  39.640  49.999  1.00  0.00     0.116 A 
HETATM   29  N   UNL     1      28.701  39.824  48.880  1.00  0.00    -0.273 NA
HETATM   30  C   UNL     1      28.282  40.786  48.031  1.00  0.00     0.116 A 
HETATM   31  C   UNL     1      27.161  41.573  48.248  1.00  0.00     0.027 A 
ENDBRANCH   6  26
BRANCH   5  32
HETATM   32  C   UNL     1      26.760  43.843  51.118  1.00  0.00     0.255 C 
HETATM   33  N   UNL     1      26.738  43.413  52.424  1.00  0.00    -0.323 N 
HETATM   34  H   UNL     1      25.950  42.863  52.733  1.00  0.00     0.169 HD
HETATM   35  O   UNL     1      27.719  44.351  50.544  1.00  0.00    -0.268 OA
BRANCH  33  36
HETATM   36  C   UNL     1      27.787  43.590  53.358  1.00  0.00     0.035 A 
HETATM   37  C   UNL     1      27.889  44.704  54.202  1.00  0.00     0.031 A 
HETATM   38  C   UNL     1      28.949  44.823  55.106  1.00  0.00     0.026 A 
HETATM   39  C   UNL     1      29.918  43.829  55.169  1.00  0.00     0.034 A 
HETATM   40 CL   UNL     1      31.228  43.980  56.271  1.00  0.00    -0.084 Cl
HETATM   41  C   UNL     1      29.827  42.711  54.343  1.00  0.00     0.026 A 
HETATM   42  C   UNL     1      28.758  42.587  53.448  1.00  0.00     0.031 A 
ENDBRANCH  33  36
ENDBRANCH   5  32
TORSDOF 9
ENDMDL
