MODEL 1
REMARK VINA RESULT:     -10.3      0.000      0.000
REMARK  9 active torsions:
REMARK  status: ('A' for Active; 'I' for Inactive)
REMARK    1  A    between atoms: C_2  and  C_3 
REMARK    2  A    between atoms: C_3  and  C_4 
REMARK       I    between atoms: C_4  and  N_6 
REMARK    3  A    between atoms: N_6  and  C_7 
REMARK    4  A    between atoms: C_11  and  C_13 
REMARK    5  A    between atoms: C_15  and  N_16 
REMARK    6  A    between atoms: N_16  and  C_17 
REMARK    7  A    between atoms: C_29  and  O_30 
REMARK    8  A    between atoms: O_30  and  C_31 
REMARK    9  A    between atoms: C_31  and  C_32 
ROOT
HETATM    1  C   UNL     1      25.247  45.829  51.400  1.00  0.00     0.162 A 
HETATM    2  N   UNL     1      25.492  44.555  51.736  1.00  0.00    -0.210 NA
HETATM    3  C   UNL     1      26.265  44.324  52.810  1.00  0.00     0.143 A 
HETATM    4  C   UNL     1      26.789  45.371  53.584  1.00  0.00     0.041 A 
HETATM    5  C   UNL     1      27.589  45.209  54.744  1.00  0.00     0.054 A 
HETATM    6  C   UNL     1      28.050  46.309  55.466  1.00  0.00     0.069 A 
HETATM    7  C   UNL     1      27.746  47.584  55.011  1.00  0.00     0.039 A 
HETATM    8  C   UNL     1      26.971  47.744  53.854  1.00  0.00     0.035 A 
HETATM    9  C   UNL     1      26.482  46.661  53.134  1.00  0.00     0.073 A 
HETATM   10  N   UNL     1      25.733  46.896  52.052  1.00  0.00    -0.228 NA
ENDROOT
BRANCH   1  11
HETATM   11  C   UNL     1      24.339  46.058  50.266  1.00  0.00     0.014 A 
HETATM   12  C   UNL     1      23.951  44.995  49.431  1.00  0.00     0.015 A 
HETATM   13  C   UNL     1      23.074  45.194  48.366  1.00  0.00     0.003 A 
HETATM   14  C   UNL     1      22.575  46.469  48.101  1.00  0.00     0.029 A 
HETATM   15  C   UNL     1      22.953  47.553  48.894  1.00  0.00     0.035 A 
HETATM   16  C   UNL     1      23.824  47.336  49.974  1.00  0.00     0.044 A 
BRANCH  15  17
HETATM   17  N   UNL     1      22.534  48.878  48.654  1.00  0.00    -0.327 N 
HETATM   18  C   UNL     1      23.259  49.889  48.045  1.00  0.00     0.222 C 
HETATM   19  O   UNL     1      24.360  49.788  47.515  1.00  0.00    -0.273 OA
HETATM   20  H   UNL     1      21.594  49.107  48.951  1.00  0.00     0.169 HD
BRANCH  18  21
HETATM   21  C   UNL     1      22.568  51.236  48.125  1.00  0.00     0.103 C 
BRANCH  21  22
HETATM   22  C   UNL     1      21.411  51.178  49.118  1.00  0.00     0.005 C 
HETATM   23  C   UNL     1      20.120  51.693  48.506  1.00  0.00     0.005 C 
ENDBRANCH  21  22
ENDBRANCH  18  21
ENDBRANCH  15  17
ENDBRANCH   1  11
BRANCH   3  24
HETATM   24  N   UNL     1      26.532  42.979  53.179  1.00  0.00    -0.340 N 
HETATM   25  H   UNL     1      25.714  42.587  53.633  1.00  0.00     0.167 HD
BRANCH  24  26
HETATM   26  C   UNL     1      27.242  42.014  52.424  1.00  0.00     0.034 A 
HETATM   27  C   UNL     1      28.259  41.270  53.043  1.00  0.00     0.032 A 
HETATM   28  C   UNL     1      29.033  40.333  52.341  1.00  0.00     0.034 A 
HETATM   29  C   UNL     1      28.769  40.188  50.978  1.00  0.00     0.062 A 
HETATM   30  N   UNL     1      29.327  39.386  50.017  1.00  0.00    -0.278 N 
HETATM   31  C   UNL     1      27.797  40.926  50.318  1.00  0.00     0.013 A 
HETATM   32  H   UNL     1      30.070  38.709  50.132  1.00  0.00     0.189 HD
HETATM   33  N   UNL     1      28.803  39.554  48.788  1.00  0.00    -0.186 NA
HETATM   34  C   UNL     1      27.870  40.492  48.976  1.00  0.00     0.152 A 
HETATM   35  C   UNL     1      27.031  41.858  51.042  1.00  0.00     0.044 A 
ENDBRANCH  24  26
ENDBRANCH   3  24
BRANCH   6  36
HETATM   36  O   UNL     1      28.779  45.999  56.579  1.00  0.00    -0.351 OA
BRANCH  36  37
HETATM   37  C   UNL     1      30.155  45.673  56.386  1.00  0.00     0.180 C 
BRANCH  37  38
HETATM   38  C   UNL     1      30.345  44.234  56.758  1.00  0.00     0.010 A 
HETATM   39  C   UNL     1      30.920  43.254  55.766  1.00  0.00     0.007 A 
HETATM   40  C   UNL     1      31.729  43.673  56.964  1.00  0.00     0.007 A 
ENDBRANCH  37  38
ENDBRANCH  36  37
ENDBRANCH   6  36
TORSDOF 9
ENDMDL
MODEL 2
REMARK VINA RESULT:     -10.3      2.730      5.750
REMARK  9 active torsions:
REMARK  status: ('A' for Active; 'I' for Inactive)
REMARK    1  A    between atoms: C_2  and  C_3 
REMARK    2  A    between atoms: C_3  and  C_4 
REMARK       I    between atoms: C_4  and  N_6 
REMARK    3  A    between atoms: N_6  and  C_7 
REMARK    4  A    between atoms: C_11  and  C_13 
REMARK    5  A    between atoms: C_15  and  N_16 
REMARK    6  A    between atoms: N_16  and  C_17 
REMARK    7  A    between atoms: C_29  and  O_30 
REMARK    8  A    between atoms: O_30  and  C_31 
REMARK    9  A    between atoms: C_31  and  C_32 
ROOT
HETATM    1  C   UNL     1      25.685  44.941  50.156  1.00  0.00     0.162 A 
HETATM    2  N   UNL     1      26.015  44.619  51.413  1.00  0.00    -0.210 NA
HETATM    3  C   UNL     1      26.229  43.324  51.698  1.00  0.00     0.143 A 
HETATM    4  C   UNL     1      26.137  42.326  50.716  1.00  0.00     0.041 A 
HETATM    5  C   UNL     1      26.374  40.944  50.930  1.00  0.00     0.054 A 
HETATM    6  C   UNL     1      26.281  40.021  49.888  1.00  0.00     0.069 A 
HETATM    7  C   UNL     1      25.913  40.471  48.628  1.00  0.00     0.039 A 
HETATM    8  C   UNL     1      25.661  41.834  48.421  1.00  0.00     0.035 A 
HETATM    9  C   UNL     1      25.772  42.771  49.440  1.00  0.00     0.073 A 
HETATM   10  N   UNL     1      25.535  44.056  49.157  1.00  0.00    -0.228 NA
ENDROOT
BRANCH   1  11
HETATM   11  C   UNL     1      25.528  46.371  49.850  1.00  0.00     0.014 A 
HETATM   12  C   UNL     1      26.649  47.170  49.561  1.00  0.00     0.015 A 
HETATM   13  C   UNL     1      26.512  48.521  49.248  1.00  0.00     0.003 A 
HETATM   14  C   UNL     1      25.248  49.111  49.234  1.00  0.00     0.029 A 
HETATM   15  C   UNL     1      24.115  48.356  49.535  1.00  0.00     0.035 A 
HETATM   16  C   UNL     1      24.264  46.992  49.833  1.00  0.00     0.044 A 
BRANCH  15  17
HETATM   17  N   UNL     1      22.812  48.895  49.595  1.00  0.00    -0.327 N 
HETATM   18  C   UNL     1      21.974  49.180  48.530  1.00  0.00     0.222 C 
HETATM   19  O   UNL     1      22.172  48.922  47.348  1.00  0.00    -0.273 OA
HETATM   20  H   UNL     1      22.453  49.082  50.522  1.00  0.00     0.169 HD
BRANCH  18  21
HETATM   21  C   UNL     1      20.724  49.927  48.953  1.00  0.00     0.103 C 
BRANCH  21  22
HETATM   22  C   UNL     1      20.795  51.378  48.490  1.00  0.00     0.005 C 
HETATM   23  C   UNL     1      19.471  52.096  48.688  1.00  0.00     0.005 C 
ENDBRANCH  21  22
ENDBRANCH  18  21
ENDBRANCH  15  17
ENDBRANCH   1  11
BRANCH   3  24
HETATM   24  N   UNL     1      26.582  42.969  53.027  1.00  0.00    -0.340 N 
HETATM   25  H   UNL     1      26.385  41.986  53.175  1.00  0.00     0.167 HD
BRANCH  24  26
HETATM   26  C   UNL     1      27.718  43.406  53.751  1.00  0.00     0.034 A 
HETATM   27  C   UNL     1      28.896  42.643  53.708  1.00  0.00     0.032 A 
HETATM   28  C   UNL     1      30.041  42.992  54.440  1.00  0.00     0.034 A 
HETATM   29  C   UNL     1      29.954  44.128  55.247  1.00  0.00     0.062 A 
HETATM   30  N   UNL     1      30.860  44.735  56.076  1.00  0.00    -0.278 N 
HETATM   31  C   UNL     1      28.800  44.893  55.346  1.00  0.00     0.013 A 
HETATM   32  H   UNL     1      31.816  44.456  56.257  1.00  0.00     0.189 HD
HETATM   33  N   UNL     1      30.384  45.823  56.711  1.00  0.00    -0.186 NA
HETATM   34  C   UNL     1      29.128  45.916  56.262  1.00  0.00     0.152 A 
HETATM   35  C   UNL     1      27.665  44.525  54.601  1.00  0.00     0.044 A 
ENDBRANCH  24  26
ENDBRANCH   3  24
BRANCH   6  36
HETATM   36  O   UNL     1      26.569  38.733  50.236  1.00  0.00    -0.351 OA
BRANCH  36  37
HETATM   37  C   UNL     1      27.577  38.064  49.479  1.00  0.00     0.180 C 
BRANCH  37  38
HETATM   38  C   UNL     1      28.908  38.610  49.899  1.00  0.00     0.010 A 
HETATM   39  C   UNL     1      29.887  37.749  50.655  1.00  0.00     0.007 A 
HETATM   40  C   UNL     1      30.174  38.139  49.231  1.00  0.00     0.007 A 
ENDBRANCH  37  38
ENDBRANCH  36  37
ENDBRANCH   6  36
TORSDOF 9
ENDMDL
MODEL 3
REMARK VINA RESULT:      -9.8      2.463      3.672
REMARK  9 active torsions:
REMARK  status: ('A' for Active; 'I' for Inactive)
REMARK    1  A    between atoms: C_2  and  C_3 
REMARK    2  A    between atoms: C_3  and  C_4 
REMARK       I    between atoms: C_4  and  N_6 
REMARK    3  A    between atoms: N_6  and  C_7 
REMARK    4  A    between atoms: C_11  and  C_13 
REMARK    5  A    between atoms: C_15  and  N_16 
REMARK    6  A    between atoms: N_16  and  C_17 
REMARK    7  A    between atoms: C_29  and  O_30 
REMARK    8  A    between atoms: O_30  and  C_31 
REMARK    9  A    between atoms: C_31  and  C_32 
ROOT
HETATM    1  C   UNL     1      25.705  47.428  50.185  1.00  0.00     0.162 A 
HETATM    2  N   UNL     1      26.101  46.322  49.540  1.00  0.00    -0.210 NA
HETATM    3  C   UNL     1      26.509  45.274  50.275  1.00  0.00     0.143 A 
HETATM    4  C   UNL     1      26.504  45.310  51.678  1.00  0.00     0.041 A 
HETATM    5  C   UNL     1      26.893  44.239  52.524  1.00  0.00     0.054 A 
HETATM    6  C   UNL     1      26.838  44.353  53.912  1.00  0.00     0.069 A 
HETATM    7  C   UNL     1      26.427  45.557  54.468  1.00  0.00     0.039 A 
HETATM    8  C   UNL     1      26.061  46.621  53.633  1.00  0.00     0.035 A 
HETATM    9  C   UNL     1      26.086  46.518  52.248  1.00  0.00     0.073 A 
HETATM   10  N   UNL     1      25.702  47.572  51.519  1.00  0.00    -0.228 NA
ENDROOT
BRANCH   1  11
HETATM   11  C   UNL     1      25.194  48.535  49.363  1.00  0.00     0.014 A 
HETATM   12  C   UNL     1      26.049  49.240  48.497  1.00  0.00     0.015 A 
HETATM   13  C   UNL     1      25.573  50.276  47.697  1.00  0.00     0.003 A 
HETATM   14  C   UNL     1      24.228  50.643  47.755  1.00  0.00     0.029 A 
HETATM   15  C   UNL     1      23.353  49.981  48.616  1.00  0.00     0.035 A 
HETATM   16  C   UNL     1      23.841  48.928  49.405  1.00  0.00     0.044 A 
BRANCH  15  17
HETATM   17  N   UNL     1      21.995  50.333  48.769  1.00  0.00    -0.327 N 
HETATM   18  C   UNL     1      21.386  50.844  49.903  1.00  0.00     0.222 C 
HETATM   19  O   UNL     1      21.934  51.177  50.947  1.00  0.00    -0.273 OA
HETATM   20  H   UNL     1      21.410  50.205  47.953  1.00  0.00     0.169 HD
BRANCH  18  21
HETATM   21  C   UNL     1      19.877  50.926  49.769  1.00  0.00     0.103 C 
BRANCH  21  22
HETATM   22  C   UNL     1      19.491  52.059  48.825  1.00  0.00     0.005 C 
HETATM   23  C   UNL     1      18.639  51.563  47.670  1.00  0.00     0.005 C 
ENDBRANCH  21  22
ENDBRANCH  18  21
ENDBRANCH  15  17
ENDBRANCH   1  11
BRANCH   3  24
HETATM   24  N   UNL     1      26.928  44.096  49.605  1.00  0.00    -0.340 N 
HETATM   25  H   UNL     1      27.796  43.768  50.014  1.00  0.00     0.167 HD
BRANCH  24  26
HETATM   26  C   UNL     1      26.107  43.031  49.160  1.00  0.00     0.034 A 
HETATM   27  C   UNL     1      26.704  41.830  48.746  1.00  0.00     0.032 A 
HETATM   28  C   UNL     1      25.953  40.754  48.248  1.00  0.00     0.034 A 
HETATM   29  C   UNL     1      24.572  40.937  48.153  1.00  0.00     0.062 A 
HETATM   30  N   UNL     1      23.566  40.114  47.717  1.00  0.00    -0.278 N 
HETATM   31  C   UNL     1      23.943  42.119  48.518  1.00  0.00     0.013 A 
HETATM   32  H   UNL     1      23.649  39.166  47.373  1.00  0.00     0.189 HD
HETATM   33  N   UNL     1      22.341  40.671  47.761  1.00  0.00    -0.186 NA
HETATM   34  C   UNL     1      22.575  41.892  48.251  1.00  0.00     0.152 A 
HETATM   35  C   UNL     1      24.716  43.183  49.017  1.00  0.00     0.044 A 
ENDBRANCH  24  26
ENDBRANCH   3  24
BRANCH   6  36
HETATM   36  O   UNL     1      27.209  43.231  54.596  1.00  0.00    -0.351 OA
BRANCH  36  37
HETATM   37  C   UNL     1      27.814  42.181  53.842  1.00  0.00     0.180 C 
BRANCH  37  38
HETATM   38  C   UNL     1      29.269  42.135  54.200  1.00  0.00     0.010 A 
HETATM   39  C   UNL     1      30.303  42.749  53.290  1.00  0.00     0.007 A 
HETATM   40  C   UNL     1      29.995  43.388  54.616  1.00  0.00     0.007 A 
ENDBRANCH  37  38
ENDBRANCH  36  37
ENDBRANCH   6  36
TORSDOF 9
ENDMDL
MODEL 4
REMARK VINA RESULT:      -9.6      1.458      1.880
REMARK  9 active torsions:
REMARK  status: ('A' for Active; 'I' for Inactive)
REMARK    1  A    between atoms: C_2  and  C_3 
REMARK    2  A    between atoms: C_3  and  C_4 
REMARK       I    between atoms: C_4  and  N_6 
REMARK    3  A    between atoms: N_6  and  C_7 
REMARK    4  A    between atoms: C_11  and  C_13 
REMARK    5  A    between atoms: C_15  and  N_16 
REMARK    6  A    between atoms: N_16  and  C_17 
REMARK    7  A    between atoms: C_29  and  O_30 
REMARK    8  A    between atoms: O_30  and  C_31 
REMARK    9  A    between atoms: C_31  and  C_32 
ROOT
HETATM    1  C   UNL     1      24.170  45.846  50.268  1.00  0.00     0.162 A 
HETATM    2  N   UNL     1      24.291  44.519  50.404  1.00  0.00    -0.210 NA
HETATM    3  C   UNL     1      25.031  44.054  51.425  1.00  0.00     0.143 A 
HETATM    4  C   UNL     1      25.645  44.917  52.346  1.00  0.00     0.041 A 
HETATM    5  C   UNL     1      26.418  44.505  53.462  1.00  0.00     0.054 A 
HETATM    6  C   UNL     1      26.976  45.433  54.341  1.00  0.00     0.069 A 
HETATM    7  C   UNL     1      26.796  46.785  54.087  1.00  0.00     0.039 A 
HETATM    8  C   UNL     1      26.050  47.192  52.973  1.00  0.00     0.035 A 
HETATM    9  C   UNL     1      25.465  46.283  52.101  1.00  0.00     0.073 A 
HETATM   10  N   UNL     1      24.750  46.750  51.072  1.00  0.00    -0.228 NA
ENDROOT
BRANCH   1  11
HETATM   11  C   UNL     1      23.297  46.330  49.189  1.00  0.00     0.014 A 
HETATM   12  C   UNL     1      22.859  45.459  48.174  1.00  0.00     0.015 A 
HETATM   13  C   UNL     1      22.014  45.900  47.158  1.00  0.00     0.003 A 
HETATM   14  C   UNL     1      21.597  47.231  47.123  1.00  0.00     0.029 A 
HETATM   15  C   UNL     1      22.026  48.130  48.100  1.00  0.00     0.035 A 
HETATM   16  C   UNL     1      22.865  47.670  49.128  1.00  0.00     0.044 A 
BRANCH  15  17
HETATM   17  N   UNL     1      21.692  49.500  48.099  1.00  0.00    -0.327 N 
HETATM   18  C   UNL     1      20.764  50.137  48.906  1.00  0.00     0.222 C 
HETATM   19  O   UNL     1      20.137  49.644  49.837  1.00  0.00    -0.273 OA
HETATM   20  H   UNL     1      22.198  50.079  47.440  1.00  0.00     0.169 HD
BRANCH  18  21
HETATM   21  C   UNL     1      20.528  51.580  48.500  1.00  0.00     0.103 C 
BRANCH  21  22
HETATM   22  C   UNL     1      19.055  51.801  48.172  1.00  0.00     0.005 C 
HETATM   23  C   UNL     1      18.310  52.432  49.335  1.00  0.00     0.005 C 
ENDBRANCH  21  22
ENDBRANCH  18  21
ENDBRANCH  15  17
ENDBRANCH   1  11
BRANCH   3  24
HETATM   24  N   UNL     1      25.166  42.649  51.583  1.00  0.00    -0.340 N 
HETATM   25  H   UNL     1      24.250  42.216  51.534  1.00  0.00     0.167 HD
BRANCH  24  26
HETATM   26  C   UNL     1      26.180  41.825  51.038  1.00  0.00     0.034 A 
HETATM   27  C   UNL     1      27.314  41.528  51.812  1.00  0.00     0.032 A 
HETATM   28  C   UNL     1      28.377  40.758  51.316  1.00  0.00     0.034 A 
HETATM   29  C   UNL     1      28.277  40.317  49.996  1.00  0.00     0.062 A 
HETATM   30  N   UNL     1      29.117  39.568  49.214  1.00  0.00    -0.278 N 
HETATM   31  C   UNL     1      27.192  40.616  49.184  1.00  0.00     0.013 A 
HETATM   32  H   UNL     1      30.010  39.169  49.473  1.00  0.00     0.189 HD
HETATM   33  N   UNL     1      28.668  39.366  47.961  1.00  0.00    -0.186 NA
HETATM   34  C   UNL     1      27.495  40.005  47.947  1.00  0.00     0.152 A 
HETATM   35  C   UNL     1      26.136  41.386  49.702  1.00  0.00     0.044 A 
ENDBRANCH  24  26
ENDBRANCH   3  24
BRANCH   6  36
HETATM   36  O   UNL     1      27.663  44.889  55.388  1.00  0.00    -0.351 OA
BRANCH  36  37
HETATM   37  C   UNL     1      29.033  45.264  55.532  1.00  0.00     0.180 C 
BRANCH  37  38
HETATM   38  C   UNL     1      29.860  44.310  54.725  1.00  0.00     0.010 A 
HETATM   39  C   UNL     1      30.800  43.346  55.403  1.00  0.00     0.007 A 
HETATM   40  C   UNL     1      29.554  42.835  54.733  1.00  0.00     0.007 A 
ENDBRANCH  37  38
ENDBRANCH  36  37
ENDBRANCH   6  36
TORSDOF 9
ENDMDL
MODEL 5
REMARK VINA RESULT:      -9.5      2.978     10.443
REMARK  9 active torsions:
REMARK  status: ('A' for Active; 'I' for Inactive)
REMARK    1  A    between atoms: C_2  and  C_3 
REMARK    2  A    between atoms: C_3  and  C_4 
REMARK       I    between atoms: C_4  and  N_6 
REMARK    3  A    between atoms: N_6  and  C_7 
REMARK    4  A    between atoms: C_11  and  C_13 
REMARK    5  A    between atoms: C_15  and  N_16 
REMARK    6  A    between atoms: N_16  and  C_17 
REMARK    7  A    between atoms: C_29  and  O_30 
REMARK    8  A    between atoms: O_30  and  C_31 
REMARK    9  A    between atoms: C_31  and  C_32 
ROOT
HETATM    1  C   UNL     1      25.204  45.996  51.744  1.00  0.00     0.162 A 
HETATM    2  N   UNL     1      24.886  47.010  50.929  1.00  0.00    -0.210 NA
HETATM    3  C   UNL     1      24.104  46.746  49.869  1.00  0.00     0.143 A 
HETATM    4  C   UNL     1      23.606  45.458  49.620  1.00  0.00     0.041 A 
HETATM    5  C   UNL     1      22.756  45.104  48.541  1.00  0.00     0.054 A 
HETATM    6  C   UNL     1      22.290  43.799  48.382  1.00  0.00     0.069 A 
HETATM    7  C   UNL     1      22.703  42.828  49.282  1.00  0.00     0.039 A 
HETATM    8  C   UNL     1      23.558  43.173  50.337  1.00  0.00     0.035 A 
HETATM    9  C   UNL     1      24.013  44.471  50.527  1.00  0.00     0.073 A 
HETATM   10  N   UNL     1      24.811  44.725  51.569  1.00  0.00    -0.228 NA
ENDROOT
BRANCH   1  11
HETATM   11  C   UNL     1      26.000  46.323  52.938  1.00  0.00     0.014 A 
HETATM   12  C   UNL     1      25.693  47.452  53.718  1.00  0.00     0.015 A 
HETATM   13  C   UNL     1      26.424  47.760  54.863  1.00  0.00     0.003 A 
HETATM   14  C   UNL     1      27.495  46.952  55.247  1.00  0.00     0.029 A 
HETATM   15  C   UNL     1      27.843  45.835  54.488  1.00  0.00     0.035 A 
HETATM   16  C   UNL     1      27.088  45.526  53.345  1.00  0.00     0.044 A 
BRANCH  15  17
HETATM   17  N   UNL     1      28.945  45.004  54.782  1.00  0.00    -0.327 N 
HETATM   18  C   UNL     1      29.043  43.639  54.576  1.00  0.00     0.222 C 
HETATM   19  O   UNL     1      28.229  42.920  54.007  1.00  0.00    -0.273 OA
HETATM   20  H   UNL     1      29.754  45.466  55.178  1.00  0.00     0.169 HD
BRANCH  18  21
HETATM   21  C   UNL     1      30.298  43.043  55.185  1.00  0.00     0.103 C 
BRANCH  21  22
HETATM   22  C   UNL     1      31.041  44.098  55.999  1.00  0.00     0.005 C 
HETATM   23  C   UNL     1      31.771  43.483  57.180  1.00  0.00     0.005 C 
ENDBRANCH  21  22
ENDBRANCH  18  21
ENDBRANCH  15  17
ENDBRANCH   1  11
BRANCH   3  24
HETATM   24  N   UNL     1      23.756  47.812  48.998  1.00  0.00    -0.340 N 
HETATM   25  H   UNL     1      23.860  47.507  48.037  1.00  0.00     0.167 HD
BRANCH  24  26
HETATM   26  C   UNL     1      22.690  48.730  49.159  1.00  0.00     0.034 A 
HETATM   27  C   UNL     1      22.978  50.082  49.408  1.00  0.00     0.032 A 
HETATM   28  C   UNL     1      21.970  51.034  49.625  1.00  0.00     0.034 A 
HETATM   29  C   UNL     1      20.652  50.574  49.613  1.00  0.00     0.062 A 
HETATM   30  N   UNL     1      19.455  51.217  49.790  1.00  0.00    -0.278 N 
HETATM   31  C   UNL     1      20.323  49.242  49.405  1.00  0.00     0.013 A 
HETATM   32  H   UNL     1      19.304  52.203  49.965  1.00  0.00     0.189 HD
HETATM   33  N   UNL     1      18.381  50.409  49.725  1.00  0.00    -0.186 NA
HETATM   34  C   UNL     1      18.913  49.207  49.489  1.00  0.00     0.152 A 
HETATM   35  C   UNL     1      21.349  48.305  49.187  1.00  0.00     0.044 A 
ENDBRANCH  24  26
ENDBRANCH   3  24
BRANCH   6  36
HETATM   36  O   UNL     1      21.453  43.616  47.319  1.00  0.00    -0.351 OA
BRANCH  36  37
HETATM   37  C   UNL     1      20.704  44.747  46.877  1.00  0.00     0.180 C 
BRANCH  37  38
HETATM   38  C   UNL     1      19.349  44.683  47.516  1.00  0.00     0.010 A 
HETATM   39  C   UNL     1      18.506  45.924  47.655  1.00  0.00     0.007 A 
HETATM   40  C   UNL     1      18.103  44.847  46.685  1.00  0.00     0.007 A 
ENDBRANCH  37  38
ENDBRANCH  36  37
ENDBRANCH   6  36
TORSDOF 9
ENDMDL
MODEL 6
REMARK VINA RESULT:      -9.4      2.188      3.375
REMARK  9 active torsions:
REMARK  status: ('A' for Active; 'I' for Inactive)
REMARK    1  A    between atoms: C_2  and  C_3 
REMARK    2  A    between atoms: C_3  and  C_4 
REMARK       I    between atoms: C_4  and  N_6 
REMARK    3  A    between atoms: N_6  and  C_7 
REMARK    4  A    between atoms: C_11  and  C_13 
REMARK    5  A    between atoms: C_15  and  N_16 
REMARK    6  A    between atoms: N_16  and  C_17 
REMARK    7  A    between atoms: C_29  and  O_30 
REMARK    8  A    between atoms: O_30  and  C_31 
REMARK    9  A    between atoms: C_31  and  C_32 
ROOT
HETATM    1  C   UNL     1      24.604  47.220  50.350  1.00  0.00     0.162 A 
HETATM    2  N   UNL     1      24.169  45.988  50.054  1.00  0.00    -0.210 NA
HETATM    3  C   UNL     1      24.548  44.976  50.852  1.00  0.00     0.143 A 
HETATM    4  C   UNL     1      25.357  45.187  51.979  1.00  0.00     0.041 A 
HETATM    5  C   UNL     1      25.778  44.178  52.883  1.00  0.00     0.054 A 
HETATM    6  C   UNL     1      26.566  44.481  53.993  1.00  0.00     0.069 A 
HETATM    7  C   UNL     1      26.971  45.793  54.187  1.00  0.00     0.039 A 
HETATM    8  C   UNL     1      26.571  46.787  53.283  1.00  0.00     0.035 A 
HETATM    9  C   UNL     1      25.766  46.510  52.186  1.00  0.00     0.073 A 
HETATM   10  N   UNL     1      25.411  47.516  51.381  1.00  0.00    -0.228 NA
ENDROOT
BRANCH   1  11
HETATM   11  C   UNL     1      24.116  48.322  49.507  1.00  0.00     0.014 A 
HETATM   12  C   UNL     1      25.011  49.086  48.736  1.00  0.00     0.015 A 
HETATM   13  C   UNL     1      24.560  50.119  47.916  1.00  0.00     0.003 A 
HETATM   14  C   UNL     1      23.200  50.423  47.860  1.00  0.00     0.029 A 
HETATM   15  C   UNL     1      22.284  49.701  48.625  1.00  0.00     0.035 A 
HETATM   16  C   UNL     1      22.749  48.653  49.435  1.00  0.00     0.044 A 
BRANCH  15  17
HETATM   17  N   UNL     1      20.903  49.987  48.662  1.00  0.00    -0.327 N 
HETATM   18  C   UNL     1      20.210  50.643  49.667  1.00  0.00     0.222 C 
HETATM   19  O   UNL     1      20.687  51.181  50.659  1.00  0.00    -0.273 OA
HETATM   20  H   UNL     1      20.367  49.688  47.858  1.00  0.00     0.169 HD
BRANCH  18  21
HETATM   21  C   UNL     1      18.708  50.605  49.462  1.00  0.00     0.103 C 
BRANCH  21  22
HETATM   22  C   UNL     1      18.151  52.023  49.376  1.00  0.00     0.005 C 
HETATM   23  C   UNL     1      18.637  52.742  48.129  1.00  0.00     0.005 C 
ENDBRANCH  21  22
ENDBRANCH  18  21
ENDBRANCH  15  17
ENDBRANCH   1  11
BRANCH   3  24
HETATM   24  N   UNL     1      24.092  43.666  50.551  1.00  0.00    -0.340 N 
HETATM   25  H   UNL     1      23.078  43.656  50.550  1.00  0.00     0.167 HD
BRANCH  24  26
HETATM   26  C   UNL     1      24.641  42.770  49.602  1.00  0.00     0.034 A 
HETATM   27  C   UNL     1      23.779  42.048  48.760  1.00  0.00     0.032 A 
HETATM   28  C   UNL     1      24.254  41.109  47.831  1.00  0.00     0.034 A 
HETATM   29  C   UNL     1      25.633  40.897  47.795  1.00  0.00     0.062 A 
HETATM   30  N   UNL     1      26.413  40.069  47.032  1.00  0.00    -0.278 N 
HETATM   31  C   UNL     1      26.518  41.563  48.632  1.00  0.00     0.013 A 
HETATM   32  H   UNL     1      26.111  39.430  46.307  1.00  0.00     0.189 HD
HETATM   33  N   UNL     1      27.728  40.137  47.312  1.00  0.00    -0.186 NA
HETATM   34  C   UNL     1      27.788  41.050  48.287  1.00  0.00     0.152 A 
HETATM   35  C   UNL     1      26.020  42.501  49.553  1.00  0.00     0.044 A 
ENDBRANCH  24  26
ENDBRANCH   3  24
BRANCH   6  36
HETATM   36  O   UNL     1      26.864  43.415  54.792  1.00  0.00    -0.351 OA
BRANCH  36  37
HETATM   37  C   UNL     1      27.907  42.544  54.354  1.00  0.00     0.180 C 
BRANCH  37  38
HETATM   38  C   UNL     1      29.093  43.388  53.997  1.00  0.00     0.010 A 
HETATM   39  C   UNL     1      30.484  42.962  54.392  1.00  0.00     0.007 A 
HETATM   40  C   UNL     1      30.070  42.929  52.946  1.00  0.00     0.007 A 
ENDBRANCH  37  38
ENDBRANCH  36  37
ENDBRANCH   6  36
TORSDOF 9
ENDMDL
MODEL 7
REMARK VINA RESULT:      -9.4      2.895      7.873
REMARK  9 active torsions:
REMARK  status: ('A' for Active; 'I' for Inactive)
REMARK    1  A    between atoms: C_2  and  C_3 
REMARK    2  A    between atoms: C_3  and  C_4 
REMARK       I    between atoms: C_4  and  N_6 
REMARK    3  A    between atoms: N_6  and  C_7 
REMARK    4  A    between atoms: C_11  and  C_13 
REMARK    5  A    between atoms: C_15  and  N_16 
REMARK    6  A    between atoms: N_16  and  C_17 
REMARK    7  A    between atoms: C_29  and  O_30 
REMARK    8  A    between atoms: O_30  and  C_31 
REMARK    9  A    between atoms: C_31  and  C_32 
ROOT
HETATM    1  C   UNL     1      25.833  42.943  50.787  1.00  0.00     0.162 A 
HETATM    2  N   UNL     1      25.306  44.174  50.761  1.00  0.00    -0.210 NA
HETATM    3  C   UNL     1      25.740  45.066  51.667  1.00  0.00     0.143 A 
HETATM    4  C   UNL     1      26.732  44.742  52.605  1.00  0.00     0.041 A 
HETATM    5  C   UNL     1      27.262  45.632  53.575  1.00  0.00     0.054 A 
HETATM    6  C   UNL     1      28.264  45.232  54.457  1.00  0.00     0.069 A 
HETATM    7  C   UNL     1      28.720  43.923  54.401  1.00  0.00     0.039 A 
HETATM    8  C   UNL     1      28.184  43.038  53.456  1.00  0.00     0.035 A 
HETATM    9  C   UNL     1      27.202  43.424  52.552  1.00  0.00     0.073 A 
HETATM   10  N   UNL     1      26.756  42.527  51.668  1.00  0.00    -0.228 NA
ENDROOT
BRANCH   1  11
HETATM   11  C   UNL     1      25.396  42.006  49.739  1.00  0.00     0.014 A 
HETATM   12  C   UNL     1      24.073  42.029  49.263  1.00  0.00     0.015 A 
HETATM   13  C   UNL     1      23.653  41.163  48.255  1.00  0.00     0.003 A 
HETATM   14  C   UNL     1      24.545  40.239  47.711  1.00  0.00     0.029 A 
HETATM   15  C   UNL     1      25.860  40.172  48.172  1.00  0.00     0.035 A 
HETATM   16  C   UNL     1      26.276  41.061  49.175  1.00  0.00     0.044 A 
BRANCH  15  17
HETATM   17  N   UNL     1      26.801  39.229  47.709  1.00  0.00    -0.327 N 
HETATM   18  C   UNL     1      27.343  38.169  48.417  1.00  0.00     0.222 C 
HETATM   19  O   UNL     1      27.027  37.798  49.542  1.00  0.00    -0.273 OA
HETATM   20  H   UNL     1      27.102  39.338  46.748  1.00  0.00     0.169 HD
BRANCH  18  21
HETATM   21  C   UNL     1      28.465  37.477  47.667  1.00  0.00     0.103 C 
BRANCH  21  22
HETATM   22  C   UNL     1      27.976  37.005  46.302  1.00  0.00     0.005 C 
HETATM   23  C   UNL     1      28.970  37.338  45.204  1.00  0.00     0.005 C 
ENDBRANCH  21  22
ENDBRANCH  18  21
ENDBRANCH  15  17
ENDBRANCH   1  11
BRANCH   3  24
HETATM   24  N   UNL     1      25.192  46.375  51.649  1.00  0.00    -0.340 N 
HETATM   25  H   UNL     1      25.308  46.800  52.562  1.00  0.00     0.167 HD
BRANCH  24  26
HETATM   26  C   UNL     1      25.283  47.322  50.600  1.00  0.00     0.034 A 
HETATM   27  C   UNL     1      26.541  47.836  50.246  1.00  0.00     0.032 A 
HETATM   28  C   UNL     1      26.696  48.812  49.249  1.00  0.00     0.034 A 
HETATM   29  C   UNL     1      25.533  49.279  48.634  1.00  0.00     0.062 A 
HETATM   30  N   UNL     1      25.327  50.209  47.649  1.00  0.00    -0.278 N 
HETATM   31  C   UNL     1      24.267  48.824  48.976  1.00  0.00     0.013 A 
HETATM   32  H   UNL     1      26.025  50.752  47.157  1.00  0.00     0.189 HD
HETATM   33  N   UNL     1      24.032  50.400  47.334  1.00  0.00    -0.186 NA
HETATM   34  C   UNL     1      23.390  49.553  48.144  1.00  0.00     0.152 A 
HETATM   35  C   UNL     1      24.136  47.844  49.976  1.00  0.00     0.044 A 
ENDBRANCH  24  26
ENDBRANCH   3  24
BRANCH   6  36
HETATM   36  O   UNL     1      28.700  46.205  55.310  1.00  0.00    -0.351 OA
BRANCH  36  37
HETATM   37  C   UNL     1      28.698  45.898  56.703  1.00  0.00     0.180 C 
BRANCH  37  38
HETATM   38  C   UNL     1      30.120  45.877  57.174  1.00  0.00     0.010 A 
HETATM   39  C   UNL     1      30.470  45.335  58.537  1.00  0.00     0.007 A 
HETATM   40  C   UNL     1      30.865  44.572  57.301  1.00  0.00     0.007 A 
ENDBRANCH  37  38
ENDBRANCH  36  37
ENDBRANCH   6  36
TORSDOF 9
ENDMDL
MODEL 8
REMARK VINA RESULT:      -9.4      1.926      2.980
REMARK  9 active torsions:
REMARK  status: ('A' for Active; 'I' for Inactive)
REMARK    1  A    between atoms: C_2  and  C_3 
REMARK    2  A    between atoms: C_3  and  C_4 
REMARK       I    between atoms: C_4  and  N_6 
REMARK    3  A    between atoms: N_6  and  C_7 
REMARK    4  A    between atoms: C_11  and  C_13 
REMARK    5  A    between atoms: C_15  and  N_16 
REMARK    6  A    between atoms: N_16  and  C_17 
REMARK    7  A    between atoms: C_29  and  O_30 
REMARK    8  A    between atoms: O_30  and  C_31 
REMARK    9  A    between atoms: C_31  and  C_32 
ROOT
HETATM    1  C   UNL     1      24.955  46.394  51.088  1.00  0.00     0.162 A 
HETATM    2  N   UNL     1      25.016  45.063  51.221  1.00  0.00    -0.210 NA
HETATM    3  C   UNL     1      25.755  44.562  52.225  1.00  0.00     0.143 A 
HETATM    4  C   UNL     1      26.430  45.393  53.132  1.00  0.00     0.041 A 
HETATM    5  C   UNL     1      27.206  44.943  54.231  1.00  0.00     0.054 A 
HETATM    6  C   UNL     1      27.826  45.842  55.097  1.00  0.00     0.069 A 
HETATM    7  C   UNL     1      27.706  47.202  54.848  1.00  0.00     0.039 A 
HETATM    8  C   UNL     1      26.955  47.646  53.752  1.00  0.00     0.035 A 
HETATM    9  C   UNL     1      26.309  46.767  52.892  1.00  0.00     0.073 A 
HETATM   10  N   UNL     1      25.595  47.269  51.879  1.00  0.00    -0.228 NA
ENDROOT
BRANCH   1  11
HETATM   11  C   UNL     1      24.082  46.921  50.028  1.00  0.00     0.014 A 
HETATM   12  C   UNL     1      23.876  48.306  49.890  1.00  0.00     0.015 A 
HETATM   13  C   UNL     1      23.069  48.820  48.877  1.00  0.00     0.003 A 
HETATM   14  C   UNL     1      22.434  47.957  47.985  1.00  0.00     0.029 A 
HETATM   15  C   UNL     1      22.597  46.576  48.101  1.00  0.00     0.035 A 
HETATM   16  C   UNL     1      23.425  46.072  49.116  1.00  0.00     0.044 A 
BRANCH  15  17
HETATM   17  N   UNL     1      21.942  45.641  47.272  1.00  0.00    -0.327 N 
HETATM   18  C   UNL     1      20.909  44.789  47.623  1.00  0.00     0.222 C 
HETATM   19  O   UNL     1      20.307  44.763  48.691  1.00  0.00    -0.273 OA
HETATM   20  H   UNL     1      22.261  45.601  46.312  1.00  0.00     0.169 HD
BRANCH  18  21
HETATM   21  C   UNL     1      20.579  43.788  46.532  1.00  0.00     0.103 C 
BRANCH  21  22
HETATM   22  C   UNL     1      19.365  44.256  45.736  1.00  0.00     0.005 C 
HETATM   23  C   UNL     1      19.765  44.824  44.386  1.00  0.00     0.005 C 
ENDBRANCH  21  22
ENDBRANCH  18  21
ENDBRANCH  15  17
ENDBRANCH   1  11
BRANCH   3  24
HETATM   24  N   UNL     1      25.826  43.152  52.378  1.00  0.00    -0.340 N 
HETATM   25  H   UNL     1      24.893  42.782  52.519  1.00  0.00     0.167 HD
BRANCH  24  26
HETATM   26  C   UNL     1      26.657  42.259  51.660  1.00  0.00     0.034 A 
HETATM   27  C   UNL     1      27.655  41.547  52.345  1.00  0.00     0.032 A 
HETATM   28  C   UNL     1      28.544  40.683  51.686  1.00  0.00     0.034 A 
HETATM   29  C   UNL     1      28.414  40.579  50.300  1.00  0.00     0.062 A 
HETATM   30  N   UNL     1      29.103  39.848  49.368  1.00  0.00    -0.278 N 
HETATM   31  C   UNL     1      27.465  41.289  49.579  1.00  0.00     0.013 A 
HETATM   32  H   UNL     1      29.871  39.209  49.528  1.00  0.00     0.189 HD
HETATM   33  N   UNL     1      28.684  40.036  48.102  1.00  0.00    -0.186 NA
HETATM   34  C   UNL     1      27.685  40.913  48.235  1.00  0.00     0.152 A 
HETATM   35  C   UNL     1      26.583  42.147  50.260  1.00  0.00     0.044 A 
ENDBRANCH  24  26
ENDBRANCH   3  24
BRANCH   6  36
HETATM   36  O   UNL     1      28.510  45.265  56.129  1.00  0.00    -0.351 OA
BRANCH  36  37
HETATM   37  C   UNL     1      29.838  45.730  56.371  1.00  0.00     0.180 C 
BRANCH  37  38
HETATM   38  C   UNL     1      30.791  44.722  55.804  1.00  0.00     0.010 A 
HETATM   39  C   UNL     1      31.321  43.601  56.661  1.00  0.00     0.007 A 
HETATM   40  C   UNL     1      30.346  43.304  55.554  1.00  0.00     0.007 A 
ENDBRANCH  37  38
ENDBRANCH  36  37
ENDBRANCH   6  36
TORSDOF 9
ENDMDL
MODEL 9
REMARK VINA RESULT:      -9.2      2.964      7.796
REMARK  9 active torsions:
REMARK  status: ('A' for Active; 'I' for Inactive)
REMARK    1  A    between atoms: C_2  and  C_3 
REMARK    2  A    between atoms: C_3  and  C_4 
REMARK       I    between atoms: C_4  and  N_6 
REMARK    3  A    between atoms: N_6  and  C_7 
REMARK    4  A    between atoms: C_11  and  C_13 
REMARK    5  A    between atoms: C_15  and  N_16 
REMARK    6  A    between atoms: N_16  and  C_17 
REMARK    7  A    between atoms: C_29  and  O_30 
REMARK    8  A    between atoms: O_30  and  C_31 
REMARK    9  A    between atoms: C_31  and  C_32 
ROOT
HETATM    1  C   UNL     1      28.465  41.106  51.588  1.00  0.00     0.162 A 
HETATM    2  N   UNL     1      27.281  41.732  51.628  1.00  0.00    -0.210 NA
HETATM    3  C   UNL     1      27.128  42.736  52.507  1.00  0.00     0.143 A 
HETATM    4  C   UNL     1      28.172  43.146  53.350  1.00  0.00     0.041 A 
HETATM    5  C   UNL     1      28.098  44.211  54.284  1.00  0.00     0.054 A 
HETATM    6  C   UNL     1      29.195  44.566  55.069  1.00  0.00     0.069 A 
HETATM    7  C   UNL     1      30.366  43.831  54.952  1.00  0.00     0.039 A 
HETATM    8  C   UNL     1      30.433  42.767  54.043  1.00  0.00     0.035 A 
HETATM    9  C   UNL     1      29.360  42.414  53.235  1.00  0.00     0.073 A 
HETATM   10  N   UNL     1      29.509  41.398  52.378  1.00  0.00    -0.228 NA
ENDROOT
BRANCH   1  11
HETATM   11  C   UNL     1      28.634  40.060  50.567  1.00  0.00     0.014 A 
HETATM   12  C   UNL     1      29.147  38.797  50.913  1.00  0.00     0.015 A 
HETATM   13  C   UNL     1      29.291  37.790  49.960  1.00  0.00     0.003 A 
HETATM   14  C   UNL     1      28.940  38.029  48.631  1.00  0.00     0.029 A 
HETATM   15  C   UNL     1      28.446  39.276  48.246  1.00  0.00     0.035 A 
HETATM   16  C   UNL     1      28.290  40.277  49.218  1.00  0.00     0.044 A 
BRANCH  15  17
HETATM   17  N   UNL     1      28.123  39.608  46.914  1.00  0.00    -0.327 N 
HETATM   18  C   UNL     1      27.031  39.171  46.183  1.00  0.00     0.222 C 
HETATM   19  O   UNL     1      26.094  38.495  46.592  1.00  0.00    -0.273 OA
HETATM   20  H   UNL     1      28.757  40.246  46.450  1.00  0.00     0.169 HD
BRANCH  18  21
HETATM   21  C   UNL     1      27.103  39.577  44.723  1.00  0.00     0.103 C 
BRANCH  21  22
HETATM   22  C   UNL     1      28.535  39.460  44.212  1.00  0.00     0.005 C 
HETATM   23  C   UNL     1      29.015  40.756  43.584  1.00  0.00     0.005 C 
ENDBRANCH  21  22
ENDBRANCH  18  21
ENDBRANCH  15  17
ENDBRANCH   1  11
BRANCH   3  24
HETATM   24  N   UNL     1      25.879  43.410  52.559  1.00  0.00    -0.340 N 
HETATM   25  H   UNL     1      25.601  43.528  53.527  1.00  0.00     0.167 HD
BRANCH  24  26
HETATM   26  C   UNL     1      25.460  44.489  51.743  1.00  0.00     0.034 A 
HETATM   27  C   UNL     1      24.281  44.363  50.991  1.00  0.00     0.032 A 
HETATM   28  C   UNL     1      23.835  45.374  50.126  1.00  0.00     0.034 A 
HETATM   29  C   UNL     1      24.634  46.514  50.019  1.00  0.00     0.062 A 
HETATM   30  N   UNL     1      24.501  47.661  49.281  1.00  0.00    -0.278 N 
HETATM   31  C   UNL     1      25.824  46.666  50.717  1.00  0.00     0.013 A 
HETATM   32  H   UNL     1      23.749  47.905  48.649  1.00  0.00     0.189 HD
HETATM   33  N   UNL     1      25.511  48.537  49.437  1.00  0.00    -0.186 NA
HETATM   34  C   UNL     1      26.314  47.927  50.314  1.00  0.00     0.152 A 
HETATM   35  C   UNL     1      26.250  45.641  51.581  1.00  0.00     0.044 A 
ENDBRANCH  24  26
ENDBRANCH   3  24
BRANCH   6  36
HETATM   36  O   UNL     1      28.986  45.632  55.897  1.00  0.00    -0.351 OA
BRANCH  36  37
HETATM   37  C   UNL     1      27.645  46.098  56.032  1.00  0.00     0.180 C 
BRANCH  37  38
HETATM   38  C   UNL     1      27.532  47.401  55.299  1.00  0.00     0.010 A 
HETATM   39  C   UNL     1      26.317  47.708  54.462  1.00  0.00     0.007 A 
HETATM   40  C   UNL     1      26.550  48.450  55.750  1.00  0.00     0.007 A 
ENDBRANCH  37  38
ENDBRANCH  36  37
ENDBRANCH   6  36
TORSDOF 9
ENDMDL
MODEL 10
REMARK VINA RESULT:      -9.1      2.658      5.825
REMARK  9 active torsions:
REMARK  status: ('A' for Active; 'I' for Inactive)
REMARK    1  A    between atoms: C_2  and  C_3 
REMARK    2  A    between atoms: C_3  and  C_4 
REMARK       I    between atoms: C_4  and  N_6 
REMARK    3  A    between atoms: N_6  and  C_7 
REMARK    4  A    between atoms: C_11  and  C_13 
REMARK    5  A    between atoms: C_15  and  N_16 
REMARK    6  A    between atoms: N_16  and  C_17 
REMARK    7  A    between atoms: C_29  and  O_30 
REMARK    8  A    between atoms: O_30  and  C_31 
REMARK    9  A    between atoms: C_31  and  C_32 
ROOT
HETATM    1  C   UNL     1      25.453  42.643  49.919  1.00  0.00     0.162 A 
HETATM    2  N   UNL     1      25.553  43.954  50.176  1.00  0.00    -0.210 NA
HETATM    3  C   UNL     1      26.493  44.356  51.048  1.00  0.00     0.143 A 
HETATM    4  C   UNL     1      27.368  43.447  51.663  1.00  0.00     0.041 A 
HETATM    5  C   UNL     1      28.400  43.794  52.572  1.00  0.00     0.054 A 
HETATM    6  C   UNL     1      29.240  42.826  53.120  1.00  0.00     0.069 A 
HETATM    7  C   UNL     1      29.028  41.494  52.792  1.00  0.00     0.039 A 
HETATM    8  C   UNL     1      27.996  41.149  51.910  1.00  0.00     0.035 A 
HETATM    9  C   UNL     1      27.165  42.102  51.334  1.00  0.00     0.073 A 
HETATM   10  N   UNL     1      26.216  41.695  50.485  1.00  0.00    -0.228 NA
ENDROOT
BRANCH   1  11
HETATM   11  C   UNL     1      24.468  42.233  48.907  1.00  0.00     0.014 A 
HETATM   12  C   UNL     1      24.516  40.948  48.338  1.00  0.00     0.015 A 
HETATM   13  C   UNL     1      23.575  40.540  47.394  1.00  0.00     0.003 A 
HETATM   14  C   UNL     1      22.570  41.416  46.984  1.00  0.00     0.029 A 
HETATM   15  C   UNL     1      22.502  42.706  47.510  1.00  0.00     0.035 A 
HETATM   16  C   UNL     1      23.445  43.100  48.472  1.00  0.00     0.044 A 
BRANCH  15  17
HETATM   17  N   UNL     1      21.550  43.665  47.103  1.00  0.00    -0.327 N 
HETATM   18  C   UNL     1      21.762  44.760  46.283  1.00  0.00     0.222 C 
HETATM   19  O   UNL     1      22.792  45.039  45.680  1.00  0.00    -0.273 OA
HETATM   20  H   UNL     1      20.607  43.524  47.443  1.00  0.00     0.169 HD
BRANCH  18  21
HETATM   21  C   UNL     1      20.559  45.680  46.212  1.00  0.00     0.103 C 
BRANCH  21  22
HETATM   22  C   UNL     1      20.876  47.016  46.876  1.00  0.00     0.005 C 
HETATM   23  C   UNL     1      20.656  46.962  48.378  1.00  0.00     0.005 C 
ENDBRANCH  21  22
ENDBRANCH  18  21
ENDBRANCH  15  17
ENDBRANCH   1  11
BRANCH   3  24
HETATM   24  N   UNL     1      26.612  45.743  51.328  1.00  0.00    -0.340 N 
HETATM   25  H   UNL     1      27.558  45.944  51.632  1.00  0.00     0.167 HD
BRANCH  24  26
HETATM   26  C   UNL     1      26.044  46.811  50.592  1.00  0.00     0.034 A 
HETATM   27  C   UNL     1      24.646  46.936  50.530  1.00  0.00     0.032 A 
HETATM   28  C   UNL     1      24.018  47.942  49.779  1.00  0.00     0.034 A 
HETATM   29  C   UNL     1      24.847  48.809  49.065  1.00  0.00     0.062 A 
HETATM   30  N   UNL     1      24.572  49.874  48.247  1.00  0.00    -0.278 N 
HETATM   31  C   UNL     1      26.230  48.702  49.071  1.00  0.00     0.013 A 
HETATM   32  H   UNL     1      23.663  50.249  48.007  1.00  0.00     0.189 HD
HETATM   33  N   UNL     1      25.663  50.457  47.716  1.00  0.00    -0.186 NA
HETATM   34  C   UNL     1      26.672  49.741  48.222  1.00  0.00     0.152 A 
HETATM   35  C   UNL     1      26.838  47.688  49.832  1.00  0.00     0.044 A 
ENDBRANCH  24  26
ENDBRANCH   3  24
BRANCH   6  36
HETATM   36  O   UNL     1      30.209  43.311  53.951  1.00  0.00    -0.351 OA
BRANCH  36  37
HETATM   37  C   UNL     1      29.777  44.030  55.105  1.00  0.00     0.180 C 
BRANCH  37  38
HETATM   38  C   UNL     1      30.983  44.322  55.946  1.00  0.00     0.010 A 
HETATM   39  C   UNL     1      30.879  44.363  57.449  1.00  0.00     0.007 A 
HETATM   40  C   UNL     1      31.617  43.237  56.777  1.00  0.00     0.007 A 
ENDBRANCH  37  38
ENDBRANCH  36  37
ENDBRANCH   6  36
TORSDOF 9
ENDMDL
