MODEL 1
REMARK VINA RESULT:      -9.6      0.000      0.000
REMARK  5 active torsions:
REMARK  status: ('A' for Active; 'I' for Inactive)
REMARK    1  A    between atoms: C_2  and  C_3 
REMARK    2  A    between atoms: C_3  and  C_4 
REMARK    3  A    between atoms: C_8  and  N_9 
REMARK       I    between atoms: N_9  and  C_10 
REMARK    4  A    between atoms: C_10  and  C_11 
REMARK    5  A    between atoms: N_13  and  C_14 
ROOT
HETATM    1  C   UNL     1      25.491  45.466  50.860  1.00  0.00     0.106 C 
HETATM    2  C   UNL     1      26.224  46.406  51.789  1.00  0.00     0.148 C 
HETATM    3  N   UNL     1      26.250  45.706  53.047  1.00  0.00    -0.299 N 
HETATM    4  C   UNL     1      25.242  44.729  53.107  1.00  0.00     0.226 C 
HETATM    5  O   UNL     1      24.928  43.979  54.018  1.00  0.00    -0.273 OA
HETATM    6  C   UNL     1      24.541  44.705  51.769  1.00  0.00     0.119 C 
ENDROOT
BRANCH   1   7
HETATM    7  C   UNL     1      26.442  44.545  50.096  1.00  0.00     0.242 C 
HETATM    8  N   UNL     1      26.101  43.205  50.119  1.00  0.00    -0.156 N 
HETATM    9  H   UNL     1      25.300  42.883  50.647  1.00  0.00     0.187 HD
HETATM   10  O   UNL     1      27.421  45.041  49.543  1.00  0.00    -0.272 OA
BRANCH   8  11
HETATM   11  C   UNL     1      26.834  42.258  49.444  1.00  0.00     0.725 A 
HETATM   12  N   UNL     1      26.846  42.189  48.075  1.00  0.00    -0.106 N 
HETATM   13  N   UNL     1      27.622  41.185  47.634  1.00  0.00    -0.144 NA
HETATM   14  H   UNL     1      26.366  42.775  47.404  1.00  0.00     0.208 HD
HETATM   15  C   UNL     1      28.073  40.680  48.789  1.00  0.00     0.166 A 
HETATM   16  N   UNL     1      27.612  41.313  49.911  1.00  0.00    -0.046 NA
BRANCH  15  17
HETATM   17  C   UNL     1      29.013  39.529  48.860  1.00  0.00     0.087 C 
BRANCH  17  18
HETATM   18  C   UNL     1      28.710  38.560  50.017  1.00  0.00    -0.016 C 
HETATM   19  C   UNL     1      29.982  37.912  50.571  1.00  0.00     0.010 C 
HETATM   20  C   UNL     1      27.742  37.473  49.544  1.00  0.00     0.010 C 
ENDBRANCH  17  18
ENDBRANCH  15  17
ENDBRANCH   8  11
ENDBRANCH   1   7
BRANCH   3  21
HETATM   21  C   UNL     1      27.112  45.973  54.108  1.00  0.00     0.165 A 
HETATM   22  N   UNL     1      26.970  47.056  54.880  1.00  0.00    -0.155 NA
HETATM   23  N   UNL     1      27.968  46.986  55.765  1.00  0.00    -0.275 N 
HETATM   24  H   UNL     1      28.070  47.745  56.430  1.00  0.00     0.189 HD
HETATM   25  C   UNL     1      28.730  45.860  55.660  1.00  0.00     0.065 A 
HETATM   26  C   UNL     1      28.201  45.161  54.578  1.00  0.00     0.040 A 
HETATM   27  C   UNL     1      29.828  45.418  56.409  1.00  0.00     0.051 A 
HETATM   28  C   UNL     1      28.820  43.945  54.212  1.00  0.00     0.019 A 
HETATM   29  C   UNL     1      29.919  43.477  54.948  1.00  0.00     0.020 A 
HETATM   30  C   UNL     1      30.408  44.206  56.028  1.00  0.00     0.013 A 
HETATM   31 BR   UNL     1      31.895  43.551  56.997  1.00  0.00    -0.051 Br
ENDBRANCH   3  21
TORSDOF 5
ENDMDL
MODEL 2
REMARK VINA RESULT:      -9.3      4.472      7.427
REMARK  5 active torsions:
REMARK  status: ('A' for Active; 'I' for Inactive)
REMARK    1  A    between atoms: C_2  and  C_3 
REMARK    2  A    between atoms: C_3  and  C_4 
REMARK    3  A    between atoms: C_8  and  N_9 
REMARK       I    between atoms: N_9  and  C_10 
REMARK    4  A    between atoms: C_10  and  C_11 
REMARK    5  A    between atoms: N_13  and  C_14 
ROOT
HETATM    1  C   UNL     1      24.370  45.200  50.502  1.00  0.00     0.106 C 
HETATM    2  C   UNL     1      24.743  45.104  51.964  1.00  0.00     0.148 C 
HETATM    3  N   UNL     1      26.177  45.239  51.969  1.00  0.00    -0.299 N 
HETATM    4  C   UNL     1      26.722  44.926  50.713  1.00  0.00     0.226 C 
HETATM    5  O   UNL     1      27.887  44.881  50.351  1.00  0.00    -0.273 OA
HETATM    6  C   UNL     1      25.578  44.642  49.769  1.00  0.00     0.119 C 
ENDROOT
BRANCH   1   7
HETATM    7  C   UNL     1      24.033  46.631  50.082  1.00  0.00     0.242 C 
HETATM    8  N   UNL     1      23.080  46.737  49.085  1.00  0.00    -0.156 N 
HETATM    9  H   UNL     1      22.686  45.910  48.654  1.00  0.00     0.187 HD
HETATM   10  O   UNL     1      24.621  47.558  50.632  1.00  0.00    -0.272 OA
BRANCH   8  11
HETATM   11  C   UNL     1      22.640  47.957  48.629  1.00  0.00     0.725 A 
HETATM   12  N   UNL     1      23.509  48.952  48.264  1.00  0.00    -0.106 N 
HETATM   13  N   UNL     1      22.860  50.056  47.858  1.00  0.00    -0.144 NA
HETATM   14  H   UNL     1      24.521  48.946  48.266  1.00  0.00     0.208 HD
HETATM   15  C   UNL     1      21.585  49.668  47.985  1.00  0.00     0.166 A 
HETATM   16  N   UNL     1      21.418  48.393  48.452  1.00  0.00    -0.046 NA
BRANCH  15  17
HETATM   17  C   UNL     1      20.431  50.540  47.637  1.00  0.00     0.087 C 
BRANCH  17  18
HETATM   18  C   UNL     1      20.221  51.703  48.624  1.00  0.00    -0.016 C 
HETATM   19  C   UNL     1      20.140  51.217  50.073  1.00  0.00     0.010 C 
HETATM   20  C   UNL     1      18.944  52.465  48.264  1.00  0.00     0.010 C 
ENDBRANCH  17  18
ENDBRANCH  15  17
ENDBRANCH   8  11
ENDBRANCH   1   7
BRANCH   3  21
HETATM   21  C   UNL     1      26.956  45.582  53.071  1.00  0.00     0.165 A 
HETATM   22  N   UNL     1      26.795  46.739  53.719  1.00  0.00    -0.155 NA
HETATM   23  N   UNL     1      27.711  46.725  54.692  1.00  0.00    -0.275 N 
HETATM   24  H   UNL     1      27.789  47.543  55.288  1.00  0.00     0.189 HD
HETATM   25  C   UNL     1      28.432  45.569  54.763  1.00  0.00     0.065 A 
HETATM   26  C   UNL     1      27.967  44.784  53.710  1.00  0.00     0.040 A 
HETATM   27  C   UNL     1      29.443  45.167  55.645  1.00  0.00     0.051 A 
HETATM   28  C   UNL     1      28.563  43.518  53.519  1.00  0.00     0.019 A 
HETATM   29  C   UNL     1      29.576  43.089  54.390  1.00  0.00     0.020 A 
HETATM   30  C   UNL     1      30.002  43.905  55.434  1.00  0.00     0.013 A 
HETATM   31 BR   UNL     1      31.374  43.300  56.589  1.00  0.00    -0.051 Br
ENDBRANCH   3  21
TORSDOF 5
ENDMDL
MODEL 3
REMARK VINA RESULT:      -8.9      3.755      6.774
REMARK  5 active torsions:
REMARK  status: ('A' for Active; 'I' for Inactive)
REMARK    1  A    between atoms: C_2  and  C_3 
REMARK    2  A    between atoms: C_3  and  C_4 
REMARK    3  A    between atoms: C_8  and  N_9 
REMARK       I    between atoms: N_9  and  C_10 
REMARK    4  A    between atoms: C_10  and  C_11 
REMARK    5  A    between atoms: N_13  and  C_14 
ROOT
HETATM    1  C   UNL     1      24.705  43.269  50.045  1.00  0.00     0.106 C 
HETATM    2  C   UNL     1      25.259  43.198  51.450  1.00  0.00     0.148 C 
HETATM    3  N   UNL     1      26.330  44.162  51.453  1.00  0.00    -0.299 N 
HETATM    4  C   UNL     1      26.778  44.429  50.148  1.00  0.00     0.226 C 
HETATM    5  O   UNL     1      27.688  45.145  49.761  1.00  0.00    -0.273 OA
HETATM    6  C   UNL     1      25.898  43.661  49.191  1.00  0.00     0.119 C 
ENDROOT
BRANCH   1   7
HETATM    7  C   UNL     1      23.544  44.256  49.929  1.00  0.00     0.242 C 
HETATM    8  N   UNL     1      23.720  45.256  48.989  1.00  0.00    -0.156 N 
HETATM    9  H   UNL     1      24.583  45.328  48.464  1.00  0.00     0.187 HD
HETATM   10  O   UNL     1      22.570  44.107  50.663  1.00  0.00    -0.272 OA
BRANCH   8  11
HETATM   11  C   UNL     1      22.748  46.194  48.738  1.00  0.00     0.725 A 
HETATM   12  N   UNL     1      21.414  45.917  48.888  1.00  0.00    -0.106 N 
HETATM   13  N   UNL     1      20.648  46.976  48.580  1.00  0.00    -0.144 NA
HETATM   14  H   UNL     1      20.973  45.057  49.187  1.00  0.00     0.208 HD
HETATM   15  C   UNL     1      21.577  47.884  48.259  1.00  0.00     0.166 A 
HETATM   16  N   UNL     1      22.868  47.438  48.346  1.00  0.00    -0.046 NA
BRANCH  15  17
HETATM   17  C   UNL     1      21.247  49.276  47.851  1.00  0.00     0.087 C 
BRANCH  17  18
HETATM   18  C   UNL     1      21.534  50.320  48.946  1.00  0.00    -0.016 C 
HETATM   19  C   UNL     1      20.412  51.357  49.057  1.00  0.00     0.010 C 
HETATM   20  C   UNL     1      22.860  51.027  48.656  1.00  0.00     0.010 C 
ENDBRANCH  17  18
ENDBRANCH  15  17
ENDBRANCH   8  11
ENDBRANCH   1   7
BRANCH   3  21
HETATM   21  C   UNL     1      26.905  44.733  52.585  1.00  0.00     0.165 A 
HETATM   22  N   UNL     1      26.428  45.857  53.130  1.00  0.00    -0.155 NA
HETATM   23  N   UNL     1      27.228  46.106  54.171  1.00  0.00    -0.275 N 
HETATM   24  H   UNL     1      27.064  46.951  54.709  1.00  0.00     0.189 HD
HETATM   25  C   UNL     1      28.180  45.152  54.385  1.00  0.00     0.065 A 
HETATM   26  C   UNL     1      28.004  44.225  53.360  1.00  0.00     0.040 A 
HETATM   27  C   UNL     1      29.167  45.042  55.372  1.00  0.00     0.051 A 
HETATM   28  C   UNL     1      28.884  43.121  53.311  1.00  0.00     0.019 A 
HETATM   29  C   UNL     1      29.880  42.985  54.290  1.00  0.00     0.020 A 
HETATM   30  C   UNL     1      30.012  43.932  55.301  1.00  0.00     0.013 A 
HETATM   31 BR   UNL     1      31.369  43.722  56.603  1.00  0.00    -0.051 Br
ENDBRANCH   3  21
TORSDOF 5
ENDMDL
MODEL 4
REMARK VINA RESULT:      -8.9      4.008      7.358
REMARK  5 active torsions:
REMARK  status: ('A' for Active; 'I' for Inactive)
REMARK    1  A    between atoms: C_2  and  C_3 
REMARK    2  A    between atoms: C_3  and  C_4 
REMARK    3  A    between atoms: C_8  and  N_9 
REMARK       I    between atoms: N_9  and  C_10 
REMARK    4  A    between atoms: C_10  and  C_11 
REMARK    5  A    between atoms: N_13  and  C_14 
ROOT
HETATM    1  C   UNL     1      24.112  44.039  50.318  1.00  0.00     0.106 C 
HETATM    2  C   UNL     1      24.757  43.402  51.528  1.00  0.00     0.148 C 
HETATM    3  N   UNL     1      26.109  43.141  51.106  1.00  0.00    -0.299 N 
HETATM    4  C   UNL     1      26.207  43.096  49.705  1.00  0.00     0.226 C 
HETATM    5  O   UNL     1      27.168  42.855  48.992  1.00  0.00    -0.273 OA
HETATM    6  C   UNL     1      24.849  43.432  49.137  1.00  0.00     0.119 C 
ENDROOT
BRANCH   1   7
HETATM    7  C   UNL     1      24.200  45.564  50.350  1.00  0.00     0.242 C 
HETATM    8  N   UNL     1      23.480  46.211  49.361  1.00  0.00    -0.156 N 
HETATM    9  H   UNL     1      22.978  45.685  48.657  1.00  0.00     0.187 HD
HETATM   10  O   UNL     1      24.892  46.095  51.215  1.00  0.00    -0.272 OA
BRANCH   8  11
HETATM   11  C   UNL     1      23.425  47.582  49.282  1.00  0.00     0.725 A 
HETATM   12  N   UNL     1      24.556  48.357  49.308  1.00  0.00    -0.106 N 
HETATM   13  N   UNL     1      24.265  49.665  49.226  1.00  0.00    -0.144 NA
HETATM   14  H   UNL     1      25.524  48.069  49.376  1.00  0.00     0.208 HD
HETATM   15  C   UNL     1      22.930  49.629  49.138  1.00  0.00     0.166 A 
HETATM   16  N   UNL     1      22.388  48.373  49.169  1.00  0.00    -0.046 NA
BRANCH  15  17
HETATM   17  C   UNL     1      22.090  50.850  49.004  1.00  0.00     0.087 C 
BRANCH  17  18
HETATM   18  C   UNL     1      20.595  50.546  48.799  1.00  0.00    -0.016 C 
HETATM   19  C   UNL     1      20.208  50.542  47.317  1.00  0.00     0.010 C 
HETATM   20  C   UNL     1      19.748  51.576  49.549  1.00  0.00     0.010 C 
ENDBRANCH  17  18
ENDBRANCH  15  17
ENDBRANCH   8  11
ENDBRANCH   1   7
BRANCH   3  21
HETATM   21  C   UNL     1      27.192  42.907  51.950  1.00  0.00     0.165 A 
HETATM   22  N   UNL     1      27.960  41.819  51.830  1.00  0.00    -0.155 NA
HETATM   23  N   UNL     1      28.871  41.927  52.802  1.00  0.00    -0.275 N 
HETATM   24  H   UNL     1      29.538  41.171  52.917  1.00  0.00     0.189 HD
HETATM   25  C   UNL     1      28.786  43.082  53.522  1.00  0.00     0.065 A 
HETATM   26  C   UNL     1      27.690  43.761  52.994  1.00  0.00     0.040 A 
HETATM   27  C   UNL     1      29.564  43.565  54.582  1.00  0.00     0.051 A 
HETATM   28  C   UNL     1      27.341  45.001  53.574  1.00  0.00     0.019 A 
HETATM   29  C   UNL     1      28.105  45.510  54.634  1.00  0.00     0.020 A 
HETATM   30  C   UNL     1      29.197  44.799  55.123  1.00  0.00     0.013 A 
HETATM   31 BR   UNL     1      30.205  45.511  56.558  1.00  0.00    -0.051 Br
ENDBRANCH   3  21
TORSDOF 5
ENDMDL
MODEL 5
REMARK VINA RESULT:      -8.7      1.581      2.099
REMARK  5 active torsions:
REMARK  status: ('A' for Active; 'I' for Inactive)
REMARK    1  A    between atoms: C_2  and  C_3 
REMARK    2  A    between atoms: C_3  and  C_4 
REMARK    3  A    between atoms: C_8  and  N_9 
REMARK       I    between atoms: N_9  and  C_10 
REMARK    4  A    between atoms: C_10  and  C_11 
REMARK    5  A    between atoms: N_13  and  C_14 
ROOT
HETATM    1  C   UNL     1      26.129  43.765  50.435  1.00  0.00     0.106 C 
HETATM    2  C   UNL     1      27.049  44.770  51.090  1.00  0.00     0.148 C 
HETATM    3  N   UNL     1      26.648  44.763  52.473  1.00  0.00    -0.299 N 
HETATM    4  C   UNL     1      25.342  44.267  52.622  1.00  0.00     0.226 C 
HETATM    5  O   UNL     1      24.654  44.155  53.624  1.00  0.00    -0.273 OA
HETATM    6  C   UNL     1      24.856  43.828  51.261  1.00  0.00     0.119 C 
ENDROOT
BRANCH   1   7
HETATM    7  C   UNL     1      26.737  42.363  50.393  1.00  0.00     0.242 C 
HETATM    8  N   UNL     1      27.224  41.974  49.158  1.00  0.00    -0.156 N 
HETATM    9  H   UNL     1      27.129  42.578  48.351  1.00  0.00     0.187 HD
HETATM   10  O   UNL     1      26.741  41.694  51.424  1.00  0.00    -0.272 OA
BRANCH   8  11
HETATM   11  C   UNL     1      27.838  40.760  48.969  1.00  0.00     0.725 A 
HETATM   12  N   UNL     1      28.705  40.234  49.891  1.00  0.00    -0.106 N 
HETATM   13  N   UNL     1      29.191  39.045  49.497  1.00  0.00    -0.144 NA
HETATM   14  H   UNL     1      29.001  40.618  50.779  1.00  0.00     0.208 HD
HETATM   15  C   UNL     1      28.568  38.888  48.322  1.00  0.00     0.166 A 
HETATM   16  N   UNL     1      27.735  39.916  47.973  1.00  0.00    -0.046 NA
BRANCH  15  17
HETATM   17  C   UNL     1      28.747  37.688  47.461  1.00  0.00     0.087 C 
BRANCH  17  18
HETATM   18  C   UNL     1      27.424  36.986  47.104  1.00  0.00    -0.016 C 
HETATM   19  C   UNL     1      26.708  36.447  48.346  1.00  0.00     0.010 C 
HETATM   20  C   UNL     1      27.690  35.840  46.127  1.00  0.00     0.010 C 
ENDBRANCH  17  18
ENDBRANCH  15  17
ENDBRANCH   8  11
ENDBRANCH   1   7
BRANCH   3  21
HETATM   21  C   UNL     1      27.409  45.229  53.542  1.00  0.00     0.165 A 
HETATM   22  N   UNL     1      27.178  46.417  54.110  1.00  0.00    -0.155 NA
HETATM   23  N   UNL     1      28.097  46.528  55.073  1.00  0.00    -0.275 N 
HETATM   24  H   UNL     1      28.125  47.389  55.610  1.00  0.00     0.189 HD
HETATM   25  C   UNL     1      28.890  45.428  55.218  1.00  0.00     0.065 A 
HETATM   26  C   UNL     1      28.471  44.544  54.226  1.00  0.00     0.040 A 
HETATM   27  C   UNL     1      29.929  45.153  56.117  1.00  0.00     0.051 A 
HETATM   28  C   UNL     1      29.146  43.307  54.117  1.00  0.00     0.019 A 
HETATM   29  C   UNL     1      30.187  43.005  55.007  1.00  0.00     0.020 A 
HETATM   30  C   UNL     1      30.565  43.917  55.989  1.00  0.00     0.013 A 
HETATM   31 BR   UNL     1      31.978  43.481  57.171  1.00  0.00    -0.051 Br
ENDBRANCH   3  21
TORSDOF 5
ENDMDL
MODEL 6
REMARK VINA RESULT:      -8.3      1.732      2.231
REMARK  5 active torsions:
REMARK  status: ('A' for Active; 'I' for Inactive)
REMARK    1  A    between atoms: C_2  and  C_3 
REMARK    2  A    between atoms: C_3  and  C_4 
REMARK    3  A    between atoms: C_8  and  N_9 
REMARK       I    between atoms: N_9  and  C_10 
REMARK    4  A    between atoms: C_10  and  C_11 
REMARK    5  A    between atoms: N_13  and  C_14 
ROOT
HETATM    1  C   UNL     1      25.508  44.800  50.246  1.00  0.00     0.106 C 
HETATM    2  C   UNL     1      26.866  45.075  50.851  1.00  0.00     0.148 C 
HETATM    3  N   UNL     1      26.777  44.522  52.178  1.00  0.00    -0.299 N 
HETATM    4  C   UNL     1      25.439  44.397  52.589  1.00  0.00     0.226 C 
HETATM    5  O   UNL     1      24.976  44.018  53.653  1.00  0.00    -0.273 OA
HETATM    6  C   UNL     1      24.560  44.812  51.433  1.00  0.00     0.119 C 
ENDROOT
BRANCH   1   7
HETATM    7  C   UNL     1      25.474  43.481  49.475  1.00  0.00     0.242 C 
HETATM    8  N   UNL     1      26.711  42.996  49.092  1.00  0.00    -0.156 N 
HETATM    9  H   UNL     1      27.556  43.520  49.285  1.00  0.00     0.187 HD
HETATM   10  O   UNL     1      24.383  42.965  49.242  1.00  0.00    -0.272 OA
BRANCH   8  11
HETATM   11  C   UNL     1      26.849  41.801  48.429  1.00  0.00     0.725 A 
HETATM   12  N   UNL     1      25.915  41.358  47.528  1.00  0.00    -0.106 N 
HETATM   13  N   UNL     1      26.249  40.166  47.008  1.00  0.00    -0.144 NA
HETATM   14  H   UNL     1      25.057  41.805  47.230  1.00  0.00     0.208 HD
HETATM   15  C   UNL     1      27.415  39.933  47.624  1.00  0.00     0.166 A 
HETATM   16  N   UNL     1      27.808  40.912  48.496  1.00  0.00    -0.046 NA
BRANCH  15  17
HETATM   17  C   UNL     1      28.235  38.716  47.379  1.00  0.00     0.087 C 
BRANCH  17  18
HETATM   18  C   UNL     1      28.271  37.749  48.576  1.00  0.00    -0.016 C 
HETATM   19  C   UNL     1      26.956  37.760  49.361  1.00  0.00     0.010 C 
HETATM   20  C   UNL     1      29.429  38.116  49.506  1.00  0.00     0.010 C 
ENDBRANCH  17  18
ENDBRANCH  15  17
ENDBRANCH   8  11
ENDBRANCH   1   7
BRANCH   3  21
HETATM   21  C   UNL     1      27.855  44.194  52.996  1.00  0.00     0.165 A 
HETATM   22  N   UNL     1      28.697  43.201  52.692  1.00  0.00    -0.155 NA
HETATM   23  N   UNL     1      29.578  43.172  53.696  1.00  0.00    -0.275 N 
HETATM   24  H   UNL     1      30.293  42.451  53.683  1.00  0.00     0.189 HD
HETATM   25  C   UNL     1      29.401  44.155  54.624  1.00  0.00     0.065 A 
HETATM   26  C   UNL     1      28.273  44.855  54.202  1.00  0.00     0.040 A 
HETATM   27  C   UNL     1      30.122  44.468  55.783  1.00  0.00     0.051 A 
HETATM   28  C   UNL     1      27.828  45.932  55.001  1.00  0.00     0.019 A 
HETATM   29  C   UNL     1      28.534  46.270  56.165  1.00  0.00     0.020 A 
HETATM   30  C   UNL     1      29.662  45.546  56.542  1.00  0.00     0.013 A 
HETATM   31 BR   UNL     1      30.589  46.023  58.122  1.00  0.00    -0.051 Br
ENDBRANCH   3  21
TORSDOF 5
ENDMDL
MODEL 7
REMARK VINA RESULT:      -8.2      4.374      8.101
REMARK  5 active torsions:
REMARK  status: ('A' for Active; 'I' for Inactive)
REMARK    1  A    between atoms: C_2  and  C_3 
REMARK    2  A    between atoms: C_3  and  C_4 
REMARK    3  A    between atoms: C_8  and  N_9 
REMARK       I    between atoms: N_9  and  C_10 
REMARK    4  A    between atoms: C_10  and  C_11 
REMARK    5  A    between atoms: N_13  and  C_14 
ROOT
HETATM    1  C   UNL     1      26.058  46.023  51.510  1.00  0.00     0.106 C 
HETATM    2  C   UNL     1      27.108  44.986  51.178  1.00  0.00     0.148 C 
HETATM    3  N   UNL     1      26.345  43.819  50.818  1.00  0.00    -0.299 N 
HETATM    4  C   UNL     1      25.044  43.878  51.343  1.00  0.00     0.226 C 
HETATM    5  O   UNL     1      24.136  43.063  51.289  1.00  0.00    -0.273 OA
HETATM    6  C   UNL     1      24.884  45.213  52.032  1.00  0.00     0.119 C 
ENDROOT
BRANCH   1   7
HETATM    7  C   UNL     1      25.691  46.884  50.302  1.00  0.00     0.242 C 
HETATM    8  N   UNL     1      24.510  47.593  50.427  1.00  0.00    -0.156 N 
HETATM    9  H   UNL     1      23.931  47.493  51.251  1.00  0.00     0.187 HD
HETATM   10  O   UNL     1      26.440  46.878  49.327  1.00  0.00    -0.272 OA
BRANCH   8  11
HETATM   11  C   UNL     1      24.067  48.444  49.443  1.00  0.00     0.725 A 
HETATM   12  N   UNL     1      24.932  49.132  48.634  1.00  0.00    -0.106 N 
HETATM   13  N   UNL     1      24.281  49.908  47.752  1.00  0.00    -0.144 NA
HETATM   14  H   UNL     1      25.944  49.120  48.628  1.00  0.00     0.208 HD
HETATM   15  C   UNL     1      23.007  49.640  48.064  1.00  0.00     0.166 A 
HETATM   16  N   UNL     1      22.843  48.750  49.090  1.00  0.00    -0.046 NA
BRANCH  15  17
HETATM   17  C   UNL     1      21.850  50.244  47.349  1.00  0.00     0.087 C 
BRANCH  17  18
HETATM   18  C   UNL     1      20.561  50.281  48.190  1.00  0.00    -0.016 C 
HETATM   19  C   UNL     1      19.374  49.662  47.446  1.00  0.00     0.010 C 
HETATM   20  C   UNL     1      20.231  51.725  48.574  1.00  0.00     0.010 C 
ENDBRANCH  17  18
ENDBRANCH  15  17
ENDBRANCH   8  11
ENDBRANCH   1   7
BRANCH   3  21
HETATM   21  C   UNL     1      26.822  42.729  50.092  1.00  0.00     0.165 A 
HETATM   22  N   UNL     1      26.639  42.625  48.772  1.00  0.00    -0.155 NA
HETATM   23  N   UNL     1      27.208  41.465  48.433  1.00  0.00    -0.275 N 
HETATM   24  H   UNL     1      27.145  41.167  47.464  1.00  0.00     0.189 HD
HETATM   25  C   UNL     1      27.828  40.823  49.464  1.00  0.00     0.065 A 
HETATM   26  C   UNL     1      27.598  41.623  50.582  1.00  0.00     0.040 A 
HETATM   27  C   UNL     1      28.547  39.622  49.503  1.00  0.00     0.051 A 
HETATM   28  C   UNL     1      28.110  41.185  51.823  1.00  0.00     0.019 A 
HETATM   29  C   UNL     1      28.837  39.987  51.889  1.00  0.00     0.020 A 
HETATM   30  C   UNL     1      29.048  39.224  50.744  1.00  0.00     0.013 A 
HETATM   31 BR   UNL     1      30.029  37.610  50.868  1.00  0.00    -0.051 Br
ENDBRANCH   3  21
TORSDOF 5
ENDMDL
MODEL 8
REMARK VINA RESULT:      -8.1     14.298     16.589
REMARK  5 active torsions:
REMARK  status: ('A' for Active; 'I' for Inactive)
REMARK    1  A    between atoms: C_2  and  C_3 
REMARK    2  A    between atoms: C_3  and  C_4 
REMARK    3  A    between atoms: C_8  and  N_9 
REMARK       I    between atoms: N_9  and  C_10 
REMARK    4  A    between atoms: C_10  and  C_11 
REMARK    5  A    between atoms: N_13  and  C_14 
ROOT
HETATM    1  C   UNL     1      14.380  55.007  49.861  1.00  0.00     0.106 C 
HETATM    2  C   UNL     1      15.150  56.113  50.546  1.00  0.00     0.148 C 
HETATM    3  N   UNL     1      14.609  56.141  51.881  1.00  0.00    -0.299 N 
HETATM    4  C   UNL     1      13.336  55.550  51.928  1.00  0.00     0.226 C 
HETATM    5  O   UNL     1      12.557  55.433  52.861  1.00  0.00    -0.273 OA
HETATM    6  C   UNL     1      13.027  55.009  50.552  1.00  0.00     0.119 C 
ENDROOT
BRANCH   1   7
HETATM    7  C   UNL     1      15.092  53.658  49.959  1.00  0.00     0.242 C 
HETATM    8  N   UNL     1      16.396  53.652  49.499  1.00  0.00    -0.156 N 
HETATM    9  H   UNL     1      16.806  54.484  49.092  1.00  0.00     0.187 HD
HETATM   10  O   UNL     1      14.473  52.699  50.414  1.00  0.00    -0.272 OA
BRANCH   8  11
HETATM   11  C   UNL     1      17.182  52.526  49.559  1.00  0.00     0.725 A 
HETATM   12  N   UNL     1      16.693  51.282  49.255  1.00  0.00    -0.106 N 
HETATM   13  N   UNL     1      17.631  50.331  49.389  1.00  0.00    -0.144 NA
HETATM   14  H   UNL     1      15.762  51.019  48.958  1.00  0.00     0.208 HD
HETATM   15  C   UNL     1      18.688  51.061  49.768  1.00  0.00     0.166 A 
HETATM   16  N   UNL     1      18.446  52.404  49.880  1.00  0.00    -0.046 NA
BRANCH  15  17
HETATM   17  C   UNL     1      20.028  50.474  50.036  1.00  0.00     0.087 C 
BRANCH  17  18
HETATM   18  C   UNL     1      21.118  50.967  49.067  1.00  0.00    -0.016 C 
HETATM   19  C   UNL     1      20.845  50.527  47.625  1.00  0.00     0.010 C 
HETATM   20  C   UNL     1      22.485  50.445  49.513  1.00  0.00     0.010 C 
ENDBRANCH  17  18
ENDBRANCH  15  17
ENDBRANCH   8  11
ENDBRANCH   1   7
BRANCH   3  21
HETATM   21  C   UNL     1      15.219  56.718  52.993  1.00  0.00     0.165 A 
HETATM   22  N   UNL     1      15.919  55.994  53.871  1.00  0.00    -0.155 NA
HETATM   23  N   UNL     1      16.333  56.869  54.792  1.00  0.00    -0.275 N 
HETATM   24  H   UNL     1      16.857  56.515  55.586  1.00  0.00     0.189 HD
HETATM   25  C   UNL     1      15.996  58.163  54.525  1.00  0.00     0.065 A 
HETATM   26  C   UNL     1      15.258  58.111  53.345  1.00  0.00     0.040 A 
HETATM   27  C   UNL     1      16.267  59.348  55.222  1.00  0.00     0.051 A 
HETATM   28  C   UNL     1      14.745  59.325  52.834  1.00  0.00     0.019 A 
HETATM   29  C   UNL     1      15.005  60.526  53.510  1.00  0.00     0.020 A 
HETATM   30  C   UNL     1      15.755  60.529  54.683  1.00  0.00     0.013 A 
HETATM   31 BR   UNL     1      16.082  62.167  55.574  1.00  0.00    -0.051 Br
ENDBRANCH   3  21
TORSDOF 5
ENDMDL
MODEL 9
REMARK VINA RESULT:      -8.0      5.317      7.589
REMARK  5 active torsions:
REMARK  status: ('A' for Active; 'I' for Inactive)
REMARK    1  A    between atoms: C_2  and  C_3 
REMARK    2  A    between atoms: C_3  and  C_4 
REMARK    3  A    between atoms: C_8  and  N_9 
REMARK       I    between atoms: N_9  and  C_10 
REMARK    4  A    between atoms: C_10  and  C_11 
REMARK    5  A    between atoms: N_13  and  C_14 
ROOT
HETATM    1  C   UNL     1      26.054  46.931  50.752  1.00  0.00     0.106 C 
HETATM    2  C   UNL     1      24.571  47.214  50.677  1.00  0.00     0.148 C 
HETATM    3  N   UNL     1      24.425  48.003  49.481  1.00  0.00    -0.299 N 
HETATM    4  C   UNL     1      25.639  48.609  49.119  1.00  0.00     0.226 C 
HETATM    5  O   UNL     1      25.893  49.377  48.204  1.00  0.00    -0.273 OA
HETATM    6  C   UNL     1      26.699  48.132  50.084  1.00  0.00     0.119 C 
ENDROOT
BRANCH   1   7
HETATM    7  C   UNL     1      26.426  45.610  50.079  1.00  0.00     0.242 C 
HETATM    8  N   UNL     1      25.676  44.519  50.480  1.00  0.00    -0.156 N 
HETATM    9  H   UNL     1      24.970  44.612  51.200  1.00  0.00     0.187 HD
HETATM   10  O   UNL     1      27.346  45.604  49.264  1.00  0.00    -0.272 OA
BRANCH   8  11
HETATM   11  C   UNL     1      25.862  43.270  49.936  1.00  0.00     0.725 A 
HETATM   12  N   UNL     1      25.600  43.006  48.617  1.00  0.00    -0.106 N 
HETATM   13  N   UNL     1      25.845  41.723  48.308  1.00  0.00    -0.144 NA
HETATM   14  H   UNL     1      25.263  43.633  47.898  1.00  0.00     0.208 HD
HETATM   15  C   UNL     1      26.273  41.250  49.485  1.00  0.00     0.166 A 
HETATM   16  N   UNL     1      26.296  42.170  50.498  1.00  0.00    -0.046 NA
BRANCH  15  17
HETATM   17  C   UNL     1      26.706  39.841  49.686  1.00  0.00     0.087 C 
BRANCH  17  18
HETATM   18  C   UNL     1      28.236  39.665  49.699  1.00  0.00    -0.016 C 
HETATM   19  C   UNL     1      28.880  40.150  48.397  1.00  0.00     0.010 C 
HETATM   20  C   UNL     1      28.588  38.194  49.931  1.00  0.00     0.010 C 
ENDBRANCH  17  18
ENDBRANCH  15  17
ENDBRANCH   8  11
ENDBRANCH   1   7
BRANCH   3  21
HETATM   21  C   UNL     1      23.238  48.204  48.780  1.00  0.00     0.165 A 
HETATM   22  N   UNL     1      22.762  47.297  47.921  1.00  0.00    -0.155 NA
HETATM   23  N   UNL     1      21.637  47.832  47.438  1.00  0.00    -0.275 N 
HETATM   24  H   UNL     1      21.130  47.316  46.726  1.00  0.00     0.189 HD
HETATM   25  C   UNL     1      21.305  49.031  47.995  1.00  0.00     0.065 A 
HETATM   26  C   UNL     1      22.335  49.317  48.888  1.00  0.00     0.040 A 
HETATM   27  C   UNL     1      20.208  49.875  47.778  1.00  0.00     0.051 A 
HETATM   28  C   UNL     1      22.271  50.534  49.602  1.00  0.00     0.019 A 
HETATM   29  C   UNL     1      21.181  51.395  49.406  1.00  0.00     0.020 A 
HETATM   30  C   UNL     1      20.170  51.064  48.509  1.00  0.00     0.013 A 
HETATM   31 BR   UNL     1      18.716  52.251  48.264  1.00  0.00    -0.051 Br
ENDBRANCH   3  21
TORSDOF 5
ENDMDL
MODEL 10
REMARK VINA RESULT:      -7.8      3.387      7.011
REMARK  5 active torsions:
REMARK  status: ('A' for Active; 'I' for Inactive)
REMARK    1  A    between atoms: C_2  and  C_3 
REMARK    2  A    between atoms: C_3  and  C_4 
REMARK    3  A    between atoms: C_8  and  N_9 
REMARK       I    between atoms: N_9  and  C_10 
REMARK    4  A    between atoms: C_10  and  C_11 
REMARK    5  A    between atoms: N_13  and  C_14 
ROOT
HETATM    1  C   UNL     1      24.384  42.130  49.051  1.00  0.00     0.106 C 
HETATM    2  C   UNL     1      24.994  41.936  50.421  1.00  0.00     0.148 C 
HETATM    3  N   UNL     1      26.413  41.966  50.179  1.00  0.00    -0.299 N 
HETATM    4  C   UNL     1      26.709  41.675  48.837  1.00  0.00     0.226 C 
HETATM    5  O   UNL     1      27.787  41.564  48.276  1.00  0.00    -0.273 OA
HETATM    6  C   UNL     1      25.400  41.522  48.099  1.00  0.00     0.119 C 
ENDROOT
BRANCH   1   7
HETATM    7  C   UNL     1      24.096  43.600  48.748  1.00  0.00     0.242 C 
HETATM    8  N   UNL     1      24.077  44.431  49.854  1.00  0.00    -0.156 N 
HETATM    9  H   UNL     1      24.204  44.057  50.786  1.00  0.00     0.187 HD
HETATM   10  O   UNL     1      23.895  43.931  47.582  1.00  0.00    -0.272 OA
BRANCH   8  11
HETATM   11  C   UNL     1      23.874  45.786  49.741  1.00  0.00     0.725 A 
HETATM   12  N   UNL     1      24.636  46.695  50.428  1.00  0.00    -0.106 N 
HETATM   13  N   UNL     1      24.257  47.957  50.172  1.00  0.00    -0.144 NA
HETATM   14  H   UNL     1      25.404  46.528  51.065  1.00  0.00     0.208 HD
HETATM   15  C   UNL     1      23.259  47.757  49.303  1.00  0.00     0.166 A 
HETATM   16  N   UNL     1      23.001  46.443  49.018  1.00  0.00    -0.046 NA
BRANCH  15  17
HETATM   17  C   UNL     1      22.490  48.867  48.677  1.00  0.00     0.087 C 
BRANCH  17  18
HETATM   18  C   UNL     1      22.747  50.236  49.332  1.00  0.00    -0.016 C 
HETATM   19  C   UNL     1      21.479  50.814  49.967  1.00  0.00     0.010 C 
HETATM   20  C   UNL     1      23.294  51.216  48.292  1.00  0.00     0.010 C 
ENDBRANCH  17  18
ENDBRANCH  15  17
ENDBRANCH   8  11
ENDBRANCH   1   7
BRANCH   3  21
HETATM   21  C   UNL     1      27.396  42.196  51.139  1.00  0.00     0.165 A 
HETATM   22  N   UNL     1      28.477  41.417  51.245  1.00  0.00    -0.155 NA
HETATM   23  N   UNL     1      29.173  41.924  52.267  1.00  0.00    -0.275 N 
HETATM   24  H   UNL     1      30.025  41.449  52.547  1.00  0.00     0.189 HD
HETATM   25  C   UNL     1      28.634  43.057  52.803  1.00  0.00     0.065 A 
HETATM   26  C   UNL     1      27.458  43.273  52.089  1.00  0.00     0.040 A 
HETATM   27  C   UNL     1      29.074  43.882  53.845  1.00  0.00     0.051 A 
HETATM   28  C   UNL     1      26.661  44.382  52.451  1.00  0.00     0.019 A 
HETATM   29  C   UNL     1      27.080  45.227  53.490  1.00  0.00     0.020 A 
HETATM   30  C   UNL     1      28.268  44.975  54.169  1.00  0.00     0.013 A 
HETATM   31 BR   UNL     1      28.803  46.131  55.569  1.00  0.00    -0.051 Br
ENDBRANCH   3  21
TORSDOF 5
ENDMDL
