MODEL 1
REMARK VINA RESULT:      -7.8      0.000      0.000
REMARK  7 active torsions:
REMARK  status: ('A' for Active; 'I' for Inactive)
REMARK    1  A    between atoms: O_2  and  C_3 
REMARK    2  A    between atoms: C_4  and  O_5 
REMARK    3  A    between atoms: C_9  and  C_10 
REMARK    4  A    between atoms: C_10  and  N_11 
REMARK    5  A    between atoms: C_14  and  C_15 
REMARK    6  A    between atoms: C_15  and  N_16 
REMARK    7  A    between atoms: N_16  and  C_17 
ROOT
HETATM    1  N   UNL     1      28.236  44.322  53.480  1.00  0.00    -0.067 N 
HETATM    2  H   UNL     1      28.491  45.307  53.311  1.00  0.00     0.280 HD
HETATM    3  C   UNL     1      28.763  43.544  52.288  1.00  0.00     0.241 C 
HETATM    4  C   UNL     1      29.587  42.400  52.876  1.00  0.00     0.031 C 
HETATM    5  C   UNL     1      30.138  43.022  54.156  1.00  0.00     0.035 C 
HETATM    6  C   UNL     1      29.002  43.869  54.706  1.00  0.00     0.235 C 
ENDROOT
BRANCH   1   7
HETATM    7  C   UNL     1      26.738  44.330  53.691  1.00  0.00     0.273 C 
BRANCH   7   8
HETATM    8  C   UNL     1      25.955  44.855  52.518  1.00  0.00    -0.028 A 
HETATM    9  C   UNL     1      25.010  44.045  51.870  1.00  0.00     0.031 A 
HETATM   10  C   UNL     1      24.245  44.558  50.818  1.00  0.00     0.047 A 
HETATM   11  C   UNL     1      24.425  45.877  50.407  1.00  0.00     0.116 A 
HETATM   12 BR   UNL     1      22.971  43.422  49.999  1.00  0.00    -0.048 Br
HETATM   13  C   UNL     1      25.381  46.694  51.021  1.00  0.00     0.103 A 
HETATM   14  C   UNL     1      26.143  46.180  52.075  1.00  0.00     0.048 A 
BRANCH  11  15
HETATM   15  O   UNL     1      23.665  46.392  49.391  1.00  0.00    -0.357 OA
HETATM   16  H   UNL     1      22.912  46.857  49.803  1.00  0.00     0.218 HD
ENDBRANCH  11  15
BRANCH  13  17
HETATM   17  O   UNL     1      25.455  47.971  50.530  1.00  0.00    -0.353 OA
HETATM   18  C   UNL     1      26.543  48.287  49.670  1.00  0.00     0.210 C 
ENDBRANCH  13  17
ENDBRANCH   7   8
ENDBRANCH   1   7
BRANCH   4  19
HETATM   19  C   UNL     1      28.724  41.144  53.091  1.00  0.00     0.127 C 
BRANCH  19  20
HETATM   20  N   UNL     1      27.997  40.780  51.873  1.00  0.00    -0.376 N 
HETATM   21  H   UNL     1      26.990  40.688  51.987  1.00  0.00     0.161 HD
BRANCH  20  22
HETATM   22  C   UNL     1      28.591  39.922  50.954  1.00  0.00     0.100 A 
HETATM   23  N   UNL     1      29.367  38.923  51.413  1.00  0.00    -0.353 N 
HETATM   24  H   UNL     1      29.488  38.829  52.417  1.00  0.00     0.166 HD
HETATM   25  C   UNL     1      29.984  38.032  50.620  1.00  0.00     0.089 A 
HETATM   26  C   UNL     1      29.830  38.098  49.245  1.00  0.00     0.017 A 
HETATM   27  C   UNL     1      29.017  39.088  48.713  1.00  0.00     0.005 A 
HETATM   28  C   UNL     1      28.390  39.995  49.567  1.00  0.00     0.048 A 
ENDBRANCH  20  22
ENDBRANCH  19  20
ENDBRANCH   4  19
TORSDOF 7
ENDMDL
MODEL 2
REMARK VINA RESULT:      -7.7      4.421      8.125
REMARK  7 active torsions:
REMARK  status: ('A' for Active; 'I' for Inactive)
REMARK    1  A    between atoms: O_2  and  C_3 
REMARK    2  A    between atoms: C_4  and  O_5 
REMARK    3  A    between atoms: C_9  and  C_10 
REMARK    4  A    between atoms: C_10  and  N_11 
REMARK    5  A    between atoms: C_14  and  C_15 
REMARK    6  A    between atoms: C_15  and  N_16 
REMARK    7  A    between atoms: N_16  and  C_17 
ROOT
HETATM    1  N   UNL     1      25.720  43.947  51.322  1.00  0.00    -0.067 N 
HETATM    2  H   UNL     1      26.340  43.127  51.243  1.00  0.00     0.280 HD
HETATM    3  C   UNL     1      26.462  45.099  50.669  1.00  0.00     0.241 C 
HETATM    4  C   UNL     1      25.486  45.697  49.658  1.00  0.00     0.031 C 
HETATM    5  C   UNL     1      24.681  44.475  49.223  1.00  0.00     0.035 C 
HETATM    6  C   UNL     1      24.489  43.655  50.488  1.00  0.00     0.235 C 
ENDROOT
BRANCH   1   7
HETATM    7  C   UNL     1      25.415  44.072  52.799  1.00  0.00     0.273 C 
BRANCH   7   8
HETATM    8  C   UNL     1      26.549  44.631  53.615  1.00  0.00    -0.028 A 
HETATM    9  C   UNL     1      27.674  43.845  53.907  1.00  0.00     0.031 A 
HETATM   10  C   UNL     1      28.749  44.389  54.617  1.00  0.00     0.047 A 
HETATM   11  C   UNL     1      28.701  45.715  55.041  1.00  0.00     0.116 A 
HETATM   12 BR   UNL     1      30.248  43.285  54.959  1.00  0.00    -0.048 Br
HETATM   13  C   UNL     1      27.577  46.509  54.785  1.00  0.00     0.103 A 
HETATM   14  C   UNL     1      26.504  45.964  54.073  1.00  0.00     0.048 A 
BRANCH  11  15
HETATM   15  O   UNL     1      29.758  46.260  55.719  1.00  0.00    -0.357 OA
HETATM   16  H   UNL     1      30.570  45.844  55.367  1.00  0.00     0.218 HD
ENDBRANCH  11  15
BRANCH  13  17
HETATM   17  O   UNL     1      27.657  47.795  55.250  1.00  0.00    -0.353 OA
HETATM   18  C   UNL     1      26.463  48.400  55.731  1.00  0.00     0.210 C 
ENDBRANCH  13  17
ENDBRANCH   7   8
ENDBRANCH   1   7
BRANCH   4  19
HETATM   19  C   UNL     1      24.650  46.825  50.290  1.00  0.00     0.127 C 
BRANCH  19  20
HETATM   20  N   UNL     1      23.421  47.069  49.533  1.00  0.00    -0.376 N 
HETATM   21  H   UNL     1      23.192  46.353  48.846  1.00  0.00     0.161 HD
BRANCH  20  22
HETATM   22  C   UNL     1      23.072  48.373  49.200  1.00  0.00     0.100 A 
HETATM   23  N   UNL     1      21.886  48.850  49.620  1.00  0.00    -0.353 N 
HETATM   24  H   UNL     1      21.288  48.240  50.171  1.00  0.00     0.166 HD
HETATM   25  C   UNL     1      21.448  50.094  49.365  1.00  0.00     0.089 A 
HETATM   26  C   UNL     1      22.235  50.975  48.643  1.00  0.00     0.017 A 
HETATM   27  C   UNL     1      23.482  50.551  48.207  1.00  0.00     0.005 A 
HETATM   28  C   UNL     1      23.905  49.253  48.493  1.00  0.00     0.048 A 
ENDBRANCH  20  22
ENDBRANCH  19  20
ENDBRANCH   4  19
TORSDOF 7
ENDMDL
MODEL 3
REMARK VINA RESULT:      -7.6      3.506      5.062
REMARK  7 active torsions:
REMARK  status: ('A' for Active; 'I' for Inactive)
REMARK    1  A    between atoms: O_2  and  C_3 
REMARK    2  A    between atoms: C_4  and  O_5 
REMARK    3  A    between atoms: C_9  and  C_10 
REMARK    4  A    between atoms: C_10  and  N_11 
REMARK    5  A    between atoms: C_14  and  C_15 
REMARK    6  A    between atoms: C_15  and  N_16 
REMARK    7  A    between atoms: N_16  and  C_17 
ROOT
HETATM    1  N   UNL     1      27.301  43.846  51.922  1.00  0.00    -0.067 N 
HETATM    2  H   UNL     1      26.901  44.513  52.599  1.00  0.00     0.280 HD
HETATM    3  C   UNL     1      26.190  42.865  51.594  1.00  0.00     0.241 C 
HETATM    4  C   UNL     1      26.102  42.838  50.070  1.00  0.00     0.031 C 
HETATM    5  C   UNL     1      26.503  44.263  49.696  1.00  0.00     0.035 C 
HETATM    6  C   UNL     1      27.618  44.627  50.663  1.00  0.00     0.235 C 
ENDROOT
BRANCH   1   7
HETATM    7  C   UNL     1      28.536  43.289  52.596  1.00  0.00     0.273 C 
BRANCH   7   8
HETATM    8  C   UNL     1      28.891  43.971  53.889  1.00  0.00    -0.028 A 
HETATM    9  C   UNL     1      29.940  43.489  54.686  1.00  0.00     0.031 A 
HETATM   10  C   UNL     1      30.303  44.162  55.857  1.00  0.00     0.047 A 
HETATM   11  C   UNL     1      29.617  45.313  56.237  1.00  0.00     0.116 A 
HETATM   12 BR   UNL     1      31.742  43.474  56.878  1.00  0.00    -0.048 Br
HETATM   13  C   UNL     1      28.550  45.796  55.471  1.00  0.00     0.103 A 
HETATM   14  C   UNL     1      28.190  45.124  54.299  1.00  0.00     0.048 A 
BRANCH  11  15
HETATM   15  O   UNL     1      29.980  45.988  57.371  1.00  0.00    -0.357 OA
HETATM   16  H   UNL     1      30.914  46.253  57.262  1.00  0.00     0.218 HD
ENDBRANCH  11  15
BRANCH  13  17
HETATM   17  O   UNL     1      27.963  46.938  55.949  1.00  0.00    -0.353 OA
HETATM   18  C   UNL     1      27.481  47.882  55.000  1.00  0.00     0.210 C 
ENDBRANCH  13  17
ENDBRANCH   7   8
ENDBRANCH   1   7
BRANCH   4  19
HETATM   19  C   UNL     1      27.006  41.740  49.479  1.00  0.00     0.127 C 
BRANCH  19  20
HETATM   20  N   UNL     1      27.341  40.726  50.482  1.00  0.00    -0.376 N 
HETATM   21  H   UNL     1      27.307  41.051  51.446  1.00  0.00     0.161 HD
BRANCH  20  22
HETATM   22  C   UNL     1      28.307  39.771  50.190  1.00  0.00     0.100 A 
HETATM   23  N   UNL     1      28.984  39.206  51.208  1.00  0.00    -0.353 N 
HETATM   24  H   UNL     1      28.760  39.497  52.155  1.00  0.00     0.166 HD
HETATM   25  C   UNL     1      29.932  38.269  51.046  1.00  0.00     0.089 A 
HETATM   26  C   UNL     1      30.255  37.817  49.778  1.00  0.00     0.017 A 
HETATM   27  C   UNL     1      29.571  38.339  48.690  1.00  0.00     0.005 A 
HETATM   28  C   UNL     1      28.591  39.309  48.896  1.00  0.00     0.048 A 
ENDBRANCH  20  22
ENDBRANCH  19  20
ENDBRANCH   4  19
TORSDOF 7
ENDMDL
MODEL 4
REMARK VINA RESULT:      -7.5      1.380      2.226
REMARK  7 active torsions:
REMARK  status: ('A' for Active; 'I' for Inactive)
REMARK    1  A    between atoms: O_2  and  C_3 
REMARK    2  A    between atoms: C_4  and  O_5 
REMARK    3  A    between atoms: C_9  and  C_10 
REMARK    4  A    between atoms: C_10  and  N_11 
REMARK    5  A    between atoms: C_14  and  C_15 
REMARK    6  A    between atoms: C_15  and  N_16 
REMARK    7  A    between atoms: N_16  and  C_17 
ROOT
HETATM    1  N   UNL     1      28.402  44.371  53.514  1.00  0.00    -0.067 N 
HETATM    2  H   UNL     1      28.688  45.343  53.323  1.00  0.00     0.280 HD
HETATM    3  C   UNL     1      28.822  43.564  52.300  1.00  0.00     0.241 C 
HETATM    4  C   UNL     1      29.630  42.389  52.846  1.00  0.00     0.031 C 
HETATM    5  C   UNL     1      30.283  42.993  54.087  1.00  0.00     0.035 C 
HETATM    6  C   UNL     1      29.219  43.891  54.697  1.00  0.00     0.235 C 
ENDROOT
BRANCH   1   7
HETATM    7  C   UNL     1      26.920  44.445  53.814  1.00  0.00     0.273 C 
BRANCH   7   8
HETATM    8  C   UNL     1      26.080  44.900  52.651  1.00  0.00    -0.028 A 
HETATM    9  C   UNL     1      26.432  46.045  51.921  1.00  0.00     0.031 A 
HETATM   10  C   UNL     1      25.680  46.429  50.807  1.00  0.00     0.047 A 
HETATM   11  C   UNL     1      24.573  45.675  50.422  1.00  0.00     0.116 A 
HETATM   12 BR   UNL     1      26.218  47.971  49.849  1.00  0.00    -0.048 Br
HETATM   13  C   UNL     1      24.189  44.545  51.152  1.00  0.00     0.103 A 
HETATM   14  C   UNL     1      24.943  44.161  52.265  1.00  0.00     0.048 A 
BRANCH  11  15
HETATM   15  O   UNL     1      23.844  46.034  49.320  1.00  0.00    -0.357 OA
HETATM   16  H   UNL     1      23.081  45.425  49.269  1.00  0.00     0.218 HD
ENDBRANCH  11  15
BRANCH  13  17
HETATM   17  O   UNL     1      23.088  43.888  50.667  1.00  0.00    -0.353 OA
HETATM   18  C   UNL     1      23.305  42.704  49.909  1.00  0.00     0.210 C 
ENDBRANCH  13  17
ENDBRANCH   7   8
ENDBRANCH   1   7
BRANCH   4  19
HETATM   19  C   UNL     1      28.728  41.173  53.122  1.00  0.00     0.127 C 
BRANCH  19  20
HETATM   20  N   UNL     1      27.988  40.773  51.923  1.00  0.00    -0.376 N 
HETATM   21  H   UNL     1      26.988  40.646  52.060  1.00  0.00     0.161 HD
BRANCH  20  22
HETATM   22  C   UNL     1      28.592  39.929  50.998  1.00  0.00     0.100 A 
HETATM   23  N   UNL     1      29.366  38.925  51.450  1.00  0.00    -0.353 N 
HETATM   24  H   UNL     1      29.479  38.818  52.454  1.00  0.00     0.166 HD
HETATM   25  C   UNL     1      29.993  38.047  50.650  1.00  0.00     0.089 A 
HETATM   26  C   UNL     1      29.851  38.131  49.276  1.00  0.00     0.017 A 
HETATM   27  C   UNL     1      29.041  39.127  48.750  1.00  0.00     0.005 A 
HETATM   28  C   UNL     1      28.404  40.021  49.610  1.00  0.00     0.048 A 
ENDBRANCH  20  22
ENDBRANCH  19  20
ENDBRANCH   4  19
TORSDOF 7
ENDMDL
MODEL 5
REMARK VINA RESULT:      -7.5      2.606      5.049
REMARK  7 active torsions:
REMARK  status: ('A' for Active; 'I' for Inactive)
REMARK    1  A    between atoms: O_2  and  C_3 
REMARK    2  A    between atoms: C_4  and  O_5 
REMARK    3  A    between atoms: C_9  and  C_10 
REMARK    4  A    between atoms: C_10  and  N_11 
REMARK    5  A    between atoms: C_14  and  C_15 
REMARK    6  A    between atoms: C_15  and  N_16 
REMARK    7  A    between atoms: N_16  and  C_17 
ROOT
HETATM    1  N   UNL     1      26.579  42.843  52.008  1.00  0.00    -0.067 N 
HETATM    2  H   UNL     1      25.764  42.250  51.790  1.00  0.00     0.280 HD
HETATM    3  C   UNL     1      26.165  43.709  53.183  1.00  0.00     0.241 C 
HETATM    4  C   UNL     1      27.262  43.530  54.232  1.00  0.00     0.031 C 
HETATM    5  C   UNL     1      27.715  42.094  53.986  1.00  0.00     0.035 C 
HETATM    6  C   UNL     1      27.688  41.922  52.476  1.00  0.00     0.235 C 
ENDROOT
BRANCH   1   7
HETATM    7  C   UNL     1      26.910  43.552  50.712  1.00  0.00     0.273 C 
BRANCH   7   8
HETATM    8  C   UNL     1      25.878  44.558  50.281  1.00  0.00    -0.028 A 
HETATM    9  C   UNL     1      24.594  44.143  49.897  1.00  0.00     0.031 A 
HETATM   10  C   UNL     1      23.622  45.086  49.552  1.00  0.00     0.047 A 
HETATM   11  C   UNL     1      23.930  46.445  49.585  1.00  0.00     0.116 A 
HETATM   12 BR   UNL     1      21.901  44.465  49.064  1.00  0.00    -0.048 Br
HETATM   13  C   UNL     1      25.212  46.880  49.939  1.00  0.00     0.103 A 
HETATM   14  C   UNL     1      26.183  45.934  50.286  1.00  0.00     0.048 A 
BRANCH  11  15
HETATM   15  O   UNL     1      22.977  47.375  49.268  1.00  0.00    -0.357 OA
HETATM   16  H   UNL     1      22.156  47.113  49.727  1.00  0.00     0.218 HD
ENDBRANCH  11  15
BRANCH  13  17
HETATM   17  O   UNL     1      25.385  48.239  49.938  1.00  0.00    -0.353 OA
HETATM   18  C   UNL     1      26.546  48.758  49.301  1.00  0.00     0.210 C 
ENDBRANCH  13  17
ENDBRANCH   7   8
ENDBRANCH   1   7
BRANCH   4  19
HETATM   19  C   UNL     1      28.367  44.590  54.067  1.00  0.00     0.127 C 
BRANCH  19  20
HETATM   20  N   UNL     1      29.690  44.032  54.357  1.00  0.00    -0.376 N 
HETATM   21  H   UNL     1      29.883  43.138  53.912  1.00  0.00     0.161 HD
BRANCH  20  22
HETATM   22  C   UNL     1      30.253  44.227  55.613  1.00  0.00     0.100 A 
HETATM   23  N   UNL     1      29.895  45.316  56.318  1.00  0.00    -0.353 N 
HETATM   24  H   UNL     1      29.221  45.956  55.907  1.00  0.00     0.166 HD
HETATM   25  C   UNL     1      30.367  45.603  57.542  1.00  0.00     0.089 A 
HETATM   26  C   UNL     1      31.266  44.750  58.159  1.00  0.00     0.017 A 
HETATM   27  C   UNL     1      31.651  43.594  57.495  1.00  0.00     0.005 A 
HETATM   28  C   UNL     1      31.138  43.328  56.226  1.00  0.00     0.048 A 
ENDBRANCH  20  22
ENDBRANCH  19  20
ENDBRANCH   4  19
TORSDOF 7
ENDMDL
MODEL 6
REMARK VINA RESULT:      -7.4      2.619      5.484
REMARK  7 active torsions:
REMARK  status: ('A' for Active; 'I' for Inactive)
REMARK    1  A    between atoms: O_2  and  C_3 
REMARK    2  A    between atoms: C_4  and  O_5 
REMARK    3  A    between atoms: C_9  and  C_10 
REMARK    4  A    between atoms: C_10  and  N_11 
REMARK    5  A    between atoms: C_14  and  C_15 
REMARK    6  A    between atoms: C_15  and  N_16 
REMARK    7  A    between atoms: N_16  and  C_17 
ROOT
HETATM    1  N   UNL     1      26.946  42.766  52.551  1.00  0.00    -0.067 N 
HETATM    2  H   UNL     1      25.990  42.379  52.547  1.00  0.00     0.280 HD
HETATM    3  C   UNL     1      27.506  42.485  53.933  1.00  0.00     0.241 C 
HETATM    4  C   UNL     1      28.848  41.794  53.700  1.00  0.00     0.031 C 
HETATM    5  C   UNL     1      28.600  41.032  52.401  1.00  0.00     0.035 C 
HETATM    6  C   UNL     1      27.753  41.963  51.550  1.00  0.00     0.235 C 
ENDROOT
BRANCH   1   7
HETATM    7  C   UNL     1      26.788  44.217  52.152  1.00  0.00     0.273 C 
BRANCH   7   8
HETATM    8  C   UNL     1      25.549  44.503  51.349  1.00  0.00    -0.028 A 
HETATM    9  C   UNL     1      25.274  45.803  50.899  1.00  0.00     0.031 A 
HETATM   10  C   UNL     1      24.150  46.051  50.104  1.00  0.00     0.047 A 
HETATM   11  C   UNL     1      23.297  45.004  49.762  1.00  0.00     0.116 A 
HETATM   12 BR   UNL     1      23.846  47.822  49.509  1.00  0.00    -0.048 Br
HETATM   13  C   UNL     1      23.537  43.705  50.223  1.00  0.00     0.103 A 
HETATM   14  C   UNL     1      24.662  43.459  51.015  1.00  0.00     0.048 A 
BRANCH  11  15
HETATM   15  O   UNL     1      22.206  45.237  48.968  1.00  0.00    -0.357 OA
HETATM   16  H   UNL     1      21.885  46.136  49.176  1.00  0.00     0.218 HD
ENDBRANCH  11  15
BRANCH  13  17
HETATM   17  O   UNL     1      22.628  42.767  49.812  1.00  0.00    -0.353 OA
HETATM   18  C   UNL     1      23.060  41.798  48.864  1.00  0.00     0.210 C 
ENDBRANCH  13  17
ENDBRANCH   7   8
ENDBRANCH   1   7
BRANCH   4  19
HETATM   19  C   UNL     1      29.997  42.817  53.635  1.00  0.00     0.127 C 
BRANCH  19  20
HETATM   20  N   UNL     1      29.671  44.036  54.378  1.00  0.00    -0.376 N 
HETATM   21  H   UNL     1      29.538  44.865  53.803  1.00  0.00     0.161 HD
BRANCH  20  22
HETATM   22  C   UNL     1      30.235  44.243  55.632  1.00  0.00     0.100 A 
HETATM   23  N   UNL     1      29.841  45.312  56.348  1.00  0.00    -0.353 N 
HETATM   24  H   UNL     1      29.140  45.930  55.947  1.00  0.00     0.166 HD
HETATM   25  C   UNL     1      30.311  45.607  57.571  1.00  0.00     0.089 A 
HETATM   26  C   UNL     1      31.246  44.784  58.176  1.00  0.00     0.017 A 
HETATM   27  C   UNL     1      31.669  43.648  57.500  1.00  0.00     0.005 A 
HETATM   28  C   UNL     1      31.158  43.372  56.232  1.00  0.00     0.048 A 
ENDBRANCH  20  22
ENDBRANCH  19  20
ENDBRANCH   4  19
TORSDOF 7
ENDMDL
MODEL 7
REMARK VINA RESULT:      -7.4      4.673      8.838
REMARK  7 active torsions:
REMARK  status: ('A' for Active; 'I' for Inactive)
REMARK    1  A    between atoms: O_2  and  C_3 
REMARK    2  A    between atoms: C_4  and  O_5 
REMARK    3  A    between atoms: C_9  and  C_10 
REMARK    4  A    between atoms: C_10  and  N_11 
REMARK    5  A    between atoms: C_14  and  C_15 
REMARK    6  A    between atoms: C_15  and  N_16 
REMARK    7  A    between atoms: N_16  and  C_17 
ROOT
HETATM    1  N   UNL     1      26.013  45.007  51.461  1.00  0.00    -0.067 N 
HETATM    2  H   UNL     1      26.595  44.157  51.417  1.00  0.00     0.280 HD
HETATM    3  C   UNL     1      26.388  45.833  50.245  1.00  0.00     0.241 C 
HETATM    4  C   UNL     1      25.068  46.162  49.549  1.00  0.00     0.031 C 
HETATM    5  C   UNL     1      24.220  44.934  49.867  1.00  0.00     0.035 C 
HETATM    6  C   UNL     1      24.572  44.569  51.300  1.00  0.00     0.235 C 
ENDROOT
BRANCH   1   7
HETATM    7  C   UNL     1      26.297  45.611  52.820  1.00  0.00     0.273 C 
BRANCH   7   8
HETATM    8  C   UNL     1      27.482  45.010  53.525  1.00  0.00    -0.028 A 
HETATM    9  C   UNL     1      28.006  45.610  54.680  1.00  0.00     0.031 A 
HETATM   10  C   UNL     1      29.071  45.015  55.362  1.00  0.00     0.047 A 
HETATM   11  C   UNL     1      29.618  43.823  54.892  1.00  0.00     0.116 A 
HETATM   12 BR   UNL     1      29.718  45.861  56.927  1.00  0.00    -0.048 Br
HETATM   13  C   UNL     1      29.129  43.222  53.727  1.00  0.00     0.103 A 
HETATM   14  C   UNL     1      28.062  43.817  53.047  1.00  0.00     0.048 A 
BRANCH  11  15
HETATM   15  O   UNL     1      30.647  43.224  55.567  1.00  0.00    -0.357 OA
HETATM   16  H   UNL     1      30.426  42.276  55.646  1.00  0.00     0.218 HD
ENDBRANCH  11  15
BRANCH  13  17
HETATM   17  O   UNL     1      29.748  42.052  53.374  1.00  0.00    -0.353 OA
HETATM   18  C   UNL     1      28.976  41.076  52.685  1.00  0.00     0.210 C 
ENDBRANCH  13  17
ENDBRANCH   7   8
ENDBRANCH   1   7
BRANCH   4  19
HETATM   19  C   UNL     1      24.487  47.494  50.056  1.00  0.00     0.127 C 
BRANCH  19  20
HETATM   20  N   UNL     1      23.069  47.623  49.716  1.00  0.00    -0.376 N 
HETATM   21  H   UNL     1      22.663  46.810  49.258  1.00  0.00     0.161 HD
BRANCH  20  22
HETATM   22  C   UNL     1      22.570  48.860  49.324  1.00  0.00     0.100 A 
HETATM   23  N   UNL     1      21.283  49.149  49.586  1.00  0.00    -0.353 N 
HETATM   24  H   UNL     1      20.720  48.452  50.065  1.00  0.00     0.166 HD
HETATM   25  C   UNL     1      20.697  50.313  49.260  1.00  0.00     0.089 A 
HETATM   26  C   UNL     1      21.425  51.308  48.630  1.00  0.00     0.017 A 
HETATM   27  C   UNL     1      22.767  51.081  48.361  1.00  0.00     0.005 A 
HETATM   28  C   UNL     1      23.343  49.861  48.715  1.00  0.00     0.048 A 
ENDBRANCH  20  22
ENDBRANCH  19  20
ENDBRANCH   4  19
TORSDOF 7
ENDMDL
MODEL 8
REMARK VINA RESULT:      -7.2      3.587      6.806
REMARK  7 active torsions:
REMARK  status: ('A' for Active; 'I' for Inactive)
REMARK    1  A    between atoms: O_2  and  C_3 
REMARK    2  A    between atoms: C_4  and  O_5 
REMARK    3  A    between atoms: C_9  and  C_10 
REMARK    4  A    between atoms: C_10  and  N_11 
REMARK    5  A    between atoms: C_14  and  C_15 
REMARK    6  A    between atoms: C_15  and  N_16 
REMARK    7  A    between atoms: N_16  and  C_17 
ROOT
HETATM    1  N   UNL     1      28.272  42.009  51.960  1.00  0.00    -0.067 N 
HETATM    2  H   UNL     1      29.301  42.087  51.958  1.00  0.00     0.280 HD
HETATM    3  C   UNL     1      27.768  43.110  51.045  1.00  0.00     0.241 C 
HETATM    4  C   UNL     1      26.831  42.423  50.053  1.00  0.00     0.031 C 
HETATM    5  C   UNL     1      27.458  41.038  49.921  1.00  0.00     0.035 C 
HETATM    6  C   UNL     1      27.927  40.679  51.321  1.00  0.00     0.235 C 
ENDROOT
BRANCH   1   7
HETATM    7  C   UNL     1      27.871  42.086  53.417  1.00  0.00     0.273 C 
BRANCH   7   8
HETATM    8  C   UNL     1      28.528  43.205  54.178  1.00  0.00    -0.028 A 
HETATM    9  C   UNL     1      27.877  44.437  54.340  1.00  0.00     0.031 A 
HETATM   10  C   UNL     1      28.469  45.453  55.097  1.00  0.00     0.047 A 
HETATM   11  C   UNL     1      29.713  45.243  55.688  1.00  0.00     0.116 A 
HETATM   12 BR   UNL     1      27.530  47.084  55.298  1.00  0.00    -0.048 Br
HETATM   13  C   UNL     1      30.392  44.032  55.517  1.00  0.00     0.103 A 
HETATM   14  C   UNL     1      29.798  43.016  54.761  1.00  0.00     0.048 A 
BRANCH  11  15
HETATM   15  O   UNL     1      30.288  46.226  56.447  1.00  0.00    -0.357 OA
HETATM   16  H   UNL     1      29.578  46.848  56.699  1.00  0.00     0.218 HD
ENDBRANCH  11  15
BRANCH  13  17
HETATM   17  O   UNL     1      31.602  43.951  56.154  1.00  0.00    -0.353 OA
HETATM   18  C   UNL     1      31.684  43.134  57.316  1.00  0.00     0.210 C 
ENDBRANCH  13  17
ENDBRANCH   7   8
ENDBRANCH   1   7
BRANCH   4  19
HETATM   19  C   UNL     1      25.379  42.425  50.565  1.00  0.00     0.127 C 
BRANCH  19  20
HETATM   20  N   UNL     1      24.651  43.610  50.104  1.00  0.00    -0.376 N 
HETATM   21  H   UNL     1      24.276  43.540  49.161  1.00  0.00     0.161 HD
BRANCH  20  22
HETATM   22  C   UNL     1      25.077  44.872  50.503  1.00  0.00     0.100 A 
HETATM   23  N   UNL     1      25.566  45.712  49.573  1.00  0.00    -0.353 N 
HETATM   24  H   UNL     1      25.603  45.394  48.608  1.00  0.00     0.166 HD
HETATM   25  C   UNL     1      25.999  46.954  49.841  1.00  0.00     0.089 A 
HETATM   26  C   UNL     1      25.945  47.447  51.134  1.00  0.00     0.017 A 
HETATM   27  C   UNL     1      25.423  46.639  52.133  1.00  0.00     0.005 A 
HETATM   28  C   UNL     1      24.980  45.354  51.817  1.00  0.00     0.048 A 
ENDBRANCH  20  22
ENDBRANCH  19  20
ENDBRANCH   4  19
TORSDOF 7
ENDMDL
MODEL 9
REMARK VINA RESULT:      -7.1      3.826      5.394
REMARK  7 active torsions:
REMARK  status: ('A' for Active; 'I' for Inactive)
REMARK    1  A    between atoms: O_2  and  C_3 
REMARK    2  A    between atoms: C_4  and  O_5 
REMARK    3  A    between atoms: C_9  and  C_10 
REMARK    4  A    between atoms: C_10  and  N_11 
REMARK    5  A    between atoms: C_14  and  C_15 
REMARK    6  A    between atoms: C_15  and  N_16 
REMARK    7  A    between atoms: N_16  and  C_17 
ROOT
HETATM    1  N   UNL     1      27.723  42.564  52.527  1.00  0.00    -0.067 N 
HETATM    2  H   UNL     1      27.262  42.728  53.435  1.00  0.00     0.280 HD
HETATM    3  C   UNL     1      27.721  41.061  52.321  1.00  0.00     0.241 C 
HETATM    4  C   UNL     1      27.118  40.836  50.936  1.00  0.00     0.031 C 
HETATM    5  C   UNL     1      26.135  41.997  50.818  1.00  0.00     0.035 C 
HETATM    6  C   UNL     1      26.839  43.180  51.461  1.00  0.00     0.235 C 
ENDROOT
BRANCH   1   7
HETATM    7  C   UNL     1      29.071  43.243  52.639  1.00  0.00     0.273 C 
BRANCH   7   8
HETATM    8  C   UNL     1      29.309  43.922  53.961  1.00  0.00    -0.028 A 
HETATM    9  C   UNL     1      30.284  43.439  54.846  1.00  0.00     0.031 A 
HETATM   10  C   UNL     1      30.540  44.108  56.047  1.00  0.00     0.047 A 
HETATM   11  C   UNL     1      29.820  45.257  56.368  1.00  0.00     0.116 A 
HETATM   12 BR   UNL     1      31.884  43.420  57.189  1.00  0.00    -0.048 Br
HETATM   13  C   UNL     1      28.824  45.741  55.513  1.00  0.00     0.103 A 
HETATM   14  C   UNL     1      28.571  45.071  54.311  1.00  0.00     0.048 A 
BRANCH  11  15
HETATM   15  O   UNL     1      30.079  45.929  57.533  1.00  0.00    -0.357 OA
HETATM   16  H   UNL     1      30.462  45.283  58.158  1.00  0.00     0.218 HD
ENDBRANCH  11  15
BRANCH  13  17
HETATM   17  O   UNL     1      28.195  46.880  55.941  1.00  0.00    -0.353 OA
HETATM   18  C   UNL     1      27.412  47.599  54.995  1.00  0.00     0.210 C 
ENDBRANCH  13  17
ENDBRANCH   7   8
ENDBRANCH   1   7
BRANCH   4  19
HETATM   19  C   UNL     1      28.210  40.806  49.851  1.00  0.00     0.127 C 
BRANCH  19  20
HETATM   20  N   UNL     1      28.842  39.487  49.764  1.00  0.00    -0.376 N 
HETATM   21  H   UNL     1      29.859  39.500  49.748  1.00  0.00     0.161 HD
BRANCH  20  22
HETATM   22  C   UNL     1      28.229  38.485  49.020  1.00  0.00     0.100 A 
HETATM   23  N   UNL     1      28.565  38.347  47.724  1.00  0.00    -0.353 N 
HETATM   24  H   UNL     1      29.259  38.980  47.336  1.00  0.00     0.166 HD
HETATM   25  C   UNL     1      28.045  37.412  46.913  1.00  0.00     0.089 A 
HETATM   26  C   UNL     1      27.116  36.507  47.398  1.00  0.00     0.017 A 
HETATM   27  C   UNL     1      26.751  36.579  48.734  1.00  0.00     0.005 A 
HETATM   28  C   UNL     1      27.313  37.562  49.548  1.00  0.00     0.048 A 
ENDBRANCH  20  22
ENDBRANCH  19  20
ENDBRANCH   4  19
TORSDOF 7
ENDMDL
MODEL 10
REMARK VINA RESULT:      -7.1      3.767      6.883
REMARK  7 active torsions:
REMARK  status: ('A' for Active; 'I' for Inactive)
REMARK    1  A    between atoms: O_2  and  C_3 
REMARK    2  A    between atoms: C_4  and  O_5 
REMARK    3  A    between atoms: C_9  and  C_10 
REMARK    4  A    between atoms: C_10  and  N_11 
REMARK    5  A    between atoms: C_14  and  C_15 
REMARK    6  A    between atoms: C_15  and  N_16 
REMARK    7  A    between atoms: N_16  and  C_17 
ROOT
HETATM    1  N   UNL     1      28.137  42.558  51.909  1.00  0.00    -0.067 N 
HETATM    2  H   UNL     1      29.159  42.694  51.919  1.00  0.00     0.280 HD
HETATM    3  C   UNL     1      27.567  43.720  51.117  1.00  0.00     0.241 C 
HETATM    4  C   UNL     1      26.667  43.092  50.055  1.00  0.00     0.031 C 
HETATM    5  C   UNL     1      27.371  41.766  49.776  1.00  0.00     0.035 C 
HETATM    6  C   UNL     1      27.865  41.286  51.131  1.00  0.00     0.235 C 
ENDROOT
BRANCH   1   7
HETATM    7  C   UNL     1      27.737  42.454  53.365  1.00  0.00     0.273 C 
BRANCH   7   8
HETATM    8  C   UNL     1      28.448  43.424  54.269  1.00  0.00    -0.028 A 
HETATM    9  C   UNL     1      29.575  43.023  55.001  1.00  0.00     0.031 A 
HETATM   10  C   UNL     1      30.266  43.944  55.794  1.00  0.00     0.047 A 
HETATM   11  C   UNL     1      29.830  45.267  55.862  1.00  0.00     0.116 A 
HETATM   12 BR   UNL     1      31.792  43.347  56.742  1.00  0.00    -0.048 Br
HETATM   13  C   UNL     1      28.693  45.682  55.161  1.00  0.00     0.103 A 
HETATM   14  C   UNL     1      28.005  44.759  54.366  1.00  0.00     0.048 A 
BRANCH  11  15
HETATM   15  O   UNL     1      30.514  46.179  56.620  1.00  0.00    -0.357 OA
HETATM   16  H   UNL     1      30.144  46.136  57.523  1.00  0.00     0.218 HD
ENDBRANCH  11  15
BRANCH  13  17
HETATM   17  O   UNL     1      28.374  47.006  55.305  1.00  0.00    -0.353 OA
HETATM   18  C   UNL     1      27.008  47.378  55.161  1.00  0.00     0.210 C 
ENDBRANCH  13  17
ENDBRANCH   7   8
ENDBRANCH   1   7
BRANCH   4  19
HETATM   19  C   UNL     1      25.220  42.956  50.561  1.00  0.00     0.127 C 
BRANCH  19  20
HETATM   20  N   UNL     1      24.796  44.151  51.295  1.00  0.00    -0.376 N 
HETATM   21  H   UNL     1      24.311  43.966  52.171  1.00  0.00     0.161 HD
BRANCH  20  22
HETATM   22  C   UNL     1      24.379  45.274  50.589  1.00  0.00     0.100 A 
HETATM   23  N   UNL     1      23.344  45.153  49.738  1.00  0.00    -0.353 N 
HETATM   24  H   UNL     1      22.900  44.244  49.645  1.00  0.00     0.166 HD
HETATM   25  C   UNL     1      22.852  46.169  49.010  1.00  0.00     0.089 A 
HETATM   26  C   UNL     1      23.402  47.435  49.121  1.00  0.00     0.017 A 
HETATM   27  C   UNL     1      24.453  47.630  50.005  1.00  0.00     0.005 A 
HETATM   28  C   UNL     1      24.937  46.552  50.746  1.00  0.00     0.048 A 
ENDBRANCH  20  22
ENDBRANCH  19  20
ENDBRANCH   4  19
TORSDOF 7
ENDMDL
