MODEL 1
REMARK VINA RESULT:      -8.8      0.000      0.000
REMARK  8 active torsions:
REMARK  status: ('A' for Active; 'I' for Inactive)
REMARK    1  A    between atoms: C_2  and  O_3 
REMARK    2  A    between atoms: O_3  and  C_4 
REMARK    3  A    between atoms: C_5  and  N_6 
REMARK       I    between atoms: N_6  and  C_7 
REMARK    4  A    between atoms: C_7  and  C_8 
REMARK    5  A    between atoms: N_11  and  C_12 
REMARK    6  A    between atoms: C_12  and  C_13 
REMARK       I    between atoms: C_13  and  N_14 
REMARK    7  A    between atoms: N_14  and  C_15 
REMARK    8  A    between atoms: C_24  and  N_25 
ROOT
HETATM    1  C   UNL     1      25.785  45.040  50.960  1.00  0.00     0.187 C 
HETATM    2  N   UNL     1      26.263  44.877  49.676  1.00  0.00    -0.150 NA
HETATM    3  N   UNL     1      26.757  46.036  49.266  1.00  0.00     0.007 NA
HETATM    4  N   UNL     1      26.544  46.931  50.251  1.00  0.00    -0.248 N 
HETATM    5  C   UNL     1      26.047  46.334  51.381  1.00  0.00     0.151 C 
ENDROOT
BRANCH   1   6
HETATM    6  C   UNL     1      25.140  43.990  51.720  1.00  0.00     0.280 C 
HETATM    7  N   UNL     1      25.775  43.424  52.805  1.00  0.00    -0.319 N 
HETATM    8  H   UNL     1      25.115  42.997  53.438  1.00  0.00     0.169 HD
HETATM    9  O   UNL     1      23.984  43.631  51.475  1.00  0.00    -0.265 OA
BRANCH   7  10
HETATM   10  C   UNL     1      27.142  43.258  53.118  1.00  0.00     0.068 A 
HETATM   11  C   UNL     1      27.920  44.100  53.928  1.00  0.00     0.095 A 
HETATM   12  C   UNL     1      29.272  43.820  54.163  1.00  0.00     0.039 A 
HETATM   13  C   UNL     1      29.886  42.737  53.542  1.00  0.00     0.003 A 
HETATM   14  C   UNL     1      29.146  41.928  52.687  1.00  0.00     0.002 A 
HETATM   15  C   UNL     1      27.787  42.190  52.475  1.00  0.00     0.032 A 
BRANCH  11  16
HETATM   16  O   UNL     1      27.436  45.239  54.508  1.00  0.00    -0.349 OA
BRANCH  16  17
HETATM   17  C   UNL     1      28.475  45.997  55.137  1.00  0.00     0.171 C 
HETATM   18  C   UNL     1      28.084  47.462  55.059  1.00  0.00     0.034 C 
ENDBRANCH  16  17
ENDBRANCH  11  16
ENDBRANCH   7  10
ENDBRANCH   1   6
BRANCH   5  19
HETATM   19  N   UNL     1      25.824  46.990  52.547  1.00  0.00    -0.382 N 
HETATM   20  H   UNL     1      25.075  47.681  52.650  1.00  0.00     0.157 HD
HETATM   21  H   UNL     1      26.629  47.216  53.134  1.00  0.00     0.157 HD
ENDBRANCH   5  19
BRANCH   4  22
HETATM   22  C   UNL     1      26.689  48.336  49.966  1.00  0.00     0.251 C 
BRANCH  22  23
HETATM   23  C   UNL     1      25.613  48.835  49.037  1.00  0.00     0.241 C 
HETATM   24  N   UNL     1      24.340  48.421  49.390  1.00  0.00    -0.326 N 
HETATM   25  H   UNL     1      24.266  47.610  49.997  1.00  0.00     0.169 HD
HETATM   26  O   UNL     1      25.896  49.542  48.072  1.00  0.00    -0.271 OA
BRANCH  24  27
HETATM   27  C   UNL     1      23.126  48.963  48.918  1.00  0.00     0.037 A 
HETATM   28  C   UNL     1      22.202  48.235  48.169  1.00  0.00     0.072 A 
HETATM   29  C   UNL     1      21.065  48.864  47.664  1.00  0.00     0.124 A 
HETATM   30  F   UNL     1      20.215  48.149  46.911  1.00  0.00    -0.205 F 
HETATM   31  C   UNL     1      20.809  50.214  47.906  1.00  0.00    -0.023 A 
HETATM   32  C   UNL     1      19.609  50.884  47.310  1.00  0.00     0.051 C 
HETATM   33  C   UNL     1      21.735  50.942  48.658  1.00  0.00     0.012 A 
HETATM   34  C   UNL     1      22.886  50.322  49.157  1.00  0.00     0.030 A 
ENDBRANCH  24  27
ENDBRANCH  22  23
ENDBRANCH   4  22
TORSDOF 8
ENDMDL
MODEL 2
REMARK VINA RESULT:      -8.6      1.389      2.642
REMARK  8 active torsions:
REMARK  status: ('A' for Active; 'I' for Inactive)
REMARK    1  A    between atoms: C_2  and  O_3 
REMARK    2  A    between atoms: O_3  and  C_4 
REMARK    3  A    between atoms: C_5  and  N_6 
REMARK       I    between atoms: N_6  and  C_7 
REMARK    4  A    between atoms: C_7  and  C_8 
REMARK    5  A    between atoms: N_11  and  C_12 
REMARK    6  A    between atoms: C_12  and  C_13 
REMARK       I    between atoms: C_13  and  N_14 
REMARK    7  A    between atoms: N_14  and  C_15 
REMARK    8  A    between atoms: C_24  and  N_25 
ROOT
HETATM    1  C   UNL     1      25.803  45.114  51.096  1.00  0.00     0.187 C 
HETATM    2  N   UNL     1      26.246  44.909  49.806  1.00  0.00    -0.150 NA
HETATM    3  N   UNL     1      26.753  46.048  49.354  1.00  0.00     0.007 NA
HETATM    4  N   UNL     1      26.581  46.971  50.321  1.00  0.00    -0.248 N 
HETATM    5  C   UNL     1      26.100  46.412  51.477  1.00  0.00     0.151 C 
ENDROOT
BRANCH   1   6
HETATM    6  C   UNL     1      25.156  44.096  51.898  1.00  0.00     0.280 C 
HETATM    7  N   UNL     1      25.810  43.537  52.975  1.00  0.00    -0.319 N 
HETATM    8  H   UNL     1      25.159  43.140  53.637  1.00  0.00     0.169 HD
HETATM    9  O   UNL     1      23.985  43.761  51.695  1.00  0.00    -0.265 OA
BRANCH   7  10
HETATM   10  C   UNL     1      27.182  43.344  53.250  1.00  0.00     0.068 A 
HETATM   11  C   UNL     1      27.982  42.286  52.793  1.00  0.00     0.095 A 
HETATM   12  C   UNL     1      29.338  42.212  53.136  1.00  0.00     0.039 A 
HETATM   13  C   UNL     1      29.899  43.151  53.995  1.00  0.00     0.003 A 
HETATM   14  C   UNL     1      29.106  44.172  54.508  1.00  0.00     0.002 A 
HETATM   15  C   UNL     1      27.758  44.264  54.141  1.00  0.00     0.032 A 
BRANCH  11  16
HETATM   16  O   UNL     1      27.504  41.263  52.022  1.00  0.00    -0.349 OA
BRANCH  16  17
HETATM   17  C   UNL     1      27.800  41.460  50.635  1.00  0.00     0.171 C 
HETATM   18  C   UNL     1      27.974  40.090  50.005  1.00  0.00     0.034 C 
ENDBRANCH  16  17
ENDBRANCH  11  16
ENDBRANCH   7  10
ENDBRANCH   1   6
BRANCH   5  19
HETATM   19  N   UNL     1      25.919  47.101  52.631  1.00  0.00    -0.382 N 
HETATM   20  H   UNL     1      25.047  47.050  53.167  1.00  0.00     0.157 HD
HETATM   21  H   UNL     1      26.361  48.017  52.721  1.00  0.00     0.157 HD
ENDBRANCH   5  19
BRANCH   4  22
HETATM   22  C   UNL     1      26.747  48.364  49.997  1.00  0.00     0.251 C 
BRANCH  22  23
HETATM   23  C   UNL     1      25.713  48.838  49.009  1.00  0.00     0.241 C 
HETATM   24  N   UNL     1      24.449  48.323  49.239  1.00  0.00    -0.326 N 
HETATM   25  H   UNL     1      24.385  47.478  49.800  1.00  0.00     0.169 HD
HETATM   26  O   UNL     1      26.018  49.612  48.104  1.00  0.00    -0.271 OA
BRANCH  24  27
HETATM   27  C   UNL     1      23.240  48.807  48.697  1.00  0.00     0.037 A 
HETATM   28  C   UNL     1      22.838  50.139  48.789  1.00  0.00     0.072 A 
HETATM   29  C   UNL     1      21.589  50.525  48.304  1.00  0.00     0.124 A 
HETATM   30  F   UNL     1      21.212  51.804  48.445  1.00  0.00    -0.205 F 
HETATM   31  C   UNL     1      20.726  49.610  47.700  1.00  0.00    -0.023 A 
HETATM   32  C   UNL     1      19.367  50.034  47.234  1.00  0.00     0.051 C 
HETATM   33  C   UNL     1      21.130  48.275  47.606  1.00  0.00     0.012 A 
HETATM   34  C   UNL     1      22.376  47.876  48.103  1.00  0.00     0.030 A 
ENDBRANCH  24  27
ENDBRANCH  22  23
ENDBRANCH   4  22
TORSDOF 8
ENDMDL
MODEL 3
REMARK VINA RESULT:      -8.5     11.183     13.467
REMARK  8 active torsions:
REMARK  status: ('A' for Active; 'I' for Inactive)
REMARK    1  A    between atoms: C_2  and  O_3 
REMARK    2  A    between atoms: O_3  and  C_4 
REMARK    3  A    between atoms: C_5  and  N_6 
REMARK       I    between atoms: N_6  and  C_7 
REMARK    4  A    between atoms: C_7  and  C_8 
REMARK    5  A    between atoms: N_11  and  C_12 
REMARK    6  A    between atoms: C_12  and  C_13 
REMARK       I    between atoms: C_13  and  N_14 
REMARK    7  A    between atoms: N_14  and  C_15 
REMARK    8  A    between atoms: C_24  and  N_25 
ROOT
HETATM    1  C   UNL     1      27.611  50.699  40.461  1.00  0.00     0.187 C 
HETATM    2  N   UNL     1      27.364  51.462  41.583  1.00  0.00    -0.150 NA
HETATM    3  N   UNL     1      27.868  52.672  41.382  1.00  0.00     0.007 NA
HETATM    4  N   UNL     1      28.473  52.656  40.178  1.00  0.00    -0.248 N 
HETATM    5  C   UNL     1      28.240  51.483  39.507  1.00  0.00     0.151 C 
ENDROOT
BRANCH   1   6
HETATM    6  C   UNL     1      27.234  49.306  40.332  1.00  0.00     0.280 C 
HETATM    7  N   UNL     1      28.049  48.314  40.836  1.00  0.00    -0.319 N 
HETATM    8  H   UNL     1      27.532  47.464  41.009  1.00  0.00     0.169 HD
HETATM    9  O   UNL     1      26.148  48.972  39.848  1.00  0.00    -0.265 OA
BRANCH   7  10
HETATM   10  C   UNL     1      29.444  48.255  41.047  1.00  0.00     0.068 A 
HETATM   11  C   UNL     1      30.402  47.763  40.148  1.00  0.00     0.095 A 
HETATM   12  C   UNL     1      31.764  47.763  40.478  1.00  0.00     0.039 A 
HETATM   13  C   UNL     1      32.183  48.189  41.735  1.00  0.00     0.003 A 
HETATM   14  C   UNL     1      31.241  48.622  42.662  1.00  0.00     0.002 A 
HETATM   15  C   UNL     1      29.883  48.650  42.321  1.00  0.00     0.032 A 
BRANCH  11  16
HETATM   16  O   UNL     1      30.085  47.237  38.927  1.00  0.00    -0.349 OA
BRANCH  16  17
HETATM   17  C   UNL     1      29.726  45.854  39.021  1.00  0.00     0.171 C 
HETATM   18  C   UNL     1      28.940  45.498  37.771  1.00  0.00     0.034 C 
ENDBRANCH  16  17
ENDBRANCH  11  16
ENDBRANCH   7  10
ENDBRANCH   1   6
BRANCH   5  19
HETATM   19  N   UNL     1      28.660  51.240  38.241  1.00  0.00    -0.382 N 
HETATM   20  H   UNL     1      28.518  50.335  37.782  1.00  0.00     0.157 HD
HETATM   21  H   UNL     1      29.518  51.693  37.922  1.00  0.00     0.157 HD
ENDBRANCH   5  19
BRANCH   4  22
HETATM   22  C   UNL     1      29.373  53.726  39.832  1.00  0.00     0.251 C 
BRANCH  22  23
HETATM   23  C   UNL     1      30.671  53.637  40.592  1.00  0.00     0.241 C 
HETATM   24  N   UNL     1      30.989  52.352  40.997  1.00  0.00    -0.326 N 
HETATM   25  H   UNL     1      30.232  51.677  41.042  1.00  0.00     0.169 HD
HETATM   26  O   UNL     1      31.344  54.644  40.803  1.00  0.00    -0.271 OA
BRANCH  24  27
HETATM   27  C   UNL     1      32.252  51.907  41.440  1.00  0.00     0.037 A 
HETATM   28  C   UNL     1      32.659  51.959  42.773  1.00  0.00     0.072 A 
HETATM   29  C   UNL     1      33.955  51.580  43.121  1.00  0.00     0.124 A 
HETATM   30  F   UNL     1      34.332  51.681  44.404  1.00  0.00    -0.205 F 
HETATM   31  C   UNL     1      34.864  51.124  42.165  1.00  0.00    -0.023 A 
HETATM   32  C   UNL     1      36.268  50.774  42.552  1.00  0.00     0.051 C 
HETATM   33  C   UNL     1      34.455  51.071  40.830  1.00  0.00     0.012 A 
HETATM   34  C   UNL     1      33.160  51.462  40.470  1.00  0.00     0.030 A 
ENDBRANCH  24  27
ENDBRANCH  22  23
ENDBRANCH   4  22
TORSDOF 8
ENDMDL
MODEL 4
REMARK VINA RESULT:      -8.5      3.514      9.355
REMARK  8 active torsions:
REMARK  status: ('A' for Active; 'I' for Inactive)
REMARK    1  A    between atoms: C_2  and  O_3 
REMARK    2  A    between atoms: O_3  and  C_4 
REMARK    3  A    between atoms: C_5  and  N_6 
REMARK       I    between atoms: N_6  and  C_7 
REMARK    4  A    between atoms: C_7  and  C_8 
REMARK    5  A    between atoms: N_11  and  C_12 
REMARK    6  A    between atoms: C_12  and  C_13 
REMARK       I    between atoms: C_13  and  N_14 
REMARK    7  A    between atoms: N_14  and  C_15 
REMARK    8  A    between atoms: C_24  and  N_25 
ROOT
HETATM    1  C   UNL     1      24.279  46.638  49.981  1.00  0.00     0.187 C 
HETATM    2  N   UNL     1      25.030  47.793  50.038  1.00  0.00    -0.150 NA
HETATM    3  N   UNL     1      25.717  47.788  51.172  1.00  0.00     0.007 NA
HETATM    4  N   UNL     1      25.363  46.675  51.846  1.00  0.00    -0.248 N 
HETATM    5  C   UNL     1      24.557  45.860  51.093  1.00  0.00     0.151 C 
ENDROOT
BRANCH   1   6
HETATM    6  C   UNL     1      23.373  46.316  48.896  1.00  0.00     0.280 C 
HETATM    7  N   UNL     1      22.787  47.322  48.158  1.00  0.00    -0.319 N 
HETATM    8  H   UNL     1      22.492  46.989  47.251  1.00  0.00     0.169 HD
HETATM    9  O   UNL     1      23.166  45.149  48.553  1.00  0.00    -0.265 OA
BRANCH   7  10
HETATM   10  C   UNL     1      22.450  48.655  48.478  1.00  0.00     0.068 A 
HETATM   11  C   UNL     1      21.303  49.083  49.163  1.00  0.00     0.095 A 
HETATM   12  C   UNL     1      21.088  50.443  49.422  1.00  0.00     0.039 A 
HETATM   13  C   UNL     1      21.976  51.401  48.943  1.00  0.00     0.003 A 
HETATM   14  C   UNL     1      23.086  50.999  48.208  1.00  0.00     0.002 A 
HETATM   15  C   UNL     1      23.318  49.638  47.975  1.00  0.00     0.032 A 
BRANCH  11  16
HETATM   16  O   UNL     1      20.325  48.231  49.593  1.00  0.00    -0.349 OA
BRANCH  16  17
HETATM   17  C   UNL     1      19.063  48.895  49.725  1.00  0.00     0.171 C 
HETATM   18  C   UNL     1      18.555  48.637  51.133  1.00  0.00     0.034 C 
ENDBRANCH  16  17
ENDBRANCH  11  16
ENDBRANCH   7  10
ENDBRANCH   1   6
BRANCH   5  19
HETATM   19  N   UNL     1      24.128  44.639  51.498  1.00  0.00    -0.382 N 
HETATM   20  H   UNL     1      24.550  43.770  51.155  1.00  0.00     0.157 HD
HETATM   21  H   UNL     1      23.134  44.519  51.700  1.00  0.00     0.157 HD
ENDBRANCH   5  19
BRANCH   4  22
HETATM   22  C   UNL     1      25.706  46.561  53.240  1.00  0.00     0.251 C 
BRANCH  22  23
HETATM   23  C   UNL     1      26.947  45.731  53.447  1.00  0.00     0.241 C 
HETATM   24  N   UNL     1      27.792  46.231  54.423  1.00  0.00    -0.326 N 
HETATM   25  H   UNL     1      27.689  47.211  54.670  1.00  0.00     0.169 HD
HETATM   26  O   UNL     1      27.139  44.714  52.784  1.00  0.00    -0.271 OA
BRANCH  24  27
HETATM   27  C   UNL     1      28.845  45.533  55.050  1.00  0.00     0.037 A 
HETATM   28  C   UNL     1      29.403  44.364  54.535  1.00  0.00     0.072 A 
HETATM   29  C   UNL     1      30.384  43.683  55.256  1.00  0.00     0.124 A 
HETATM   30  F   UNL     1      30.872  42.539  54.756  1.00  0.00    -0.205 F 
HETATM   31  C   UNL     1      30.845  44.155  56.486  1.00  0.00    -0.023 A 
HETATM   32  C   UNL     1      31.860  43.381  57.270  1.00  0.00     0.051 C 
HETATM   33  C   UNL     1      30.286  45.328  57.000  1.00  0.00     0.012 A 
HETATM   34  C   UNL     1      29.292  46.010  56.290  1.00  0.00     0.030 A 
ENDBRANCH  24  27
ENDBRANCH  22  23
ENDBRANCH   4  22
TORSDOF 8
ENDMDL
MODEL 5
REMARK VINA RESULT:      -8.3     11.116     13.076
REMARK  8 active torsions:
REMARK  status: ('A' for Active; 'I' for Inactive)
REMARK    1  A    between atoms: C_2  and  O_3 
REMARK    2  A    between atoms: O_3  and  C_4 
REMARK    3  A    between atoms: C_5  and  N_6 
REMARK       I    between atoms: N_6  and  C_7 
REMARK    4  A    between atoms: C_7  and  C_8 
REMARK    5  A    between atoms: N_11  and  C_12 
REMARK    6  A    between atoms: C_12  and  C_13 
REMARK       I    between atoms: C_13  and  N_14 
REMARK    7  A    between atoms: N_14  and  C_15 
REMARK    8  A    between atoms: C_24  and  N_25 
ROOT
HETATM    1  C   UNL     1      32.020  51.780  38.595  1.00  0.00     0.187 C 
HETATM    2  N   UNL     1      31.641  51.231  37.387  1.00  0.00    -0.150 NA
HETATM    3  N   UNL     1      30.344  51.447  37.221  1.00  0.00     0.007 NA
HETATM    4  N   UNL     1      29.898  52.071  38.329  1.00  0.00    -0.248 N 
HETATM    5  C   UNL     1      30.928  52.410  39.169  1.00  0.00     0.151 C 
ENDROOT
BRANCH   1   6
HETATM    6  C   UNL     1      33.364  51.706  39.129  1.00  0.00     0.280 C 
HETATM    7  N   UNL     1      33.687  50.754  40.073  1.00  0.00    -0.319 N 
HETATM    8  H   UNL     1      34.681  50.572  40.088  1.00  0.00     0.169 HD
HETATM    9  O   UNL     1      34.270  52.429  38.702  1.00  0.00    -0.265 OA
BRANCH   7  10
HETATM   10  C   UNL     1      32.913  50.093  41.051  1.00  0.00     0.068 A 
HETATM   11  C   UNL     1      32.468  50.634  42.267  1.00  0.00     0.095 A 
HETATM   12  C   UNL     1      31.698  49.869  43.154  1.00  0.00     0.039 A 
HETATM   13  C   UNL     1      31.419  48.536  42.873  1.00  0.00     0.003 A 
HETATM   14  C   UNL     1      31.904  47.965  41.702  1.00  0.00     0.002 A 
HETATM   15  C   UNL     1      32.647  48.737  40.801  1.00  0.00     0.032 A 
BRANCH  11  16
HETATM   16  O   UNL     1      32.768  51.902  42.678  1.00  0.00    -0.349 OA
BRANCH  16  17
HETATM   17  C   UNL     1      33.303  51.919  44.006  1.00  0.00     0.171 C 
HETATM   18  C   UNL     1      34.812  52.040  43.890  1.00  0.00     0.034 C 
ENDBRANCH  16  17
ENDBRANCH  11  16
ENDBRANCH   7  10
ENDBRANCH   1   6
BRANCH   5  19
HETATM   19  N   UNL     1      30.767  53.122  40.313  1.00  0.00    -0.382 N 
HETATM   20  H   UNL     1      29.846  53.279  40.734  1.00  0.00     0.157 HD
HETATM   21  H   UNL     1      31.399  53.906  40.486  1.00  0.00     0.157 HD
ENDBRANCH   5  19
BRANCH   4  22
HETATM   22  C   UNL     1      28.480  52.150  38.568  1.00  0.00     0.251 C 
BRANCH  22  23
HETATM   23  C   UNL     1      27.831  50.790  38.548  1.00  0.00     0.241 C 
HETATM   24  N   UNL     1      28.398  49.892  39.436  1.00  0.00    -0.326 N 
HETATM   25  H   UNL     1      29.338  50.092  39.763  1.00  0.00     0.169 HD
HETATM   26  O   UNL     1      26.888  50.557  37.795  1.00  0.00    -0.271 OA
BRANCH  24  27
HETATM   27  C   UNL     1      27.830  48.675  39.866  1.00  0.00     0.037 A 
HETATM   28  C   UNL     1      26.530  48.568  40.362  1.00  0.00     0.072 A 
HETATM   29  C   UNL     1      26.068  47.346  40.848  1.00  0.00     0.124 A 
HETATM   30  F   UNL     1      24.830  47.284  41.358  1.00  0.00    -0.205 F 
HETATM   31  C   UNL     1      26.871  46.204  40.834  1.00  0.00    -0.023 A 
HETATM   32  C   UNL     1      26.375  44.914  41.411  1.00  0.00     0.051 C 
HETATM   33  C   UNL     1      28.172  46.312  40.336  1.00  0.00     0.012 A 
HETATM   34  C   UNL     1      28.649  47.538  39.858  1.00  0.00     0.030 A 
ENDBRANCH  24  27
ENDBRANCH  22  23
ENDBRANCH   4  22
TORSDOF 8
ENDMDL
MODEL 6
REMARK VINA RESULT:      -8.0     11.316     13.649
REMARK  8 active torsions:
REMARK  status: ('A' for Active; 'I' for Inactive)
REMARK    1  A    between atoms: C_2  and  O_3 
REMARK    2  A    between atoms: O_3  and  C_4 
REMARK    3  A    between atoms: C_5  and  N_6 
REMARK       I    between atoms: N_6  and  C_7 
REMARK    4  A    between atoms: C_7  and  C_8 
REMARK    5  A    between atoms: N_11  and  C_12 
REMARK    6  A    between atoms: C_12  and  C_13 
REMARK       I    between atoms: C_13  and  N_14 
REMARK    7  A    between atoms: N_14  and  C_15 
REMARK    8  A    between atoms: C_24  and  N_25 
ROOT
HETATM    1  C   UNL     1      27.269  50.568  39.010  1.00  0.00     0.187 C 
HETATM    2  N   UNL     1      28.136  50.619  37.938  1.00  0.00    -0.150 NA
HETATM    3  N   UNL     1      28.996  51.607  38.146  1.00  0.00     0.007 NA
HETATM    4  N   UNL     1      28.643  52.206  39.301  1.00  0.00    -0.248 N 
HETATM    5  C   UNL     1      27.644  51.521  39.943  1.00  0.00     0.151 C 
ENDROOT
BRANCH   1   6
HETATM    6  C   UNL     1      26.169  49.631  39.114  1.00  0.00     0.280 C 
HETATM    7  N   UNL     1      26.408  48.305  39.405  1.00  0.00    -0.319 N 
HETATM    8  H   UNL     1      25.591  47.860  39.797  1.00  0.00     0.169 HD
HETATM    9  O   UNL     1      24.994  50.002  39.028  1.00  0.00    -0.265 OA
BRANCH   7  10
HETATM   10  C   UNL     1      27.522  47.472  39.164  1.00  0.00     0.068 A 
HETATM   11  C   UNL     1      28.577  47.212  40.053  1.00  0.00     0.095 A 
HETATM   12  C   UNL     1      29.627  46.358  39.691  1.00  0.00     0.039 A 
HETATM   13  C   UNL     1      29.677  45.805  38.415  1.00  0.00     0.003 A 
HETATM   14  C   UNL     1      28.673  46.101  37.500  1.00  0.00     0.002 A 
HETATM   15  C   UNL     1      27.607  46.930  37.871  1.00  0.00     0.032 A 
BRANCH  11  16
HETATM   16  O   UNL     1      28.669  47.779  41.293  1.00  0.00    -0.349 OA
BRANCH  16  17
HETATM   17  C   UNL     1      29.621  48.847  41.320  1.00  0.00     0.171 C 
HETATM   18  C   UNL     1      30.533  48.618  42.513  1.00  0.00     0.034 C 
ENDBRANCH  16  17
ENDBRANCH  11  16
ENDBRANCH   7  10
ENDBRANCH   1   6
BRANCH   5  19
HETATM   19  N   UNL     1      27.162  51.857  41.166  1.00  0.00    -0.382 N 
HETATM   20  H   UNL     1      26.780  51.161  41.814  1.00  0.00     0.157 HD
HETATM   21  H   UNL     1      26.696  52.761  41.269  1.00  0.00     0.157 HD
ENDBRANCH   5  19
BRANCH   4  22
HETATM   22  C   UNL     1      29.198  53.496  39.619  1.00  0.00     0.251 C 
BRANCH  22  23
HETATM   23  C   UNL     1      30.448  53.381  40.453  1.00  0.00     0.241 C 
HETATM   24  N   UNL     1      30.814  52.074  40.724  1.00  0.00    -0.326 N 
HETATM   25  H   UNL     1      30.096  51.361  40.636  1.00  0.00     0.169 HD
HETATM   26  O   UNL     1      31.047  54.387  40.827  1.00  0.00    -0.271 OA
BRANCH  24  27
HETATM   27  C   UNL     1      32.071  51.642  41.198  1.00  0.00     0.037 A 
HETATM   28  C   UNL     1      32.492  51.812  42.517  1.00  0.00     0.072 A 
HETATM   29  C   UNL     1      33.781  51.436  42.890  1.00  0.00     0.124 A 
HETATM   30  F   UNL     1      34.173  51.650  44.155  1.00  0.00    -0.205 F 
HETATM   31  C   UNL     1      34.670  50.868  41.976  1.00  0.00    -0.023 A 
HETATM   32  C   UNL     1      36.069  50.521  42.384  1.00  0.00     0.051 C 
HETATM   33  C   UNL     1      34.246  50.697  40.655  1.00  0.00     0.012 A 
HETATM   34  C   UNL     1      32.958  51.084  40.269  1.00  0.00     0.030 A 
ENDBRANCH  24  27
ENDBRANCH  22  23
ENDBRANCH   4  22
TORSDOF 8
ENDMDL
MODEL 7
REMARK VINA RESULT:      -8.0      2.015      3.507
REMARK  8 active torsions:
REMARK  status: ('A' for Active; 'I' for Inactive)
REMARK    1  A    between atoms: C_2  and  O_3 
REMARK    2  A    between atoms: O_3  and  C_4 
REMARK    3  A    between atoms: C_5  and  N_6 
REMARK       I    between atoms: N_6  and  C_7 
REMARK    4  A    between atoms: C_7  and  C_8 
REMARK    5  A    between atoms: N_11  and  C_12 
REMARK    6  A    between atoms: C_12  and  C_13 
REMARK       I    between atoms: C_13  and  N_14 
REMARK    7  A    between atoms: N_14  and  C_15 
REMARK    8  A    between atoms: C_24  and  N_25 
ROOT
HETATM    1  C   UNL     1      25.278  46.921  49.986  1.00  0.00     0.187 C 
HETATM    2  N   UNL     1      26.442  47.655  49.892  1.00  0.00    -0.150 NA
HETATM    3  N   UNL     1      26.140  48.856  49.419  1.00  0.00     0.007 NA
HETATM    4  N   UNL     1      24.816  48.862  49.165  1.00  0.00    -0.248 N 
HETATM    5  C   UNL     1      24.208  47.718  49.614  1.00  0.00     0.151 C 
ENDROOT
BRANCH   1   6
HETATM    6  C   UNL     1      25.226  45.544  50.433  1.00  0.00     0.280 C 
HETATM    7  N   UNL     1      25.389  45.238  51.768  1.00  0.00    -0.319 N 
HETATM    8  H   UNL     1      24.984  44.341  51.993  1.00  0.00     0.169 HD
HETATM    9  O   UNL     1      24.956  44.623  49.657  1.00  0.00    -0.265 OA
BRANCH   7  10
HETATM   10  C   UNL     1      26.087  45.891  52.808  1.00  0.00     0.068 A 
HETATM   11  C   UNL     1      27.271  45.452  53.419  1.00  0.00     0.095 A 
HETATM   12  C   UNL     1      27.869  46.199  54.444  1.00  0.00     0.039 A 
HETATM   13  C   UNL     1      27.259  47.355  54.919  1.00  0.00     0.003 A 
HETATM   14  C   UNL     1      26.053  47.772  54.367  1.00  0.00     0.002 A 
HETATM   15  C   UNL     1      25.471  47.042  53.323  1.00  0.00     0.032 A 
BRANCH  11  16
HETATM   16  O   UNL     1      27.897  44.283  53.089  1.00  0.00    -0.349 OA
BRANCH  16  17
HETATM   17  C   UNL     1      27.690  43.271  54.080  1.00  0.00     0.171 C 
HETATM   18  C   UNL     1      28.848  42.294  53.986  1.00  0.00     0.034 C 
ENDBRANCH  16  17
ENDBRANCH  11  16
ENDBRANCH   7  10
ENDBRANCH   1   6
BRANCH   5  19
HETATM   19  N   UNL     1      22.869  47.504  49.563  1.00  0.00    -0.382 N 
HETATM   20  H   UNL     1      22.390  46.882  50.222  1.00  0.00     0.157 HD
HETATM   21  H   UNL     1      22.415  47.503  48.648  1.00  0.00     0.157 HD
ENDBRANCH   5  19
BRANCH   4  22
HETATM   22  C   UNL     1      24.262  49.917  48.356  1.00  0.00     0.251 C 
BRANCH  22  23
HETATM   23  C   UNL     1      23.008  50.491  48.963  1.00  0.00     0.241 C 
HETATM   24  N   UNL     1      21.936  50.531  48.088  1.00  0.00    -0.326 N 
HETATM   25  H   UNL     1      22.145  50.488  47.095  1.00  0.00     0.169 HD
HETATM   26  O   UNL     1      22.994  50.870  50.132  1.00  0.00    -0.271 OA
BRANCH  24  27
HETATM   27  C   UNL     1      20.582  50.714  48.436  1.00  0.00     0.037 A 
HETATM   28  C   UNL     1      19.699  49.658  48.663  1.00  0.00     0.072 A 
HETATM   29  C   UNL     1      18.354  49.917  48.919  1.00  0.00     0.124 A 
HETATM   30  F   UNL     1      17.520  48.880  49.090  1.00  0.00    -0.205 F 
HETATM   31  C   UNL     1      17.860  51.221  48.978  1.00  0.00    -0.023 A 
HETATM   32  C   UNL     1      16.401  51.477  49.201  1.00  0.00     0.051 C 
HETATM   33  C   UNL     1      18.746  52.279  48.753  1.00  0.00     0.012 A 
HETATM   34  C   UNL     1      20.095  52.027  48.481  1.00  0.00     0.030 A 
ENDBRANCH  24  27
ENDBRANCH  22  23
ENDBRANCH   4  22
TORSDOF 8
ENDMDL
MODEL 8
REMARK VINA RESULT:      -8.0      5.196      8.715
REMARK  8 active torsions:
REMARK  status: ('A' for Active; 'I' for Inactive)
REMARK    1  A    between atoms: C_2  and  O_3 
REMARK    2  A    between atoms: O_3  and  C_4 
REMARK    3  A    between atoms: C_5  and  N_6 
REMARK       I    between atoms: N_6  and  C_7 
REMARK    4  A    between atoms: C_7  and  C_8 
REMARK    5  A    between atoms: N_11  and  C_12 
REMARK    6  A    between atoms: C_12  and  C_13 
REMARK       I    between atoms: C_13  and  N_14 
REMARK    7  A    between atoms: N_14  and  C_15 
REMARK    8  A    between atoms: C_24  and  N_25 
ROOT
HETATM    1  C   UNL     1      25.754  42.196  49.285  1.00  0.00     0.187 C 
HETATM    2  N   UNL     1      26.948  42.746  48.867  1.00  0.00    -0.150 NA
HETATM    3  N   UNL     1      27.300  43.685  49.734  1.00  0.00     0.007 NA
HETATM    4  N   UNL     1      26.318  43.767  50.653  1.00  0.00    -0.248 N 
HETATM    5  C   UNL     1      25.384  42.776  50.488  1.00  0.00     0.151 C 
ENDROOT
BRANCH   1   6
HETATM    6  C   UNL     1      25.045  41.160  48.562  1.00  0.00     0.280 C 
HETATM    7  N   UNL     1      25.534  39.871  48.536  1.00  0.00    -0.319 N 
HETATM    8  H   UNL     1      24.804  39.204  48.330  1.00  0.00     0.169 HD
HETATM    9  O   UNL     1      23.956  41.377  48.024  1.00  0.00    -0.265 OA
BRANCH   7  10
HETATM   10  C   UNL     1      26.844  39.355  48.642  1.00  0.00     0.068 A 
HETATM   11  C   UNL     1      27.624  38.840  47.595  1.00  0.00     0.095 A 
HETATM   12  C   UNL     1      28.918  38.360  47.833  1.00  0.00     0.039 A 
HETATM   13  C   UNL     1      29.428  38.322  49.127  1.00  0.00     0.003 A 
HETATM   14  C   UNL     1      28.645  38.771  50.186  1.00  0.00     0.002 A 
HETATM   15  C   UNL     1      27.363  39.279  49.944  1.00  0.00     0.032 A 
BRANCH  11  16
HETATM   16  O   UNL     1      27.180  38.747  46.306  1.00  0.00    -0.349 OA
BRANCH  16  17
HETATM   17  C   UNL     1      28.053  39.421  45.393  1.00  0.00     0.171 C 
HETATM   18  C   UNL     1      27.829  40.914  45.563  1.00  0.00     0.034 C 
ENDBRANCH  16  17
ENDBRANCH  11  16
ENDBRANCH   7  10
ENDBRANCH   1   6
BRANCH   5  19
HETATM   19  N   UNL     1      24.338  42.576  51.327  1.00  0.00    -0.382 N 
HETATM   20  H   UNL     1      23.664  41.816  51.189  1.00  0.00     0.157 HD
HETATM   21  H   UNL     1      23.900  43.393  51.757  1.00  0.00     0.157 HD
ENDBRANCH   5  19
BRANCH   4  22
HETATM   22  C   UNL     1      26.273  44.906  51.532  1.00  0.00     0.251 C 
BRANCH  22  23
HETATM   23  C   UNL     1      26.782  44.572  52.911  1.00  0.00     0.241 C 
HETATM   24  N   UNL     1      28.126  44.242  52.942  1.00  0.00    -0.326 N 
HETATM   25  H   UNL     1      28.553  43.948  52.068  1.00  0.00     0.169 HD
HETATM   26  O   UNL     1      26.030  44.608  53.883  1.00  0.00    -0.271 OA
BRANCH  24  27
HETATM   27  C   UNL     1      28.945  44.188  54.088  1.00  0.00     0.037 A 
HETATM   28  C   UNL     1      29.036  45.228  55.014  1.00  0.00     0.072 A 
HETATM   29  C   UNL     1      29.933  45.137  56.077  1.00  0.00     0.124 A 
HETATM   30  F   UNL     1      30.030  46.171  56.927  1.00  0.00    -0.205 F 
HETATM   31  C   UNL     1      30.739  44.012  56.259  1.00  0.00    -0.023 A 
HETATM   32  C   UNL     1      31.734  43.957  57.377  1.00  0.00     0.051 C 
HETATM   33  C   UNL     1      30.645  42.970  55.332  1.00  0.00     0.012 A 
HETATM   34  C   UNL     1      29.758  43.059  54.254  1.00  0.00     0.030 A 
ENDBRANCH  24  27
ENDBRANCH  22  23
ENDBRANCH   4  22
TORSDOF 8
ENDMDL
MODEL 9
REMARK VINA RESULT:      -7.9      4.327      7.548
REMARK  8 active torsions:
REMARK  status: ('A' for Active; 'I' for Inactive)
REMARK    1  A    between atoms: C_2  and  O_3 
REMARK    2  A    between atoms: O_3  and  C_4 
REMARK    3  A    between atoms: C_5  and  N_6 
REMARK       I    between atoms: N_6  and  C_7 
REMARK    4  A    between atoms: C_7  and  C_8 
REMARK    5  A    between atoms: N_11  and  C_12 
REMARK    6  A    between atoms: C_12  and  C_13 
REMARK       I    between atoms: C_13  and  N_14 
REMARK    7  A    between atoms: N_14  and  C_15 
REMARK    8  A    between atoms: C_24  and  N_25 
ROOT
HETATM    1  C   UNL     1      23.347  42.649  49.230  1.00  0.00     0.187 C 
HETATM    2  N   UNL     1      23.160  42.743  50.593  1.00  0.00    -0.150 NA
HETATM    3  N   UNL     1      23.386  43.997  50.959  1.00  0.00     0.007 NA
HETATM    4  N   UNL     1      23.764  44.671  49.855  1.00  0.00    -0.248 N 
HETATM    5  C   UNL     1      23.641  43.905  48.725  1.00  0.00     0.151 C 
ENDROOT
BRANCH   1   6
HETATM    6  C   UNL     1      23.220  41.416  48.480  1.00  0.00     0.280 C 
HETATM    7  N   UNL     1      24.217  40.465  48.531  1.00  0.00    -0.319 N 
HETATM    8  H   UNL     1      23.868  39.550  48.284  1.00  0.00     0.169 HD
HETATM    9  O   UNL     1      22.194  41.146  47.848  1.00  0.00    -0.265 OA
BRANCH   7  10
HETATM   10  C   UNL     1      25.607  40.566  48.758  1.00  0.00     0.068 A 
HETATM   11  C   UNL     1      26.597  40.786  47.788  1.00  0.00     0.095 A 
HETATM   12  C   UNL     1      27.948  40.870  48.148  1.00  0.00     0.039 A 
HETATM   13  C   UNL     1      28.340  40.667  49.467  1.00  0.00     0.003 A 
HETATM   14  C   UNL     1      27.379  40.386  50.432  1.00  0.00     0.002 A 
HETATM   15  C   UNL     1      26.025  40.332  50.078  1.00  0.00     0.032 A 
BRANCH  11  16
HETATM   16  O   UNL     1      26.325  40.906  46.454  1.00  0.00    -0.349 OA
BRANCH  16  17
HETATM   17  C   UNL     1      27.259  40.171  45.654  1.00  0.00     0.171 C 
HETATM   18  C   UNL     1      27.634  41.045  44.470  1.00  0.00     0.034 C 
ENDBRANCH  16  17
ENDBRANCH  11  16
ENDBRANCH   7  10
ENDBRANCH   1   6
BRANCH   5  19
HETATM   19  N   UNL     1      23.873  44.366  47.470  1.00  0.00    -0.382 N 
HETATM   20  H   UNL     1      24.754  44.190  46.977  1.00  0.00     0.157 HD
HETATM   21  H   UNL     1      23.466  45.265  47.204  1.00  0.00     0.157 HD
ENDBRANCH   5  19
BRANCH   4  22
HETATM   22  C   UNL     1      24.374  45.968  50.001  1.00  0.00     0.251 C 
BRANCH  22  23
HETATM   23  C   UNL     1      25.766  45.874  50.568  1.00  0.00     0.241 C 
HETATM   24  N   UNL     1      25.811  45.331  51.841  1.00  0.00    -0.326 N 
HETATM   25  H   UNL     1      24.952  45.346  52.384  1.00  0.00     0.169 HD
HETATM   26  O   UNL     1      26.736  46.256  49.917  1.00  0.00    -0.271 OA
BRANCH  24  27
HETATM   27  C   UNL     1      26.958  44.835  52.496  1.00  0.00     0.037 A 
HETATM   28  C   UNL     1      27.763  43.824  51.971  1.00  0.00     0.072 A 
HETATM   29  C   UNL     1      28.831  43.327  52.716  1.00  0.00     0.124 A 
HETATM   30  F   UNL     1      29.562  42.326  52.203  1.00  0.00    -0.205 F 
HETATM   31  C   UNL     1      29.136  43.831  53.981  1.00  0.00    -0.023 A 
HETATM   32  C   UNL     1      30.254  43.246  54.788  1.00  0.00     0.051 C 
HETATM   33  C   UNL     1      28.329  44.845  54.506  1.00  0.00     0.012 A 
HETATM   34  C   UNL     1      27.247  45.341  53.770  1.00  0.00     0.030 A 
ENDBRANCH  24  27
ENDBRANCH  22  23
ENDBRANCH   4  22
TORSDOF 8
ENDMDL
MODEL 10
REMARK VINA RESULT:      -7.9      3.525      9.024
REMARK  8 active torsions:
REMARK  status: ('A' for Active; 'I' for Inactive)
REMARK    1  A    between atoms: C_2  and  O_3 
REMARK    2  A    between atoms: O_3  and  C_4 
REMARK    3  A    between atoms: C_5  and  N_6 
REMARK       I    between atoms: N_6  and  C_7 
REMARK    4  A    between atoms: C_7  and  C_8 
REMARK    5  A    between atoms: N_11  and  C_12 
REMARK    6  A    between atoms: C_12  and  C_13 
REMARK       I    between atoms: C_13  and  N_14 
REMARK    7  A    between atoms: N_14  and  C_15 
REMARK    8  A    between atoms: C_24  and  N_25 
ROOT
HETATM    1  C   UNL     1      22.877  45.884  48.389  1.00  0.00     0.187 C 
HETATM    2  N   UNL     1      23.401  46.501  49.506  1.00  0.00    -0.150 NA
HETATM    3  N   UNL     1      24.486  45.835  49.878  1.00  0.00     0.007 NA
HETATM    4  N   UNL     1      24.612  44.782  49.046  1.00  0.00    -0.248 N 
HETATM    5  C   UNL     1      23.700  44.832  48.022  1.00  0.00     0.151 C 
ENDROOT
BRANCH   1   6
HETATM    6  C   UNL     1      21.665  46.316  47.723  1.00  0.00     0.280 C 
HETATM    7  N   UNL     1      21.445  47.655  47.477  1.00  0.00    -0.319 N 
HETATM    8  H   UNL     1      20.788  47.788  46.722  1.00  0.00     0.169 HD
HETATM    9  O   UNL     1      20.843  45.505  47.288  1.00  0.00    -0.265 OA
BRANCH   7  10
HETATM   10  C   UNL     1      21.885  48.821  48.140  1.00  0.00     0.068 A 
HETATM   11  C   UNL     1      21.277  49.429  49.249  1.00  0.00     0.095 A 
HETATM   12  C   UNL     1      21.818  50.589  49.819  1.00  0.00     0.039 A 
HETATM   13  C   UNL     1      22.933  51.197  49.251  1.00  0.00     0.003 A 
HETATM   14  C   UNL     1      23.512  50.644  48.114  1.00  0.00     0.002 A 
HETATM   15  C   UNL     1      22.989  49.468  47.562  1.00  0.00     0.032 A 
BRANCH  11  16
HETATM   16  O   UNL     1      20.127  48.963  49.822  1.00  0.00    -0.349 OA
BRANCH  16  17
HETATM   17  C   UNL     1      19.225  50.027  50.146  1.00  0.00     0.171 C 
HETATM   18  C   UNL     1      18.304  50.224  48.955  1.00  0.00     0.034 C 
ENDBRANCH  16  17
ENDBRANCH  11  16
ENDBRANCH   7  10
ENDBRANCH   1   6
BRANCH   5  19
HETATM   19  N   UNL     1      23.665  43.944  46.998  1.00  0.00    -0.382 N 
HETATM   20  H   UNL     1      23.069  43.110  47.018  1.00  0.00     0.157 HD
HETATM   21  H   UNL     1      24.525  43.779  46.472  1.00  0.00     0.157 HD
ENDBRANCH   5  19
BRANCH   4  22
HETATM   22  C   UNL     1      25.510  43.713  49.398  1.00  0.00     0.251 C 
BRANCH  22  23
HETATM   23  C   UNL     1      26.654  44.199  50.252  1.00  0.00     0.241 C 
HETATM   24  N   UNL     1      26.597  43.753  51.561  1.00  0.00    -0.326 N 
HETATM   25  H   UNL     1      25.695  43.438  51.906  1.00  0.00     0.169 HD
HETATM   26  O   UNL     1      27.529  44.919  49.776  1.00  0.00    -0.271 OA
BRANCH  24  27
HETATM   27  C   UNL     1      27.653  43.775  52.495  1.00  0.00     0.037 A 
HETATM   28  C   UNL     1      28.839  43.059  52.328  1.00  0.00     0.072 A 
HETATM   29  C   UNL     1      29.802  43.062  53.336  1.00  0.00     0.124 A 
HETATM   30  F   UNL     1      30.913  42.331  53.166  1.00  0.00    -0.205 F 
HETATM   31  C   UNL     1      29.623  43.787  54.515  1.00  0.00    -0.023 A 
HETATM   32  C   UNL     1      30.645  43.733  55.608  1.00  0.00     0.051 C 
HETATM   33  C   UNL     1      28.435  44.505  54.681  1.00  0.00     0.012 A 
HETATM   34  C   UNL     1      27.457  44.496  53.680  1.00  0.00     0.030 A 
ENDBRANCH  24  27
ENDBRANCH  22  23
ENDBRANCH   4  22
TORSDOF 8
ENDMDL
