MODEL 1
REMARK VINA RESULT:      -8.5      0.000      0.000
REMARK  6 active torsions:
REMARK  status: ('A' for Active; 'I' for Inactive)
REMARK    1  A    between atoms: C_5  and  N_6 
REMARK    2  A    between atoms: N_6  and  C_7 
REMARK    3  A    between atoms: C_7  and  C_8 
REMARK    4  A    between atoms: N_10  and  C_12 
REMARK    5  A    between atoms: C_12  and  C_13 
REMARK    6  A    between atoms: C_14  and  O_15 
ROOT
HETATM    1  C   UNL     1      26.485  45.429  53.151  1.00  0.00     0.031 C 
HETATM    2  C   UNL     1      26.090  46.806  52.638  1.00  0.00     0.241 C 
HETATM    3  N   UNL     1      25.228  46.498  51.436  1.00  0.00    -0.067 N 
HETATM    4  H   UNL     1      24.460  47.194  51.399  1.00  0.00     0.280 HD
HETATM    5  C   UNL     1      24.647  45.116  51.629  1.00  0.00     0.235 C 
HETATM    6  C   UNL     1      25.181  44.656  52.981  1.00  0.00     0.035 C 
ENDROOT
BRANCH   1   7
HETATM    7  C   UNL     1      27.019  45.421  54.588  1.00  0.00     0.127 C 
BRANCH   7   8
HETATM    8  N   UNL     1      28.469  45.275  54.582  1.00  0.00    -0.376 N 
HETATM    9  H   UNL     1      28.812  44.550  53.943  1.00  0.00     0.161 HD
BRANCH   8  10
HETATM   10  C   UNL     1      29.222  45.221  55.760  1.00  0.00     0.101 A 
HETATM   11  N   UNL     1      30.243  44.366  55.941  1.00  0.00    -0.347 N 
HETATM   12  C   UNL     1      30.976  44.307  57.072  1.00  0.00     0.007 A 
HETATM   13  H   UNL     1      30.495  43.746  55.182  1.00  0.00     0.167 HD
HETATM   14  C   UNL     1      32.126  43.353  57.143  1.00  0.00     0.068 C 
HETATM   15  C   UNL     1      30.656  45.144  58.139  1.00  0.00     0.025 A 
HETATM   16  C   UNL     1      29.591  46.025  58.015  1.00  0.00     0.006 A 
HETATM   17  C   UNL     1      28.875  46.066  56.824  1.00  0.00     0.048 A 
ENDBRANCH   8  10
ENDBRANCH   7   8
ENDBRANCH   1   7
BRANCH   3  18
HETATM   18  C   UNL     1      25.906  46.675  50.095  1.00  0.00     0.276 C 
BRANCH  18  19
HETATM   19  C   UNL     1      25.539  47.957  49.402  1.00  0.00     0.002 A 
HETATM   20  C   UNL     1      26.502  48.722  48.733  1.00  0.00     0.073 A 
HETATM   21  C   UNL     1      26.170  49.924  48.109  1.00  0.00     0.038 A 
HETATM   22  C   UNL     1      24.850  50.374  48.146  1.00  0.00     0.022 A 
HETATM   23  C   UNL     1      23.880  49.626  48.809  1.00  0.00     0.011 A 
HETATM   24 BR   UNL     1      22.089  50.225  48.845  1.00  0.00    -0.051 Br
HETATM   25  C   UNL     1      24.217  48.428  49.442  1.00  0.00     0.030 A 
BRANCH  20  26
HETATM   26  O   UNL     1      27.785  48.247  48.684  1.00  0.00    -0.360 OA
HETATM   27  H   UNL     1      28.363  48.906  49.123  1.00  0.00     0.217 HD
ENDBRANCH  20  26
ENDBRANCH  18  19
ENDBRANCH   3  18
TORSDOF 6
ENDMDL
MODEL 2
REMARK VINA RESULT:      -8.5      3.832      9.307
REMARK  6 active torsions:
REMARK  status: ('A' for Active; 'I' for Inactive)
REMARK    1  A    between atoms: C_5  and  N_6 
REMARK    2  A    between atoms: N_6  and  C_7 
REMARK    3  A    between atoms: C_7  and  C_8 
REMARK    4  A    between atoms: N_10  and  C_12 
REMARK    5  A    between atoms: C_12  and  C_13 
REMARK    6  A    between atoms: C_14  and  O_15 
ROOT
HETATM    1  C   UNL     1      24.725  46.001  51.021  1.00  0.00     0.031 C 
HETATM    2  C   UNL     1      26.143  45.548  51.338  1.00  0.00     0.241 C 
HETATM    3  N   UNL     1      25.950  44.161  51.904  1.00  0.00    -0.067 N 
HETATM    4  H   UNL     1      26.735  43.565  51.582  1.00  0.00     0.280 HD
HETATM    5  C   UNL     1      24.648  43.619  51.360  1.00  0.00     0.235 C 
HETATM    6  C   UNL     1      24.119  44.723  50.450  1.00  0.00     0.035 C 
ENDROOT
BRANCH   1   7
HETATM    7  C   UNL     1      24.644  47.198  50.066  1.00  0.00     0.127 C 
BRANCH   7   8
HETATM    8  N   UNL     1      23.254  47.473  49.726  1.00  0.00    -0.376 N 
HETATM    9  H   UNL     1      22.818  46.753  49.140  1.00  0.00     0.161 HD
BRANCH   8  10
HETATM   10  C   UNL     1      22.826  48.728  49.281  1.00  0.00     0.101 A 
HETATM   11  N   UNL     1      21.725  49.339  49.752  1.00  0.00    -0.347 N 
HETATM   12  C   UNL     1      21.305  50.550  49.331  1.00  0.00     0.007 A 
HETATM   13  H   UNL     1      21.191  48.880  50.479  1.00  0.00     0.167 HD
HETATM   14  C   UNL     1      20.095  51.159  49.964  1.00  0.00     0.068 C 
HETATM   15  C   UNL     1      22.014  51.209  48.328  1.00  0.00     0.025 A 
HETATM   16  C   UNL     1      23.142  50.609  47.787  1.00  0.00     0.006 A 
HETATM   17  C   UNL     1      23.549  49.369  48.265  1.00  0.00     0.048 A 
ENDBRANCH   8  10
ENDBRANCH   7   8
ENDBRANCH   1   7
BRANCH   3  18
HETATM   18  C   UNL     1      26.049  44.062  53.411  1.00  0.00     0.276 C 
BRANCH  18  19
HETATM   19  C   UNL     1      27.435  43.748  53.901  1.00  0.00     0.002 A 
HETATM   20  C   UNL     1      28.059  42.534  53.587  1.00  0.00     0.073 A 
HETATM   21  C   UNL     1      29.334  42.229  54.058  1.00  0.00     0.038 A 
HETATM   22  C   UNL     1      30.010  43.152  54.857  1.00  0.00     0.022 A 
HETATM   23  C   UNL     1      29.402  44.363  55.181  1.00  0.00     0.011 A 
HETATM   24 BR   UNL     1      30.321  45.622  56.248  1.00  0.00    -0.051 Br
HETATM   25  C   UNL     1      28.120  44.662  54.716  1.00  0.00     0.030 A 
BRANCH  20  26
HETATM   26  O   UNL     1      27.390  41.655  52.777  1.00  0.00    -0.360 OA
HETATM   27  H   UNL     1      27.787  40.769  52.910  1.00  0.00     0.217 HD
ENDBRANCH  20  26
ENDBRANCH  18  19
ENDBRANCH   3  18
TORSDOF 6
ENDMDL
MODEL 3
REMARK VINA RESULT:      -8.3      3.750      9.063
REMARK  6 active torsions:
REMARK  status: ('A' for Active; 'I' for Inactive)
REMARK    1  A    between atoms: C_5  and  N_6 
REMARK    2  A    between atoms: N_6  and  C_7 
REMARK    3  A    between atoms: C_7  and  C_8 
REMARK    4  A    between atoms: N_10  and  C_12 
REMARK    5  A    between atoms: C_12  and  C_13 
REMARK    6  A    between atoms: C_14  and  O_15 
ROOT
HETATM    1  C   UNL     1      24.589  45.775  50.820  1.00  0.00     0.031 C 
HETATM    2  C   UNL     1      25.976  45.681  51.438  1.00  0.00     0.241 C 
HETATM    3  N   UNL     1      25.952  44.351  52.154  1.00  0.00    -0.067 N 
HETATM    4  H   UNL     1      26.888  43.913  52.059  1.00  0.00     0.280 HD
HETATM    5  C   UNL     1      24.917  43.482  51.476  1.00  0.00     0.235 C 
HETATM    6  C   UNL     1      24.372  44.343  50.341  1.00  0.00     0.035 C 
ENDROOT
BRANCH   1   7
HETATM    7  C   UNL     1      24.464  46.819  49.705  1.00  0.00     0.127 C 
BRANCH   7   8
HETATM    8  N   UNL     1      23.101  47.332  49.650  1.00  0.00    -0.376 N 
HETATM    9  H   UNL     1      22.435  46.698  49.196  1.00  0.00     0.161 HD
BRANCH   8  10
HETATM   10  C   UNL     1      22.809  48.642  49.254  1.00  0.00     0.101 A 
HETATM   11  N   UNL     1      21.705  49.299  49.647  1.00  0.00    -0.347 N 
HETATM   12  C   UNL     1      21.414  50.563  49.273  1.00  0.00     0.007 A 
HETATM   13  H   UNL     1      21.063  48.834  50.276  1.00  0.00     0.167 HD
HETATM   14  C   UNL     1      20.183  51.216  49.814  1.00  0.00     0.068 C 
HETATM   15  C   UNL     1      22.274  51.233  48.404  1.00  0.00     0.025 A 
HETATM   16  C   UNL     1      23.414  50.588  47.945  1.00  0.00     0.006 A 
HETATM   17  C   UNL     1      23.683  49.293  48.373  1.00  0.00     0.048 A 
ENDBRANCH   8  10
ENDBRANCH   7   8
ENDBRANCH   1   7
BRANCH   3  18
HETATM   18  C   UNL     1      25.768  44.431  53.654  1.00  0.00     0.276 C 
BRANCH  18  19
HETATM   19  C   UNL     1      26.971  44.972  54.377  1.00  0.00     0.002 A 
HETATM   20  C   UNL     1      27.002  46.290  54.848  1.00  0.00     0.073 A 
HETATM   21  C   UNL     1      28.124  46.802  55.498  1.00  0.00     0.038 A 
HETATM   22  C   UNL     1      29.240  45.986  55.688  1.00  0.00     0.022 A 
HETATM   23  C   UNL     1      29.225  44.673  55.222  1.00  0.00     0.011 A 
HETATM   24 BR   UNL     1      30.727  43.560  55.495  1.00  0.00    -0.051 Br
HETATM   25  C   UNL     1      28.104  44.165  54.563  1.00  0.00     0.030 A 
BRANCH  20  26
HETATM   26  O   UNL     1      25.886  47.064  54.677  1.00  0.00    -0.360 OA
HETATM   27  H   UNL     1      25.106  46.472  54.718  1.00  0.00     0.217 HD
ENDBRANCH  20  26
ENDBRANCH  18  19
ENDBRANCH   3  18
TORSDOF 6
ENDMDL
MODEL 4
REMARK VINA RESULT:      -8.0      1.456      2.152
REMARK  6 active torsions:
REMARK  status: ('A' for Active; 'I' for Inactive)
REMARK    1  A    between atoms: C_5  and  N_6 
REMARK    2  A    between atoms: N_6  and  C_7 
REMARK    3  A    between atoms: C_7  and  C_8 
REMARK    4  A    between atoms: N_10  and  C_12 
REMARK    5  A    between atoms: C_12  and  C_13 
REMARK    6  A    between atoms: C_14  and  O_15 
ROOT
HETATM    1  C   UNL     1      26.534  45.120  52.026  1.00  0.00     0.031 C 
HETATM    2  C   UNL     1      25.308  45.820  51.457  1.00  0.00     0.241 C 
HETATM    3  N   UNL     1      25.793  46.349  50.127  1.00  0.00    -0.067 N 
HETATM    4  H   UNL     1      25.019  46.266  49.442  1.00  0.00     0.280 HD
HETATM    5  C   UNL     1      26.954  45.488  49.685  1.00  0.00     0.235 C 
HETATM    6  C   UNL     1      27.100  44.440  50.783  1.00  0.00     0.035 C 
ENDROOT
BRANCH   1   7
HETATM    7  C   UNL     1      26.229  44.147  53.171  1.00  0.00     0.127 C 
BRANCH   7   8
HETATM    8  N   UNL     1      26.712  44.694  54.433  1.00  0.00    -0.376 N 
HETATM    9  H   UNL     1      26.458  45.675  54.586  1.00  0.00     0.161 HD
BRANCH   8  10
HETATM   10  C   UNL     1      28.023  44.499  54.881  1.00  0.00     0.101 A 
HETATM   11  N   UNL     1      28.608  45.282  55.803  1.00  0.00    -0.347 N 
HETATM   12  C   UNL     1      29.871  45.102  56.244  1.00  0.00     0.007 A 
HETATM   13  H   UNL     1      28.069  46.037  56.210  1.00  0.00     0.167 HD
HETATM   14  C   UNL     1      30.402  46.002  57.314  1.00  0.00     0.068 C 
HETATM   15  C   UNL     1      30.643  44.075  55.704  1.00  0.00     0.025 A 
HETATM   16  C   UNL     1      30.096  43.255  54.728  1.00  0.00     0.006 A 
HETATM   17  C   UNL     1      28.784  43.466  54.318  1.00  0.00     0.048 A 
ENDBRANCH   8  10
ENDBRANCH   7   8
ENDBRANCH   1   7
BRANCH   3  18
HETATM   18  C   UNL     1      26.109  47.829  50.101  1.00  0.00     0.276 C 
BRANCH  18  19
HETATM   19  C   UNL     1      25.122  48.638  49.305  1.00  0.00     0.002 A 
HETATM   20  C   UNL     1      25.550  49.604  48.386  1.00  0.00     0.073 A 
HETATM   21  C   UNL     1      24.639  50.373  47.664  1.00  0.00     0.038 A 
HETATM   22  C   UNL     1      23.271  50.175  47.855  1.00  0.00     0.022 A 
HETATM   23  C   UNL     1      22.829  49.220  48.768  1.00  0.00     0.011 A 
HETATM   24 BR   UNL     1      20.978  48.939  49.015  1.00  0.00    -0.051 Br
HETATM   25  C   UNL     1      23.744  48.458  49.498  1.00  0.00     0.030 A 
BRANCH  20  26
HETATM   26  O   UNL     1      26.897  49.760  48.193  1.00  0.00    -0.360 OA
HETATM   27  H   UNL     1      27.258  50.219  48.980  1.00  0.00     0.217 HD
ENDBRANCH  20  26
ENDBRANCH  18  19
ENDBRANCH   3  18
TORSDOF 6
ENDMDL
MODEL 5
REMARK VINA RESULT:      -7.9      3.123      4.223
REMARK  6 active torsions:
REMARK  status: ('A' for Active; 'I' for Inactive)
REMARK    1  A    between atoms: C_5  and  N_6 
REMARK    2  A    between atoms: N_6  and  C_7 
REMARK    3  A    between atoms: C_7  and  C_8 
REMARK    4  A    between atoms: N_10  and  C_12 
REMARK    5  A    between atoms: C_12  and  C_13 
REMARK    6  A    between atoms: C_14  and  O_15 
ROOT
HETATM    1  C   UNL     1      29.299  42.176  52.420  1.00  0.00     0.031 C 
HETATM    2  C   UNL     1      27.923  42.817  52.521  1.00  0.00     0.241 C 
HETATM    3  N   UNL     1      27.126  42.108  51.452  1.00  0.00    -0.067 N 
HETATM    4  H   UNL     1      26.158  41.974  51.801  1.00  0.00     0.280 HD
HETATM    5  C   UNL     1      27.769  40.760  51.216  1.00  0.00     0.235 C 
HETATM    6  C   UNL     1      28.936  40.711  52.197  1.00  0.00     0.035 C 
ENDROOT
BRANCH   1   7
HETATM    7  C   UNL     1      30.194  42.406  53.644  1.00  0.00     0.127 C 
BRANCH   7   8
HETATM    8  N   UNL     1      29.939  43.725  54.208  1.00  0.00    -0.376 N 
HETATM    9  H   UNL     1      30.204  44.500  53.591  1.00  0.00     0.161 HD
BRANCH   8  10
HETATM   10  C   UNL     1      30.294  44.060  55.519  1.00  0.00     0.101 A 
HETATM   11  N   UNL     1      29.702  45.049  56.211  1.00  0.00    -0.347 N 
HETATM   12  C   UNL     1      30.034  45.379  57.476  1.00  0.00     0.007 A 
HETATM   13  H   UNL     1      28.948  45.563  55.771  1.00  0.00     0.167 HD
HETATM   14  C   UNL     1      29.271  46.462  58.169  1.00  0.00     0.068 C 
HETATM   15  C   UNL     1      31.069  44.694  58.111  1.00  0.00     0.025 A 
HETATM   16  C   UNL     1      31.733  43.683  57.431  1.00  0.00     0.006 A 
HETATM   17  C   UNL     1      31.343  43.364  56.135  1.00  0.00     0.048 A 
ENDBRANCH   8  10
ENDBRANCH   7   8
ENDBRANCH   1   7
BRANCH   3  18
HETATM   18  C   UNL     1      26.917  42.896  50.177  1.00  0.00     0.276 C 
BRANCH  18  19
HETATM   19  C   UNL     1      26.271  44.235  50.399  1.00  0.00     0.002 A 
HETATM   20  C   UNL     1      25.064  44.351  51.101  1.00  0.00     0.073 A 
HETATM   21  C   UNL     1      24.450  45.588  51.289  1.00  0.00     0.038 A 
HETATM   22  C   UNL     1      25.049  46.738  50.772  1.00  0.00     0.022 A 
HETATM   23  C   UNL     1      26.248  46.639  50.070  1.00  0.00     0.011 A 
HETATM   24 BR   UNL     1      27.070  48.195  49.385  1.00  0.00    -0.051 Br
HETATM   25  C   UNL     1      26.856  45.397  49.874  1.00  0.00     0.030 A 
BRANCH  20  26
HETATM   26  O   UNL     1      24.509  43.214  51.625  1.00  0.00    -0.360 OA
HETATM   27  H   UNL     1      23.927  42.826  50.938  1.00  0.00     0.217 HD
ENDBRANCH  20  26
ENDBRANCH  18  19
ENDBRANCH   3  18
TORSDOF 6
ENDMDL
MODEL 6
REMARK VINA RESULT:      -7.8      5.427      6.811
REMARK  6 active torsions:
REMARK  status: ('A' for Active; 'I' for Inactive)
REMARK    1  A    between atoms: C_5  and  N_6 
REMARK    2  A    between atoms: N_6  and  C_7 
REMARK    3  A    between atoms: C_7  and  C_8 
REMARK    4  A    between atoms: N_10  and  C_12 
REMARK    5  A    between atoms: C_12  and  C_13 
REMARK    6  A    between atoms: C_14  and  O_15 
ROOT
HETATM    1  C   UNL     1      26.907  43.497  52.984  1.00  0.00     0.031 C 
HETATM    2  C   UNL     1      27.872  42.330  52.834  1.00  0.00     0.241 C 
HETATM    3  N   UNL     1      27.794  41.996  51.363  1.00  0.00    -0.067 N 
HETATM    4  H   UNL     1      28.741  41.723  51.040  1.00  0.00     0.280 HD
HETATM    5  C   UNL     1      27.350  43.242  50.631  1.00  0.00     0.235 C 
HETATM    6  C   UNL     1      27.204  44.300  51.721  1.00  0.00     0.035 C 
ENDROOT
BRANCH   1   7
HETATM    7  C   UNL     1      27.085  44.301  54.277  1.00  0.00     0.127 C 
BRANCH   7   8
HETATM    8  N   UNL     1      28.410  44.907  54.310  1.00  0.00    -0.376 N 
HETATM    9  H   UNL     1      29.028  44.599  53.552  1.00  0.00     0.161 HD
BRANCH   8  10
HETATM   10  C   UNL     1      29.162  45.000  55.486  1.00  0.00     0.101 A 
HETATM   11  N   UNL     1      30.192  44.185  55.766  1.00  0.00    -0.347 N 
HETATM   12  C   UNL     1      30.925  44.267  56.896  1.00  0.00     0.007 A 
HETATM   13  H   UNL     1      30.453  43.482  55.085  1.00  0.00     0.167 HD
HETATM   14  C   UNL     1      32.085  43.341  57.079  1.00  0.00     0.068 C 
HETATM   15  C   UNL     1      30.594  45.220  57.857  1.00  0.00     0.025 A 
HETATM   16  C   UNL     1      29.520  46.068  57.630  1.00  0.00     0.006 A 
HETATM   17  C   UNL     1      28.805  45.960  56.443  1.00  0.00     0.048 A 
ENDBRANCH   8  10
ENDBRANCH   7   8
ENDBRANCH   1   7
BRANCH   3  18
HETATM   18  C   UNL     1      26.958  40.781  51.023  1.00  0.00     0.276 C 
BRANCH  18  19
HETATM   19  C   UNL     1      27.622  39.853  50.044  1.00  0.00     0.002 A 
HETATM   20  C   UNL     1      28.813  39.190  50.365  1.00  0.00     0.073 A 
HETATM   21  C   UNL     1      29.444  38.347  49.452  1.00  0.00     0.038 A 
HETATM   22  C   UNL     1      28.878  38.154  48.191  1.00  0.00     0.022 A 
HETATM   23  C   UNL     1      27.695  38.809  47.855  1.00  0.00     0.011 A 
HETATM   24 BR   UNL     1      26.917  38.535  46.155  1.00  0.00    -0.051 Br
HETATM   25  C   UNL     1      27.070  39.660  48.768  1.00  0.00     0.030 A 
BRANCH  20  26
HETATM   26  O   UNL     1      29.335  39.370  51.618  1.00  0.00    -0.360 OA
HETATM   27  H   UNL     1      28.938  40.186  51.990  1.00  0.00     0.217 HD
ENDBRANCH  20  26
ENDBRANCH  18  19
ENDBRANCH   3  18
TORSDOF 6
ENDMDL
MODEL 7
REMARK VINA RESULT:      -7.8      3.657      8.524
REMARK  6 active torsions:
REMARK  status: ('A' for Active; 'I' for Inactive)
REMARK    1  A    between atoms: C_5  and  N_6 
REMARK    2  A    between atoms: N_6  and  C_7 
REMARK    3  A    between atoms: C_7  and  C_8 
REMARK    4  A    between atoms: N_10  and  C_12 
REMARK    5  A    between atoms: C_12  and  C_13 
REMARK    6  A    between atoms: C_14  and  O_15 
ROOT
HETATM    1  C   UNL     1      25.278  44.163  50.187  1.00  0.00     0.031 C 
HETATM    2  C   UNL     1      26.472  44.756  50.922  1.00  0.00     0.241 C 
HETATM    3  N   UNL     1      27.234  43.540  51.392  1.00  0.00    -0.067 N 
HETATM    4  H   UNL     1      28.249  43.744  51.323  1.00  0.00     0.280 HD
HETATM    5  C   UNL     1      26.885  42.394  50.471  1.00  0.00     0.235 C 
HETATM    6  C   UNL     1      25.926  42.996  49.450  1.00  0.00     0.035 C 
ENDROOT
BRANCH   1   7
HETATM    7  C   UNL     1      24.555  45.148  49.261  1.00  0.00     0.127 C 
BRANCH   7   8
HETATM    8  N   UNL     1      24.074  46.292  50.026  1.00  0.00    -0.376 N 
HETATM    9  H   UNL     1      23.141  46.161  50.430  1.00  0.00     0.161 HD
BRANCH   8  10
HETATM   10  C   UNL     1      24.173  47.604  49.551  1.00  0.00     0.101 A 
HETATM   11  N   UNL     1      25.343  48.189  49.245  1.00  0.00    -0.347 N 
HETATM   12  C   UNL     1      25.449  49.453  48.784  1.00  0.00     0.007 A 
HETATM   13  H   UNL     1      26.194  47.649  49.342  1.00  0.00     0.167 HD
HETATM   14  C   UNL     1      26.799  49.984  48.424  1.00  0.00     0.068 C 
HETATM   15  C   UNL     1      24.299  50.227  48.642  1.00  0.00     0.025 A 
HETATM   16  C   UNL     1      23.067  49.680  48.972  1.00  0.00     0.006 A 
HETATM   17  C   UNL     1      23.003  48.367  49.424  1.00  0.00     0.048 A 
ENDBRANCH   8  10
ENDBRANCH   7   8
ENDBRANCH   1   7
BRANCH   3  18
HETATM   18  C   UNL     1      27.059  43.198  52.856  1.00  0.00     0.276 C 
BRANCH  18  19
HETATM   19  C   UNL     1      28.287  43.460  53.683  1.00  0.00     0.002 A 
HETATM   20  C   UNL     1      29.458  42.715  53.501  1.00  0.00     0.073 A 
HETATM   21  C   UNL     1      30.591  42.938  54.282  1.00  0.00     0.038 A 
HETATM   22  C   UNL     1      30.562  43.929  55.265  1.00  0.00     0.022 A 
HETATM   23  C   UNL     1      29.404  44.677  55.461  1.00  0.00     0.011 A 
HETATM   24 BR   UNL     1      29.368  46.030  56.779  1.00  0.00    -0.051 Br
HETATM   25  C   UNL     1      28.267  44.444  54.684  1.00  0.00     0.030 A 
BRANCH  20  26
HETATM   26  O   UNL     1      29.474  41.769  52.511  1.00  0.00    -0.360 OA
HETATM   27  H   UNL     1      30.365  41.359  52.507  1.00  0.00     0.217 HD
ENDBRANCH  20  26
ENDBRANCH  18  19
ENDBRANCH   3  18
TORSDOF 6
ENDMDL
MODEL 8
REMARK VINA RESULT:      -7.8     12.542     13.655
REMARK  6 active torsions:
REMARK  status: ('A' for Active; 'I' for Inactive)
REMARK    1  A    between atoms: C_5  and  N_6 
REMARK    2  A    between atoms: N_6  and  C_7 
REMARK    3  A    between atoms: C_7  and  C_8 
REMARK    4  A    between atoms: N_10  and  C_12 
REMARK    5  A    between atoms: C_12  and  C_13 
REMARK    6  A    between atoms: C_14  and  O_15 
ROOT
HETATM    1  C   UNL     1      28.863  48.010  39.221  1.00  0.00     0.031 C 
HETATM    2  C   UNL     1      27.975  48.925  40.053  1.00  0.00     0.241 C 
HETATM    3  N   UNL     1      27.067  49.560  39.026  1.00  0.00    -0.067 N 
HETATM    4  H   UNL     1      26.124  49.665  39.444  1.00  0.00     0.280 HD
HETATM    5  C   UNL     1      26.992  48.628  37.838  1.00  0.00     0.235 C 
HETATM    6  C   UNL     1      27.860  47.435  38.227  1.00  0.00     0.035 C 
ENDROOT
BRANCH   1   7
HETATM    7  C   UNL     1      29.602  46.940  40.034  1.00  0.00     0.127 C 
BRANCH   7   8
HETATM    8  N   UNL     1      31.034  47.212  40.032  1.00  0.00    -0.376 N 
HETATM    9  H   UNL     1      31.617  46.369  40.051  1.00  0.00     0.161 HD
BRANCH   8  10
HETATM   10  C   UNL     1      31.615  48.173  40.865  1.00  0.00     0.101 A 
HETATM   11  N   UNL     1      32.879  48.606  40.719  1.00  0.00    -0.347 N 
HETATM   12  C   UNL     1      33.448  49.534  41.515  1.00  0.00     0.007 A 
HETATM   13  H   UNL     1      33.432  48.234  39.956  1.00  0.00     0.167 HD
HETATM   14  C   UNL     1      34.846  49.980  41.226  1.00  0.00     0.068 C 
HETATM   15  C   UNL     1      32.718  50.065  42.577  1.00  0.00     0.025 A 
HETATM   16  C   UNL     1      31.417  49.631  42.790  1.00  0.00     0.006 A 
HETATM   17  C   UNL     1      30.864  48.687  41.932  1.00  0.00     0.048 A 
ENDBRANCH   8  10
ENDBRANCH   7   8
ENDBRANCH   1   7
BRANCH   3  18
HETATM   18  C   UNL     1      27.424  50.980  38.643  1.00  0.00     0.276 C 
BRANCH  18  19
HETATM   19  C   UNL     1      28.439  51.610  39.556  1.00  0.00     0.002 A 
HETATM   20  C   UNL     1      28.070  52.122  40.807  1.00  0.00     0.073 A 
HETATM   21  C   UNL     1      29.003  52.728  41.647  1.00  0.00     0.038 A 
HETATM   22  C   UNL     1      30.334  52.824  41.239  1.00  0.00     0.022 A 
HETATM   23  C   UNL     1      30.716  52.322  39.997  1.00  0.00     0.011 A 
HETATM   24 BR   UNL     1      32.520  52.436  39.450  1.00  0.00    -0.051 Br
HETATM   25  C   UNL     1      29.778  51.725  39.153  1.00  0.00     0.030 A 
BRANCH  20  26
HETATM   26  O   UNL     1      26.765  51.990  41.200  1.00  0.00    -0.360 OA
HETATM   27  H   UNL     1      26.562  51.032  41.235  1.00  0.00     0.217 HD
ENDBRANCH  20  26
ENDBRANCH  18  19
ENDBRANCH   3  18
TORSDOF 6
ENDMDL
MODEL 9
REMARK VINA RESULT:      -7.7     12.560     13.432
REMARK  6 active torsions:
REMARK  status: ('A' for Active; 'I' for Inactive)
REMARK    1  A    between atoms: C_5  and  N_6 
REMARK    2  A    between atoms: N_6  and  C_7 
REMARK    3  A    between atoms: C_7  and  C_8 
REMARK    4  A    between atoms: N_10  and  C_12 
REMARK    5  A    between atoms: C_12  and  C_13 
REMARK    6  A    between atoms: C_14  and  O_15 
ROOT
HETATM    1  C   UNL     1      30.786  48.063  39.986  1.00  0.00     0.031 C 
HETATM    2  C   UNL     1      29.495  48.518  40.651  1.00  0.00     0.241 C 
HETATM    3  N   UNL     1      28.507  48.562  39.509  1.00  0.00    -0.067 N 
HETATM    4  H   UNL     1      27.586  48.244  39.863  1.00  0.00     0.280 HD
HETATM    5  C   UNL     1      28.995  47.607  38.443  1.00  0.00     0.235 C 
HETATM    6  C   UNL     1      30.271  47.002  39.019  1.00  0.00     0.035 C 
ENDROOT
BRANCH   1   7
HETATM    7  C   UNL     1      31.848  47.541  40.960  1.00  0.00     0.127 C 
BRANCH   7   8
HETATM    8  N   UNL     1      33.012  48.418  40.947  1.00  0.00    -0.376 N 
HETATM    9  H   UNL     1      33.907  47.921  40.896  1.00  0.00     0.161 HD
BRANCH   8  10
HETATM   10  C   UNL     1      33.150  49.492  41.832  1.00  0.00     0.101 A 
HETATM   11  N   UNL     1      34.299  50.171  41.991  1.00  0.00    -0.347 N 
HETATM   12  C   UNL     1      34.443  51.210  42.840  1.00  0.00     0.007 A 
HETATM   13  H   UNL     1      35.099  49.907  41.428  1.00  0.00     0.167 HD
HETATM   14  C   UNL     1      35.754  51.927  42.895  1.00  0.00     0.068 C 
HETATM   15  C   UNL     1      33.365  51.598  43.633  1.00  0.00     0.025 A 
HETATM   16  C   UNL     1      32.163  50.912  43.529  1.00  0.00     0.006 A 
HETATM   17  C   UNL     1      32.055  49.860  42.627  1.00  0.00     0.048 A 
ENDBRANCH   8  10
ENDBRANCH   7   8
ENDBRANCH   1   7
BRANCH   3  18
HETATM   18  C   UNL     1      28.204  49.944  38.973  1.00  0.00     0.276 C 
BRANCH  18  19
HETATM   19  C   UNL     1      28.909  51.043  39.718  1.00  0.00     0.002 A 
HETATM   20  C   UNL     1      28.241  51.811  40.681  1.00  0.00     0.073 A 
HETATM   21  C   UNL     1      28.884  52.846  41.357  1.00  0.00     0.038 A 
HETATM   22  C   UNL     1      30.222  53.124  41.075  1.00  0.00     0.022 A 
HETATM   23  C   UNL     1      30.899  52.372  40.118  1.00  0.00     0.011 A 
HETATM   24 BR   UNL     1      32.715  52.735  39.747  1.00  0.00    -0.051 Br
HETATM   25  C   UNL     1      30.250  51.342  39.434  1.00  0.00     0.030 A 
BRANCH  20  26
HETATM   26  O   UNL     1      26.938  51.501  40.964  1.00  0.00    -0.360 OA
HETATM   27  H   UNL     1      26.390  52.278  40.723  1.00  0.00     0.217 HD
ENDBRANCH  20  26
ENDBRANCH  18  19
ENDBRANCH   3  18
TORSDOF 6
ENDMDL
MODEL 10
REMARK VINA RESULT:      -7.5      3.997      9.263
REMARK  6 active torsions:
REMARK  status: ('A' for Active; 'I' for Inactive)
REMARK    1  A    between atoms: C_5  and  N_6 
REMARK    2  A    between atoms: N_6  and  C_7 
REMARK    3  A    between atoms: C_7  and  C_8 
REMARK    4  A    between atoms: N_10  and  C_12 
REMARK    5  A    between atoms: C_12  and  C_13 
REMARK    6  A    between atoms: C_14  and  O_15 
ROOT
HETATM    1  C   UNL     1      23.622  46.767  49.471  1.00  0.00     0.031 C 
HETATM    2  C   UNL     1      25.024  46.560  50.024  1.00  0.00     0.241 C 
HETATM    3  N   UNL     1      24.972  45.164  50.601  1.00  0.00    -0.067 N 
HETATM    4  H   UNL     1      25.885  44.705  50.428  1.00  0.00     0.280 HD
HETATM    5  C   UNL     1      23.881  44.408  49.876  1.00  0.00     0.235 C 
HETATM    6  C   UNL     1      23.334  45.401  48.856  1.00  0.00     0.035 C 
ENDROOT
BRANCH   1   7
HETATM    7  C   UNL     1      23.502  47.925  48.474  1.00  0.00     0.127 C 
BRANCH   7   8
HETATM    8  N   UNL     1      23.220  49.167  49.182  1.00  0.00    -0.376 N 
HETATM    9  H   UNL     1      23.681  49.240  50.095  1.00  0.00     0.161 HD
BRANCH   8  10
HETATM   10  C   UNL     1      21.927  49.688  49.294  1.00  0.00     0.101 A 
HETATM   11  N   UNL     1      20.899  48.998  49.819  1.00  0.00    -0.347 N 
HETATM   12  C   UNL     1      19.649  49.491  49.934  1.00  0.00     0.007 A 
HETATM   13  H   UNL     1      21.073  48.064  50.170  1.00  0.00     0.167 HD
HETATM   14  C   UNL     1      18.595  48.653  50.583  1.00  0.00     0.068 C 
HETATM   15  C   UNL     1      19.373  50.772  49.458  1.00  0.00     0.025 A 
HETATM   16  C   UNL     1      20.392  51.516  48.881  1.00  0.00     0.006 A 
HETATM   17  C   UNL     1      21.670  50.975  48.801  1.00  0.00     0.048 A 
ENDBRANCH   8  10
ENDBRANCH   7   8
ENDBRANCH   1   7
BRANCH   3  18
HETATM   18  C   UNL     1      24.840  45.095  52.107  1.00  0.00     0.276 C 
BRANCH  18  19
HETATM   19  C   UNL     1      26.104  44.668  52.799  1.00  0.00     0.002 A 
HETATM   20  C   UNL     1      26.629  43.381  52.624  1.00  0.00     0.073 A 
HETATM   21  C   UNL     1      27.787  42.973  53.283  1.00  0.00     0.038 A 
HETATM   22  C   UNL     1      28.444  43.865  54.133  1.00  0.00     0.022 A 
HETATM   23  C   UNL     1      27.933  45.148  54.320  1.00  0.00     0.011 A 
HETATM   24 BR   UNL     1      28.830  46.362  55.455  1.00  0.00    -0.051 Br
HETATM   25  C   UNL     1      26.767  45.550  53.667  1.00  0.00     0.030 A 
BRANCH  20  26
HETATM   26  O   UNL     1      25.985  42.533  51.763  1.00  0.00    -0.360 OA
HETATM   27  H   UNL     1      26.141  41.618  52.078  1.00  0.00     0.217 HD
ENDBRANCH  20  26
ENDBRANCH  18  19
ENDBRANCH   3  18
TORSDOF 6
ENDMDL
