MODEL 1
REMARK VINA RESULT:      -9.3      0.000      0.000
REMARK  6 active torsions:
REMARK  status: ('A' for Active; 'I' for Inactive)
REMARK    1  A    between atoms: C_2  and  C_3 
REMARK    2  A    between atoms: C_3  and  N_4 
REMARK    3  A    between atoms: C_5  and  S_6 
REMARK    4  A    between atoms: S_6  and  C_7 
REMARK    5  A    between atoms: C_7  and  C_8 
REMARK       I    between atoms: C_8  and  N_9 
REMARK    6  A    between atoms: N_9  and  C_10 
ROOT
HETATM    1  C   UNL     1      25.528  44.364  52.941  1.00  0.00     0.231 C 
HETATM    2  N   UNL     1      26.849  44.753  52.760  1.00  0.00    -0.325 N 
HETATM    3  O   UNL     1      25.024  44.107  54.033  1.00  0.00    -0.272 OA
HETATM    4  H   UNL     1      26.969  45.371  51.964  1.00  0.00     0.169 HD
ENDROOT
BRANCH   1   5
HETATM    5  C   UNL     1      24.700  44.258  51.667  1.00  0.00     0.185 C 
BRANCH   5   6
HETATM    6  S   UNL     1      25.646  44.702  50.171  1.00  0.00    -0.083 SA
BRANCH   6   7
HETATM    7  C   UNL     1      24.687  46.022  49.580  1.00  0.00     0.170 A 
HETATM    8  N   UNL     1      25.047  47.342  49.702  1.00  0.00    -0.324 N 
HETATM    9  C   UNL     1      23.998  48.100  49.215  1.00  0.00     0.065 A 
HETATM   10  C   UNL     1      23.069  47.157  48.779  1.00  0.00     0.088 A 
HETATM   11  C   UNL     1      23.775  49.479  49.108  1.00  0.00     0.034 A 
HETATM   12  N   UNL     1      23.519  45.883  49.001  1.00  0.00    -0.222 NA
HETATM   13  C   UNL     1      21.858  47.578  48.212  1.00  0.00     0.057 A 
HETATM   14  C   UNL     1      21.621  48.950  48.106  1.00  0.00     0.036 A 
HETATM   15 CL   UNL     1      20.137  49.499  47.423  1.00  0.00    -0.084 Cl
HETATM   16  C   UNL     1      22.559  49.886  48.545  1.00  0.00     0.026 A 
BRANCH   8  17
HETATM   17  C   UNL     1      26.276  47.875  50.259  1.00  0.00     0.131 C 
BRANCH  17  18
HETATM   18  C   UNL     1      27.355  48.176  49.216  1.00  0.00     0.016 C 
HETATM   19  C   UNL     1      27.431  49.648  48.831  1.00  0.00     0.006 C 
ENDBRANCH  17  18
ENDBRANCH   8  17
ENDBRANCH   6   7
ENDBRANCH   5   6
ENDBRANCH   1   5
BRANCH   2  20
HETATM   20  C   UNL     1      27.740  44.928  53.848  1.00  0.00     0.054 A 
HETATM   21  C   UNL     1      27.791  46.108  54.649  1.00  0.00     0.040 A 
HETATM   22 BR   UNL     1      26.459  47.471  54.558  1.00  0.00    -0.049 Br
HETATM   23  C   UNL     1      28.746  46.257  55.666  1.00  0.00     0.053 A 
HETATM   24  C   UNL     1      29.603  45.203  55.869  1.00  0.00     0.064 A 
HETATM   25  C   UNL     1      29.523  44.027  55.127  1.00  0.00     0.065 A 
HETATM   26  N   UNL     1      30.640  45.064  56.784  1.00  0.00    -0.306 N 
HETATM   27  N   UNL     1      30.513  43.165  55.584  1.00  0.00    -0.306 N 
HETATM   28  C   UNL     1      28.597  43.851  54.125  1.00  0.00     0.063 A 
HETATM   29  C   UNL     1      31.222  43.798  56.616  1.00  0.00     0.325 A 
HETATM   30  H   UNL     1      30.729  42.240  55.250  1.00  0.00     0.170 HD
HETATM   31  O   UNL     1      32.159  43.339  57.241  1.00  0.00    -0.247 OA
HETATM   32  H   UNL     1      30.957  45.739  57.459  1.00  0.00     0.170 HD
ENDBRANCH   2  20
TORSDOF 6
ENDMDL
MODEL 2
REMARK VINA RESULT:      -9.2      4.287      9.183
REMARK  6 active torsions:
REMARK  status: ('A' for Active; 'I' for Inactive)
REMARK    1  A    between atoms: C_2  and  C_3 
REMARK    2  A    between atoms: C_3  and  N_4 
REMARK    3  A    between atoms: C_5  and  S_6 
REMARK    4  A    between atoms: S_6  and  C_7 
REMARK    5  A    between atoms: C_7  and  C_8 
REMARK       I    between atoms: C_8  and  N_9 
REMARK    6  A    between atoms: N_9  and  C_10 
ROOT
HETATM    1  C   UNL     1      26.317  45.359  49.952  1.00  0.00     0.231 C 
HETATM    2  N   UNL     1      26.120  46.625  50.490  1.00  0.00    -0.325 N 
HETATM    3  O   UNL     1      25.770  44.947  48.930  1.00  0.00    -0.272 OA
HETATM    4  H   UNL     1      26.939  46.975  50.976  1.00  0.00     0.169 HD
ENDROOT
BRANCH   1   5
HETATM    5  C   UNL     1      27.277  44.466  50.726  1.00  0.00     0.185 C 
BRANCH   5   6
HETATM    6  S   UNL     1      26.449  43.512  52.042  1.00  0.00    -0.083 SA
BRANCH   6   7
HETATM    7  C   UNL     1      27.546  43.786  53.359  1.00  0.00     0.170 A 
HETATM    8  N   UNL     1      27.428  44.827  54.248  1.00  0.00    -0.324 N 
HETATM    9  C   UNL     1      28.530  44.781  55.081  1.00  0.00     0.065 A 
HETATM   10  C   UNL     1      29.235  43.657  54.654  1.00  0.00     0.088 A 
HETATM   11  C   UNL     1      28.969  45.585  56.142  1.00  0.00     0.034 A 
HETATM   12  N   UNL     1      28.604  43.051  53.601  1.00  0.00    -0.222 NA
HETATM   13  C   UNL     1      30.431  43.298  55.292  1.00  0.00     0.057 A 
HETATM   14  C   UNL     1      30.882  44.095  56.346  1.00  0.00     0.036 A 
HETATM   15 CL   UNL     1      32.354  43.684  57.143  1.00  0.00    -0.084 Cl
HETATM   16  C   UNL     1      30.167  45.218  56.766  1.00  0.00     0.026 A 
BRANCH   8  17
HETATM   17  C   UNL     1      26.373  45.821  54.309  1.00  0.00     0.131 C 
BRANCH  17  18
HETATM   18  C   UNL     1      26.843  47.247  54.009  1.00  0.00     0.016 C 
HETATM   19  C   UNL     1      26.577  48.223  55.148  1.00  0.00     0.006 C 
ENDBRANCH  17  18
ENDBRANCH   8  17
ENDBRANCH   6   7
ENDBRANCH   5   6
ENDBRANCH   1   5
BRANCH   2  20
HETATM   20  C   UNL     1      25.282  47.585  49.871  1.00  0.00     0.054 A 
HETATM   21  C   UNL     1      25.763  48.777  49.252  1.00  0.00     0.040 A 
HETATM   22 BR   UNL     1      27.614  49.078  48.902  1.00  0.00    -0.049 Br
HETATM   23  C   UNL     1      24.880  49.731  48.723  1.00  0.00     0.053 A 
HETATM   24  C   UNL     1      23.540  49.444  48.803  1.00  0.00     0.064 A 
HETATM   25  C   UNL     1      23.065  48.257  49.356  1.00  0.00     0.065 A 
HETATM   26  N   UNL     1      22.445  50.186  48.377  1.00  0.00    -0.306 N 
HETATM   27  N   UNL     1      21.678  48.271  49.273  1.00  0.00    -0.306 N 
HETATM   28  C   UNL     1      23.906  47.303  49.882  1.00  0.00     0.063 A 
HETATM   29  C   UNL     1      21.274  49.470  48.668  1.00  0.00     0.325 A 
HETATM   30  H   UNL     1      21.033  47.568  49.594  1.00  0.00     0.170 HD
HETATM   31  O   UNL     1      20.130  49.820  48.441  1.00  0.00    -0.247 OA
HETATM   32  H   UNL     1      22.451  51.094  47.941  1.00  0.00     0.170 HD
ENDBRANCH   2  20
TORSDOF 6
ENDMDL
MODEL 3
REMARK VINA RESULT:      -9.0      1.328      2.491
REMARK  6 active torsions:
REMARK  status: ('A' for Active; 'I' for Inactive)
REMARK    1  A    between atoms: C_2  and  C_3 
REMARK    2  A    between atoms: C_3  and  N_4 
REMARK    3  A    between atoms: C_5  and  S_6 
REMARK    4  A    between atoms: S_6  and  C_7 
REMARK    5  A    between atoms: C_7  and  C_8 
REMARK       I    between atoms: C_8  and  N_9 
REMARK    6  A    between atoms: N_9  and  C_10 
ROOT
HETATM    1  C   UNL     1      25.578  44.795  53.116  1.00  0.00     0.231 C 
HETATM    2  N   UNL     1      26.900  45.199  52.979  1.00  0.00    -0.325 N 
HETATM    3  O   UNL     1      25.078  44.402  54.169  1.00  0.00    -0.272 OA
HETATM    4  H   UNL     1      27.019  45.912  52.267  1.00  0.00     0.169 HD
ENDROOT
BRANCH   1   5
HETATM    5  C   UNL     1      24.743  44.855  51.843  1.00  0.00     0.185 C 
BRANCH   5   6
HETATM    6  S   UNL     1      25.613  45.679  50.467  1.00  0.00    -0.083 SA
BRANCH   6   7
HETATM    7  C   UNL     1      24.347  46.706  49.872  1.00  0.00     0.170 A 
HETATM    8  N   UNL     1      23.393  46.299  48.970  1.00  0.00    -0.324 N 
HETATM    9  C   UNL     1      22.627  47.406  48.656  1.00  0.00     0.065 A 
HETATM   10  C   UNL     1      23.158  48.424  49.447  1.00  0.00     0.088 A 
HETATM   11  C   UNL     1      21.548  47.616  47.787  1.00  0.00     0.034 A 
HETATM   12  N   UNL     1      24.207  47.968  50.199  1.00  0.00    -0.222 NA
HETATM   13  C   UNL     1      22.611  49.714  49.388  1.00  0.00     0.057 A 
HETATM   14  C   UNL     1      21.538  49.936  48.521  1.00  0.00     0.036 A 
HETATM   15 CL   UNL     1      20.850  51.513  48.418  1.00  0.00    -0.084 Cl
HETATM   16  C   UNL     1      21.015  48.909  47.734  1.00  0.00     0.026 A 
BRANCH   8  17
HETATM   17  C   UNL     1      23.216  44.973  48.410  1.00  0.00     0.131 C 
BRANCH  17  18
HETATM   18  C   UNL     1      22.349  44.045  49.264  1.00  0.00     0.016 C 
HETATM   19  C   UNL     1      22.900  42.630  49.372  1.00  0.00     0.006 C 
ENDBRANCH  17  18
ENDBRANCH   8  17
ENDBRANCH   6   7
ENDBRANCH   5   6
ENDBRANCH   1   5
BRANCH   2  20
HETATM   20  C   UNL     1      27.796  45.231  54.075  1.00  0.00     0.054 A 
HETATM   21  C   UNL     1      27.890  46.320  54.991  1.00  0.00     0.040 A 
HETATM   22 BR   UNL     1      26.609  47.733  55.044  1.00  0.00    -0.049 Br
HETATM   23  C   UNL     1      28.851  46.331  56.015  1.00  0.00     0.053 A 
HETATM   24  C   UNL     1      29.668  45.232  56.106  1.00  0.00     0.064 A 
HETATM   25  C   UNL     1      29.545  44.141  55.250  1.00  0.00     0.065 A 
HETATM   26  N   UNL     1      30.700  44.963  56.999  1.00  0.00    -0.306 N 
HETATM   27  N   UNL     1      30.503  43.201  55.614  1.00  0.00    -0.306 N 
HETATM   28  C   UNL     1      28.613  44.100  54.239  1.00  0.00     0.063 A 
HETATM   29  C   UNL     1      31.235  43.701  56.701  1.00  0.00     0.325 A 
HETATM   30  H   UNL     1      30.685  42.308  55.187  1.00  0.00     0.170 HD
HETATM   31  O   UNL     1      32.155  43.146  57.274  1.00  0.00    -0.247 OA
HETATM   32  H   UNL     1      31.041  45.555  57.738  1.00  0.00     0.170 HD
ENDBRANCH   2  20
TORSDOF 6
ENDMDL
MODEL 4
REMARK VINA RESULT:      -9.0      2.472      3.652
REMARK  6 active torsions:
REMARK  status: ('A' for Active; 'I' for Inactive)
REMARK    1  A    between atoms: C_2  and  C_3 
REMARK    2  A    between atoms: C_3  and  N_4 
REMARK    3  A    between atoms: C_5  and  S_6 
REMARK    4  A    between atoms: S_6  and  C_7 
REMARK    5  A    between atoms: C_7  and  C_8 
REMARK       I    between atoms: C_8  and  N_9 
REMARK    6  A    between atoms: N_9  and  C_10 
ROOT
HETATM    1  C   UNL     1      27.960  42.053  51.971  1.00  0.00     0.231 C 
HETATM    2  N   UNL     1      28.553  43.298  52.146  1.00  0.00    -0.325 N 
HETATM    3  O   UNL     1      27.697  41.276  52.887  1.00  0.00    -0.272 OA
HETATM    4  H   UNL     1      28.262  43.971  51.445  1.00  0.00     0.169 HD
ENDROOT
BRANCH   1   5
HETATM    5  C   UNL     1      27.647  41.678  50.529  1.00  0.00     0.185 C 
BRANCH   5   6
HETATM    6  S   UNL     1      25.918  42.031  50.066  1.00  0.00    -0.083 SA
BRANCH   6   7
HETATM    7  C   UNL     1      25.971  43.764  49.976  1.00  0.00     0.170 A 
HETATM    8  N   UNL     1      24.866  44.570  50.110  1.00  0.00    -0.324 N 
HETATM    9  C   UNL     1      25.276  45.869  49.877  1.00  0.00     0.065 A 
HETATM   10  C   UNL     1      26.648  45.761  49.656  1.00  0.00     0.088 A 
HETATM   11  C   UNL     1      24.605  47.099  49.842  1.00  0.00     0.034 A 
HETATM   12  N   UNL     1      27.058  44.457  49.736  1.00  0.00    -0.222 NA
HETATM   13  C   UNL     1      27.406  46.909  49.386  1.00  0.00     0.057 A 
HETATM   14  C   UNL     1      26.748  48.139  49.343  1.00  0.00     0.036 A 
HETATM   15 CL   UNL     1      27.651  49.568  49.004  1.00  0.00    -0.084 Cl
HETATM   16  C   UNL     1      25.373  48.236  49.566  1.00  0.00     0.026 A 
BRANCH   8  17
HETATM   17  C   UNL     1      23.506  44.162  50.408  1.00  0.00     0.131 C 
BRANCH  17  18
HETATM   18  C   UNL     1      22.555  44.239  49.212  1.00  0.00     0.016 C 
HETATM   19  C   UNL     1      22.947  43.314  48.067  1.00  0.00     0.006 C 
ENDBRANCH  17  18
ENDBRANCH   8  17
ENDBRANCH   6   7
ENDBRANCH   5   6
ENDBRANCH   1   5
BRANCH   2  20
HETATM   20  C   UNL     1      28.877  43.805  53.429  1.00  0.00     0.054 A 
HETATM   21  C   UNL     1      28.199  44.901  54.042  1.00  0.00     0.040 A 
HETATM   22 BR   UNL     1      26.572  45.620  53.352  1.00  0.00    -0.049 Br
HETATM   23  C   UNL     1      28.613  45.411  55.282  1.00  0.00     0.053 A 
HETATM   24  C   UNL     1      29.677  44.786  55.884  1.00  0.00     0.064 A 
HETATM   25  C   UNL     1      30.307  43.681  55.317  1.00  0.00     0.065 A 
HETATM   26  N   UNL     1      30.305  45.065  57.093  1.00  0.00    -0.306 N 
HETATM   27  N   UNL     1      31.325  43.282  56.176  1.00  0.00    -0.306 N 
HETATM   28  C   UNL     1      29.924  43.157  54.104  1.00  0.00     0.063 A 
HETATM   29  C   UNL     1      31.340  44.138  57.287  1.00  0.00     0.325 A 
HETATM   30  H   UNL     1      31.975  42.523  56.052  1.00  0.00     0.170 HD
HETATM   31  O   UNL     1      32.103  44.086  58.234  1.00  0.00    -0.247 OA
HETATM   32  H   UNL     1      30.089  45.805  57.739  1.00  0.00     0.170 HD
ENDBRANCH   2  20
TORSDOF 6
ENDMDL
MODEL 5
REMARK VINA RESULT:      -9.0      4.199      9.645
REMARK  6 active torsions:
REMARK  status: ('A' for Active; 'I' for Inactive)
REMARK    1  A    between atoms: C_2  and  C_3 
REMARK    2  A    between atoms: C_3  and  N_4 
REMARK    3  A    between atoms: C_5  and  S_6 
REMARK    4  A    between atoms: S_6  and  C_7 
REMARK    5  A    between atoms: C_7  and  C_8 
REMARK       I    between atoms: C_8  and  N_9 
REMARK    6  A    between atoms: N_9  and  C_10 
ROOT
HETATM    1  C   UNL     1      25.208  46.452  51.933  1.00  0.00     0.231 C 
HETATM    2  N   UNL     1      24.926  46.307  50.580  1.00  0.00    -0.325 N 
HETATM    3  O   UNL     1      25.157  47.519  52.541  1.00  0.00    -0.272 OA
HETATM    4  H   UNL     1      24.538  45.396  50.357  1.00  0.00     0.169 HD
ENDROOT
BRANCH   1   5
HETATM    5  C   UNL     1      25.608  45.172  52.654  1.00  0.00     0.185 C 
BRANCH   5   6
HETATM    6  S   UNL     1      27.082  44.382  51.925  1.00  0.00    -0.083 SA
BRANCH   6   7
HETATM    7  C   UNL     1      28.173  44.460  53.274  1.00  0.00     0.170 A 
HETATM    8  N   UNL     1      29.183  43.555  53.493  1.00  0.00    -0.324 N 
HETATM    9  C   UNL     1      29.765  43.875  54.705  1.00  0.00     0.065 A 
HETATM   10  C   UNL     1      29.075  45.012  55.125  1.00  0.00     0.088 A 
HETATM   11  C   UNL     1      30.801  43.305  55.456  1.00  0.00     0.034 A 
HETATM   12  N   UNL     1      28.109  45.363  54.222  1.00  0.00    -0.222 NA
HETATM   13  C   UNL     1      29.411  45.625  56.340  1.00  0.00     0.057 A 
HETATM   14  C   UNL     1      30.439  45.062  57.101  1.00  0.00     0.036 A 
HETATM   15 CL   UNL     1      30.868  45.786  58.605  1.00  0.00    -0.084 Cl
HETATM   16  C   UNL     1      31.122  43.924  56.670  1.00  0.00     0.026 A 
BRANCH   8  17
HETATM   17  C   UNL     1      29.571  42.442  52.646  1.00  0.00     0.131 C 
BRANCH  17  18
HETATM   18  C   UNL     1      28.766  41.163  52.889  1.00  0.00     0.016 C 
HETATM   19  C   UNL     1      28.619  40.294  51.647  1.00  0.00     0.006 C 
ENDBRANCH  17  18
ENDBRANCH   8  17
ENDBRANCH   6   7
ENDBRANCH   5   6
ENDBRANCH   1   5
BRANCH   2  20
HETATM   20  C   UNL     1      24.508  47.396  49.776  1.00  0.00     0.054 A 
HETATM   21  C   UNL     1      25.391  48.406  49.288  1.00  0.00     0.040 A 
HETATM   22 BR   UNL     1      27.290  48.250  49.393  1.00  0.00    -0.049 Br
HETATM   23  C   UNL     1      24.909  49.505  48.559  1.00  0.00     0.053 A 
HETATM   24  C   UNL     1      23.559  49.540  48.316  1.00  0.00     0.064 A 
HETATM   25  C   UNL     1      22.700  48.530  48.741  1.00  0.00     0.065 A 
HETATM   26  N   UNL     1      22.803  50.489  47.637  1.00  0.00    -0.306 N 
HETATM   27  N   UNL     1      21.414  48.859  48.326  1.00  0.00    -0.306 N 
HETATM   28  C   UNL     1      23.141  47.441  49.455  1.00  0.00     0.063 A 
HETATM   29  C   UNL     1      21.460  50.081  47.639  1.00  0.00     0.325 A 
HETATM   30  H   UNL     1      20.564  48.344  48.484  1.00  0.00     0.170 HD
HETATM   31  O   UNL     1      20.519  50.671  47.143  1.00  0.00    -0.247 OA
HETATM   32  H   UNL     1      23.126  51.343  47.213  1.00  0.00     0.170 HD
ENDBRANCH   2  20
TORSDOF 6
ENDMDL
MODEL 6
REMARK VINA RESULT:      -8.9      1.482      1.845
REMARK  6 active torsions:
REMARK  status: ('A' for Active; 'I' for Inactive)
REMARK    1  A    between atoms: C_2  and  C_3 
REMARK    2  A    between atoms: C_3  and  N_4 
REMARK    3  A    between atoms: C_5  and  S_6 
REMARK    4  A    between atoms: S_6  and  C_7 
REMARK    5  A    between atoms: C_7  and  C_8 
REMARK       I    between atoms: C_8  and  N_9 
REMARK    6  A    between atoms: N_9  and  C_10 
ROOT
HETATM    1  C   UNL     1      25.387  44.449  52.820  1.00  0.00     0.231 C 
HETATM    2  N   UNL     1      26.700  44.799  52.534  1.00  0.00    -0.325 N 
HETATM    3  O   UNL     1      25.016  43.957  53.884  1.00  0.00    -0.272 OA
HETATM    4  H   UNL     1      26.765  45.587  51.898  1.00  0.00     0.169 HD
ENDROOT
BRANCH   1   5
HETATM    5  C   UNL     1      24.387  44.705  51.700  1.00  0.00     0.185 C 
BRANCH   5   6
HETATM    6  S   UNL     1      25.181  44.847  50.063  1.00  0.00    -0.083 SA
BRANCH   6   7
HETATM    7  C   UNL     1      24.420  46.292  49.475  1.00  0.00     0.170 A 
HETATM    8  N   UNL     1      24.955  47.549  49.619  1.00  0.00    -0.324 N 
HETATM    9  C   UNL     1      24.027  48.448  49.127  1.00  0.00     0.065 A 
HETATM   10  C   UNL     1      22.985  47.645  48.666  1.00  0.00     0.088 A 
HETATM   11  C   UNL     1      23.995  49.846  49.035  1.00  0.00     0.034 A 
HETATM   12  N   UNL     1      23.254  46.320  48.878  1.00  0.00    -0.222 NA
HETATM   13  C   UNL     1      21.852  48.234  48.087  1.00  0.00     0.057 A 
HETATM   14  C   UNL     1      21.806  49.627  47.996  1.00  0.00     0.036 A 
HETATM   15 CL   UNL     1      20.421  50.381  47.299  1.00  0.00    -0.084 Cl
HETATM   16  C   UNL     1      22.855  50.421  48.461  1.00  0.00     0.026 A 
BRANCH   8  17
HETATM   17  C   UNL     1      26.236  47.903  50.201  1.00  0.00     0.131 C 
BRANCH  17  18
HETATM   18  C   UNL     1      27.351  48.112  49.174  1.00  0.00     0.016 C 
HETATM   19  C   UNL     1      27.708  49.576  48.955  1.00  0.00     0.006 C 
ENDBRANCH  17  18
ENDBRANCH   8  17
ENDBRANCH   6   7
ENDBRANCH   5   6
ENDBRANCH   1   5
BRANCH   2  20
HETATM   20  C   UNL     1      27.743  44.653  53.482  1.00  0.00     0.054 A 
HETATM   21  C   UNL     1      28.631  43.537  53.518  1.00  0.00     0.040 A 
HETATM   22 BR   UNL     1      28.730  42.255  52.107  1.00  0.00    -0.049 Br
HETATM   23  C   UNL     1      29.597  43.406  54.528  1.00  0.00     0.053 A 
HETATM   24  C   UNL     1      29.663  44.417  55.454  1.00  0.00     0.064 A 
HETATM   25  C   UNL     1      28.836  45.536  55.393  1.00  0.00     0.065 A 
HETATM   26  N   UNL     1      30.500  44.561  56.555  1.00  0.00    -0.306 N 
HETATM   27  N   UNL     1      29.163  46.367  56.458  1.00  0.00    -0.306 N 
HETATM   28  C   UNL     1      27.881  45.693  54.416  1.00  0.00     0.063 A 
HETATM   29  C   UNL     1      30.196  45.772  57.196  1.00  0.00     0.325 A 
HETATM   30  H   UNL     1      28.743  47.249  56.704  1.00  0.00     0.170 HD
HETATM   31  O   UNL     1      30.726  46.219  58.197  1.00  0.00    -0.247 OA
HETATM   32  H   UNL     1      31.207  43.921  56.876  1.00  0.00     0.170 HD
ENDBRANCH   2  20
TORSDOF 6
ENDMDL
MODEL 7
REMARK VINA RESULT:      -8.7      5.170      7.861
REMARK  6 active torsions:
REMARK  status: ('A' for Active; 'I' for Inactive)
REMARK    1  A    between atoms: C_2  and  C_3 
REMARK    2  A    between atoms: C_3  and  N_4 
REMARK    3  A    between atoms: C_5  and  S_6 
REMARK    4  A    between atoms: S_6  and  C_7 
REMARK    5  A    between atoms: C_7  and  C_8 
REMARK       I    between atoms: C_8  and  N_9 
REMARK    6  A    between atoms: N_9  and  C_10 
ROOT
HETATM    1  C   UNL     1      26.491  44.024  50.364  1.00  0.00     0.231 C 
HETATM    2  N   UNL     1      26.173  42.854  51.043  1.00  0.00    -0.325 N 
HETATM    3  O   UNL     1      27.222  44.077  49.377  1.00  0.00    -0.272 OA
HETATM    4  H   UNL     1      25.250  42.884  51.463  1.00  0.00     0.169 HD
ENDROOT
BRANCH   1   5
HETATM    5  C   UNL     1      25.870  45.294  50.931  1.00  0.00     0.185 C 
BRANCH   5   6
HETATM    6  S   UNL     1      25.096  45.034  52.563  1.00  0.00    -0.083 SA
BRANCH   6   7
HETATM    7  C   UNL     1      26.511  44.960  53.567  1.00  0.00     0.170 A 
HETATM    8  N   UNL     1      27.062  46.052  54.192  1.00  0.00    -0.324 N 
HETATM    9  C   UNL     1      28.225  45.629  54.808  1.00  0.00     0.065 A 
HETATM   10  C   UNL     1      28.274  44.261  54.541  1.00  0.00     0.088 A 
HETATM   11  C   UNL     1      29.212  46.284  55.556  1.00  0.00     0.034 A 
HETATM   12  N   UNL     1      27.201  43.868  53.788  1.00  0.00    -0.222 NA
HETATM   13  C   UNL     1      29.340  43.492  55.028  1.00  0.00     0.057 A 
HETATM   14  C   UNL     1      30.333  44.135  55.770  1.00  0.00     0.036 A 
HETATM   15 CL   UNL     1      31.662  43.218  56.373  1.00  0.00    -0.084 Cl
HETATM   16  C   UNL     1      30.274  45.505  56.030  1.00  0.00     0.026 A 
BRANCH   8  17
HETATM   17  C   UNL     1      26.559  47.413  54.199  1.00  0.00     0.131 C 
BRANCH  17  18
HETATM   18  C   UNL     1      27.091  48.269  55.351  1.00  0.00     0.016 C 
HETATM   19  C   UNL     1      26.005  48.723  56.318  1.00  0.00     0.006 C 
ENDBRANCH  17  18
ENDBRANCH   8  17
ENDBRANCH   6   7
ENDBRANCH   5   6
ENDBRANCH   1   5
BRANCH   2  20
HETATM   20  C   UNL     1      26.646  41.586  50.622  1.00  0.00     0.054 A 
HETATM   21  C   UNL     1      25.953  40.749  49.697  1.00  0.00     0.040 A 
HETATM   22 BR   UNL     1      24.465  41.360  48.672  1.00  0.00    -0.049 Br
HETATM   23  C   UNL     1      26.430  39.469  49.375  1.00  0.00     0.053 A 
HETATM   24  C   UNL     1      27.606  39.080  49.968  1.00  0.00     0.064 A 
HETATM   25  C   UNL     1      28.315  39.914  50.829  1.00  0.00     0.065 A 
HETATM   26  N   UNL     1      28.310  37.887  49.849  1.00  0.00    -0.306 N 
HETATM   27  N   UNL     1      29.454  39.233  51.242  1.00  0.00    -0.306 N 
HETATM   28  C   UNL     1      27.875  41.174  51.163  1.00  0.00     0.063 A 
HETATM   29  C   UNL     1      29.464  37.964  50.643  1.00  0.00     0.325 A 
HETATM   30  H   UNL     1      30.169  39.552  51.875  1.00  0.00     0.170 HD
HETATM   31  O   UNL     1      30.309  37.100  50.785  1.00  0.00    -0.247 OA
HETATM   32  H   UNL     1      28.058  37.078  49.306  1.00  0.00     0.170 HD
ENDBRANCH   2  20
TORSDOF 6
ENDMDL
MODEL 8
REMARK VINA RESULT:      -8.6      4.385      6.176
REMARK  6 active torsions:
REMARK  status: ('A' for Active; 'I' for Inactive)
REMARK    1  A    between atoms: C_2  and  C_3 
REMARK    2  A    between atoms: C_3  and  N_4 
REMARK    3  A    between atoms: C_5  and  S_6 
REMARK    4  A    between atoms: S_6  and  C_7 
REMARK    5  A    between atoms: C_7  and  C_8 
REMARK       I    between atoms: C_8  and  N_9 
REMARK    6  A    between atoms: N_9  and  C_10 
ROOT
HETATM    1  C   UNL     1      25.564  44.422  52.968  1.00  0.00     0.231 C 
HETATM    2  N   UNL     1      26.881  44.829  52.799  1.00  0.00    -0.325 N 
HETATM    3  O   UNL     1      25.067  44.115  54.050  1.00  0.00    -0.272 OA
HETATM    4  H   UNL     1      26.993  45.481  52.029  1.00  0.00     0.169 HD
ENDROOT
BRANCH   1   5
HETATM    5  C   UNL     1      24.733  44.362  51.694  1.00  0.00     0.185 C 
BRANCH   5   6
HETATM    6  S   UNL     1      25.724  44.652  50.190  1.00  0.00    -0.083 SA
BRANCH   6   7
HETATM    7  C   UNL     1      26.335  43.052  49.910  1.00  0.00     0.170 A 
HETATM    8  N   UNL     1      25.749  42.148  49.056  1.00  0.00    -0.324 N 
HETATM    9  C   UNL     1      26.447  40.961  49.173  1.00  0.00     0.065 A 
HETATM   10  C   UNL     1      27.463  41.250  50.083  1.00  0.00     0.088 A 
HETATM   11  C   UNL     1      26.301  39.697  48.588  1.00  0.00     0.034 A 
HETATM   12  N   UNL     1      27.384  42.547  50.513  1.00  0.00    -0.222 NA
HETATM   13  C   UNL     1      28.384  40.256  50.442  1.00  0.00     0.057 A 
HETATM   14  C   UNL     1      28.245  38.990  49.870  1.00  0.00     0.036 A 
HETATM   15 CL   UNL     1      29.355  37.744  50.300  1.00  0.00    -0.084 Cl
HETATM   16  C   UNL     1      27.223  38.712  48.960  1.00  0.00     0.026 A 
BRANCH   8  17
HETATM   17  C   UNL     1      24.596  42.361  48.202  1.00  0.00     0.131 C 
BRANCH  17  18
HETATM   18  C   UNL     1      23.292  41.784  48.760  1.00  0.00     0.016 C 
HETATM   19  C   UNL     1      22.590  40.834  47.799  1.00  0.00     0.006 C 
ENDBRANCH  17  18
ENDBRANCH   8  17
ENDBRANCH   6   7
ENDBRANCH   5   6
ENDBRANCH   1   5
BRANCH   2  20
HETATM   20  C   UNL     1      27.775  44.966  53.890  1.00  0.00     0.054 A 
HETATM   21  C   UNL     1      27.838  46.123  54.723  1.00  0.00     0.040 A 
HETATM   22 BR   UNL     1      26.519  47.501  54.670  1.00  0.00    -0.049 Br
HETATM   23  C   UNL     1      28.795  46.236  55.743  1.00  0.00     0.053 A 
HETATM   24  C   UNL     1      29.642  45.169  55.916  1.00  0.00     0.064 A 
HETATM   25  C   UNL     1      29.550  44.014  55.143  1.00  0.00     0.065 A 
HETATM   26  N   UNL     1      30.678  44.995  56.826  1.00  0.00    -0.306 N 
HETATM   27  N   UNL     1      30.532  43.130  55.576  1.00  0.00    -0.306 N 
HETATM   28  C   UNL     1      28.621  43.873  54.138  1.00  0.00     0.063 A 
HETATM   29  C   UNL     1      31.248  43.729  56.623  1.00  0.00     0.325 A 
HETATM   30  H   UNL     1      30.739  42.213  55.216  1.00  0.00     0.170 HD
HETATM   31  O   UNL     1      32.181  43.243  57.235  1.00  0.00    -0.247 OA
HETATM   32  H   UNL     1      31.002  45.649  57.519  1.00  0.00     0.170 HD
ENDBRANCH   2  20
TORSDOF 6
ENDMDL
MODEL 9
REMARK VINA RESULT:      -8.4      4.465      9.145
REMARK  6 active torsions:
REMARK  status: ('A' for Active; 'I' for Inactive)
REMARK    1  A    between atoms: C_2  and  C_3 
REMARK    2  A    between atoms: C_3  and  N_4 
REMARK    3  A    between atoms: C_5  and  S_6 
REMARK    4  A    between atoms: S_6  and  C_7 
REMARK    5  A    between atoms: C_7  and  C_8 
REMARK       I    between atoms: C_8  and  N_9 
REMARK    6  A    between atoms: N_9  and  C_10 
ROOT
HETATM    1  C   UNL     1      24.512  43.726  50.668  1.00  0.00     0.231 C 
HETATM    2  N   UNL     1      24.857  44.671  49.710  1.00  0.00    -0.325 N 
HETATM    3  O   UNL     1      23.402  43.640  51.189  1.00  0.00    -0.272 OA
HETATM    4  H   UNL     1      25.559  44.332  49.060  1.00  0.00     0.169 HD
ENDROOT
BRANCH   1   5
HETATM    5  C   UNL     1      25.626  42.765  51.064  1.00  0.00     0.185 C 
BRANCH   5   6
HETATM    6  S   UNL     1      27.272  43.327  50.516  1.00  0.00    -0.083 SA
BRANCH   6   7
HETATM    7  C   UNL     1      28.043  43.568  52.052  1.00  0.00     0.170 A 
HETATM    8  N   UNL     1      27.744  44.604  52.904  1.00  0.00    -0.324 N 
HETATM    9  C   UNL     1      28.624  44.528  53.967  1.00  0.00     0.065 A 
HETATM   10  C   UNL     1      29.388  43.394  53.698  1.00  0.00     0.088 A 
HETATM   11  C   UNL     1      28.823  45.314  55.109  1.00  0.00     0.034 A 
HETATM   12  N   UNL     1      29.004  42.809  52.522  1.00  0.00    -0.222 NA
HETATM   13  C   UNL     1      30.398  43.004  54.588  1.00  0.00     0.057 A 
HETATM   14  C   UNL     1      30.610  43.783  55.728  1.00  0.00     0.036 A 
HETATM   15 CL   UNL     1      31.852  43.335  56.836  1.00  0.00    -0.084 Cl
HETATM   16  C   UNL     1      29.839  44.917  55.986  1.00  0.00     0.026 A 
BRANCH   8  17
HETATM   17  C   UNL     1      26.722  45.620  52.733  1.00  0.00     0.131 C 
BRANCH  17  18
HETATM   18  C   UNL     1      25.705  45.679  53.876  1.00  0.00     0.016 C 
HETATM   19  C   UNL     1      25.199  44.309  54.308  1.00  0.00     0.006 C 
ENDBRANCH  17  18
ENDBRANCH   8  17
ENDBRANCH   6   7
ENDBRANCH   5   6
ENDBRANCH   1   5
BRANCH   2  20
HETATM   20  C   UNL     1      23.926  45.616  49.213  1.00  0.00     0.054 A 
HETATM   21  C   UNL     1      22.991  45.335  48.172  1.00  0.00     0.040 A 
HETATM   22 BR   UNL     1      22.663  43.567  47.533  1.00  0.00    -0.049 Br
HETATM   23  C   UNL     1      22.143  46.332  47.666  1.00  0.00     0.053 A 
HETATM   24  C   UNL     1      22.238  47.575  48.242  1.00  0.00     0.064 A 
HETATM   25  C   UNL     1      23.108  47.841  49.295  1.00  0.00     0.065 A 
HETATM   26  N   UNL     1      21.543  48.744  47.953  1.00  0.00    -0.306 N 
HETATM   27  N   UNL     1      22.951  49.175  49.653  1.00  0.00    -0.306 N 
HETATM   28  C   UNL     1      23.951  46.885  49.814  1.00  0.00     0.063 A 
HETATM   29  C   UNL     1      21.981  49.754  48.822  1.00  0.00     0.325 A 
HETATM   30  H   UNL     1      23.442  49.684  50.370  1.00  0.00     0.170 HD
HETATM   31  O   UNL     1      21.595  50.908  48.851  1.00  0.00    -0.247 OA
HETATM   32  H   UNL     1      20.846  48.883  47.241  1.00  0.00     0.170 HD
ENDBRANCH   2  20
TORSDOF 6
ENDMDL
MODEL 10
REMARK VINA RESULT:      -8.4      3.413      4.653
REMARK  6 active torsions:
REMARK  status: ('A' for Active; 'I' for Inactive)
REMARK    1  A    between atoms: C_2  and  C_3 
REMARK    2  A    between atoms: C_3  and  N_4 
REMARK    3  A    between atoms: C_5  and  S_6 
REMARK    4  A    between atoms: S_6  and  C_7 
REMARK    5  A    between atoms: C_7  and  C_8 
REMARK       I    between atoms: C_8  and  N_9 
REMARK    6  A    between atoms: N_9  and  C_10 
ROOT
HETATM    1  C   UNL     1      25.446  44.723  51.713  1.00  0.00     0.231 C 
HETATM    2  N   UNL     1      26.781  44.497  51.402  1.00  0.00    -0.325 N 
HETATM    3  O   UNL     1      24.675  43.860  52.128  1.00  0.00    -0.272 OA
HETATM    4  H   UNL     1      27.363  45.314  51.558  1.00  0.00     0.169 HD
ENDROOT
BRANCH   1   5
HETATM    5  C   UNL     1      24.961  46.151  51.497  1.00  0.00     0.185 C 
BRANCH   5   6
HETATM    6  S   UNL     1      25.445  46.822  49.871  1.00  0.00    -0.083 SA
BRANCH   6   7
HETATM    7  C   UNL     1      24.008  47.707  49.463  1.00  0.00     0.170 A 
HETATM    8  N   UNL     1      22.976  47.188  48.718  1.00  0.00    -0.324 N 
HETATM    9  C   UNL     1      22.066  48.207  48.512  1.00  0.00     0.065 A 
HETATM   10  C   UNL     1      22.604  49.291  49.205  1.00  0.00     0.088 A 
HETATM   11  C   UNL     1      20.855  48.290  47.813  1.00  0.00     0.034 A 
HETATM   12  N   UNL     1      23.793  48.957  49.795  1.00  0.00    -0.222 NA
HETATM   13  C   UNL     1      21.928  50.519  49.216  1.00  0.00     0.057 A 
HETATM   14  C   UNL     1      20.723  50.615  48.518  1.00  0.00     0.036 A 
HETATM   15 CL   UNL     1      19.873  52.115  48.504  1.00  0.00    -0.084 Cl
HETATM   16  C   UNL     1      20.193  49.524  47.828  1.00  0.00     0.026 A 
BRANCH   8  17
HETATM   17  C   UNL     1      22.851  45.837  48.203  1.00  0.00     0.131 C 
BRANCH  17  18
HETATM   18  C   UNL     1      22.229  44.848  49.192  1.00  0.00     0.016 C 
HETATM   19  C   UNL     1      22.721  43.419  49.008  1.00  0.00     0.006 C 
ENDBRANCH  17  18
ENDBRANCH   8  17
ENDBRANCH   6   7
ENDBRANCH   5   6
ENDBRANCH   1   5
BRANCH   2  20
HETATM   20  C   UNL     1      27.392  43.231  51.578  1.00  0.00     0.054 A 
HETATM   21  C   UNL     1      28.106  42.851  52.754  1.00  0.00     0.040 A 
HETATM   22 BR   UNL     1      28.062  43.880  54.360  1.00  0.00    -0.049 Br
HETATM   23  C   UNL     1      28.757  41.611  52.843  1.00  0.00     0.053 A 
HETATM   24  C   UNL     1      28.646  40.776  51.759  1.00  0.00     0.064 A 
HETATM   25  C   UNL     1      27.905  41.117  50.630  1.00  0.00     0.065 A 
HETATM   26  N   UNL     1      29.177  39.508  51.556  1.00  0.00    -0.306 N 
HETATM   27  N   UNL     1      27.983  40.060  49.731  1.00  0.00    -0.306 N 
HETATM   28  C   UNL     1      27.255  42.324  50.514  1.00  0.00     0.063 A 
HETATM   29  C   UNL     1      28.777  39.049  50.292  1.00  0.00     0.325 A 
HETATM   30  H   UNL     1      27.568  39.996  48.816  1.00  0.00     0.170 HD
HETATM   31  O   UNL     1      29.063  37.982  49.780  1.00  0.00    -0.247 OA
HETATM   32  H   UNL     1      29.765  38.981  52.181  1.00  0.00     0.170 HD
ENDBRANCH   2  20
TORSDOF 6
ENDMDL
