MODEL 1
REMARK VINA RESULT:      -9.3      0.000      0.000
REMARK  7 active torsions:
REMARK  status: ('A' for Active; 'I' for Inactive)
REMARK    1  A    between atoms: C_5  and  O_6 
REMARK    2  A    between atoms: O_6  and  C_7 
REMARK    3  A    between atoms: C_7  and  C_8 
REMARK    4  A    between atoms: C_8  and  N_9 
REMARK       I    between atoms: N_9  and  C_10 
REMARK       I    between atoms: C_10  and  N_11 
REMARK    5  A    between atoms: N_11  and  C_12 
REMARK    6  A    between atoms: N_15  and  S_16 
REMARK    7  A    between atoms: S_16  and  C_17 
ROOT
HETATM    1  C   UNL     1      24.817  46.698  49.578  1.00  0.00     0.103 A 
HETATM    2  S   UNL     1      23.122  46.759  49.133  1.00  0.00    -0.032 SA
HETATM    3  C   UNL     1      23.193  48.518  48.882  1.00  0.00     0.185 A 
HETATM    4  N   UNL     1      22.255  49.309  48.485  1.00  0.00    -0.134 NA
HETATM    5  N   UNL     1      24.476  48.912  49.180  1.00  0.00    -0.336 N 
HETATM    6  C   UNL     1      25.387  47.917  49.525  1.00  0.00     0.041 A 
HETATM    7  C   UNL     1      26.830  48.283  49.645  1.00  0.00     0.071 C 
HETATM    8  H   UNL     1      24.783  49.857  48.993  1.00  0.00     0.168 HD
ENDROOT
BRANCH   1   9
HETATM    9  N   UNL     1      25.290  45.453  49.835  1.00  0.00    -0.301 N 
HETATM   10  C   UNL     1      25.727  44.787  50.932  1.00  0.00     0.321 C 
HETATM   11  N   UNL     1      25.457  45.328  52.156  1.00  0.00    -0.341 N 
HETATM   12  O   UNL     1      26.257  43.688  50.783  1.00  0.00    -0.247 OA
HETATM   13  H   UNL     1      24.699  45.994  52.150  1.00  0.00     0.164 HD
HETATM   14  H   UNL     1      25.250  44.825  49.038  1.00  0.00     0.171 HD
BRANCH  11  15
HETATM   15  C   UNL     1      25.516  44.470  53.331  1.00  0.00     0.151 C 
BRANCH  15  16
HETATM   16  C   UNL     1      26.417  44.984  54.453  1.00  0.00     0.195 C 
BRANCH  16  17
HETATM   17  O   UNL     1      27.727  45.103  53.893  1.00  0.00    -0.350 OA
BRANCH  17  18
HETATM   18  C   UNL     1      28.790  44.615  54.594  1.00  0.00     0.068 A 
HETATM   19  C   UNL     1      29.195  45.425  55.658  1.00  0.00     0.037 A 
HETATM   20  C   UNL     1      30.262  45.052  56.478  1.00  0.00     0.009 A 
HETATM   21  C   UNL     1      30.944  43.857  56.239  1.00  0.00    -0.062 A 
HETATM   22  C   UNL     1      32.072  43.429  57.130  1.00  0.00     0.048 C 
HETATM   23  C   UNL     1      30.533  43.044  55.176  1.00  0.00     0.009 A 
HETATM   24  C   UNL     1      29.464  43.422  54.352  1.00  0.00     0.037 A 
ENDBRANCH  17  18
ENDBRANCH  16  17
ENDBRANCH  15  16
ENDBRANCH  11  15
ENDBRANCH   1   9
BRANCH   4  25
HETATM   25  S   UNL     1      20.780  48.719  48.171  1.00  0.00     0.285 S 
HETATM   26  O   UNL     1      20.819  47.999  46.911  1.00  0.00    -0.198 OA
HETATM   27  O   UNL     1      20.238  48.108  49.369  1.00  0.00    -0.198 OA
BRANCH  25  28
HETATM   28  C   UNL     1      19.775  50.164  47.884  1.00  0.00     0.081 A 
HETATM   29  C   UNL     1      19.925  51.285  48.708  1.00  0.00     0.025 A 
HETATM   30  C   UNL     1      19.154  52.421  48.470  1.00  0.00     0.002 A 
HETATM   31  C   UNL     1      18.236  52.434  47.417  1.00  0.00     0.000 A 
HETATM   32  C   UNL     1      18.087  51.310  46.600  1.00  0.00     0.002 A 
HETATM   33  C   UNL     1      18.856  50.169  46.831  1.00  0.00     0.025 A 
ENDBRANCH  25  28
ENDBRANCH   4  25
TORSDOF 7
ENDMDL
MODEL 2
REMARK VINA RESULT:      -9.2      5.882      9.954
REMARK  7 active torsions:
REMARK  status: ('A' for Active; 'I' for Inactive)
REMARK    1  A    between atoms: C_5  and  O_6 
REMARK    2  A    between atoms: O_6  and  C_7 
REMARK    3  A    between atoms: C_7  and  C_8 
REMARK    4  A    between atoms: C_8  and  N_9 
REMARK       I    between atoms: N_9  and  C_10 
REMARK       I    between atoms: C_10  and  N_11 
REMARK    5  A    between atoms: N_11  and  C_12 
REMARK    6  A    between atoms: N_15  and  S_16 
REMARK    7  A    between atoms: S_16  and  C_17 
ROOT
HETATM    1  C   UNL     1      27.857  39.872  49.814  1.00  0.00     0.103 A 
HETATM    2  S   UNL     1      27.543  41.378  50.656  1.00  0.00    -0.032 SA
HETATM    3  C   UNL     1      28.676  40.953  51.959  1.00  0.00     0.185 A 
HETATM    4  N   UNL     1      29.010  41.651  52.989  1.00  0.00    -0.134 NA
HETATM    5  N   UNL     1      29.173  39.705  51.663  1.00  0.00    -0.336 N 
HETATM    6  C   UNL     1      28.762  39.119  50.469  1.00  0.00     0.041 A 
HETATM    7  C   UNL     1      29.443  37.868  50.018  1.00  0.00     0.071 C 
HETATM    8  H   UNL     1      29.929  39.310  52.205  1.00  0.00     0.168 HD
ENDROOT
BRANCH   1   9
HETATM    9  N   UNL     1      27.206  39.738  48.631  1.00  0.00    -0.301 N 
HETATM   10  C   UNL     1      25.934  39.914  48.198  1.00  0.00     0.321 C 
HETATM   11  N   UNL     1      25.075  40.604  49.005  1.00  0.00    -0.341 N 
HETATM   12  O   UNL     1      25.638  39.534  47.067  1.00  0.00    -0.247 OA
HETATM   13  H   UNL     1      25.535  41.183  49.691  1.00  0.00     0.164 HD
HETATM   14  H   UNL     1      27.815  39.521  47.849  1.00  0.00     0.171 HD
BRANCH  11  15
HETATM   15  C   UNL     1      23.871  41.178  48.419  1.00  0.00     0.151 C 
BRANCH  15  16
HETATM   16  C   UNL     1      23.573  42.613  48.851  1.00  0.00     0.195 C 
BRANCH  16  17
HETATM   17  O   UNL     1      24.801  43.334  48.725  1.00  0.00    -0.350 OA
BRANCH  17  18
HETATM   18  C   UNL     1      25.131  44.245  49.683  1.00  0.00     0.068 A 
HETATM   19  C   UNL     1      24.503  44.036  50.914  1.00  0.00     0.037 A 
HETATM   20  C   UNL     1      24.752  44.880  51.998  1.00  0.00     0.009 A 
HETATM   21  C   UNL     1      25.636  45.953  51.863  1.00  0.00    -0.062 A 
HETATM   22  C   UNL     1      25.936  46.848  53.028  1.00  0.00     0.048 C 
HETATM   23  C   UNL     1      26.269  46.157  50.631  1.00  0.00     0.009 A 
HETATM   24  C   UNL     1      26.014  45.312  49.542  1.00  0.00     0.037 A 
ENDBRANCH  17  18
ENDBRANCH  16  17
ENDBRANCH  15  16
ENDBRANCH  11  15
ENDBRANCH   1   9
BRANCH   4  25
HETATM   25  S   UNL     1      28.345  43.109  53.227  1.00  0.00     0.285 S 
HETATM   26  O   UNL     1      28.634  43.951  52.080  1.00  0.00    -0.198 OA
HETATM   27  O   UNL     1      26.992  42.950  53.721  1.00  0.00    -0.198 OA
BRANCH  25  28
HETATM   28  C   UNL     1      29.265  43.800  54.591  1.00  0.00     0.081 A 
HETATM   29  C   UNL     1      30.336  43.084  55.135  1.00  0.00     0.025 A 
HETATM   30  C   UNL     1      31.067  43.634  56.186  1.00  0.00     0.002 A 
HETATM   31  C   UNL     1      30.725  44.890  56.692  1.00  0.00     0.000 A 
HETATM   32  C   UNL     1      29.650  45.599  56.148  1.00  0.00     0.002 A 
HETATM   33  C   UNL     1      28.915  45.056  55.094  1.00  0.00     0.025 A 
ENDBRANCH  25  28
ENDBRANCH   4  25
TORSDOF 7
ENDMDL
MODEL 3
REMARK VINA RESULT:      -9.0      2.124      2.735
REMARK  7 active torsions:
REMARK  status: ('A' for Active; 'I' for Inactive)
REMARK    1  A    between atoms: C_5  and  O_6 
REMARK    2  A    between atoms: O_6  and  C_7 
REMARK    3  A    between atoms: C_7  and  C_8 
REMARK    4  A    between atoms: C_8  and  N_9 
REMARK       I    between atoms: N_9  and  C_10 
REMARK       I    between atoms: C_10  and  N_11 
REMARK    5  A    between atoms: N_11  and  C_12 
REMARK    6  A    between atoms: N_15  and  S_16 
REMARK    7  A    between atoms: S_16  and  C_17 
ROOT
HETATM    1  C   UNL     1      23.437  47.331  49.113  1.00  0.00     0.103 A 
HETATM    2  S   UNL     1      22.777  48.950  49.245  1.00  0.00    -0.032 SA
HETATM    3  C   UNL     1      21.120  48.357  48.988  1.00  0.00     0.185 A 
HETATM    4  N   UNL     1      20.020  49.030  48.986  1.00  0.00    -0.134 NA
HETATM    5  N   UNL     1      21.208  46.998  48.799  1.00  0.00    -0.336 N 
HETATM    6  C   UNL     1      22.469  46.418  48.904  1.00  0.00     0.041 A 
HETATM    7  C   UNL     1      22.568  44.927  48.916  1.00  0.00     0.071 C 
HETATM    8  H   UNL     1      20.374  46.429  48.753  1.00  0.00     0.168 HD
ENDROOT
BRANCH   1   9
HETATM    9  N   UNL     1      24.777  47.248  49.304  1.00  0.00    -0.301 N 
HETATM   10  C   UNL     1      25.609  47.266  50.374  1.00  0.00     0.321 C 
HETATM   11  N   UNL     1      25.058  47.095  51.613  1.00  0.00    -0.341 N 
HETATM   12  O   UNL     1      26.820  47.337  50.180  1.00  0.00    -0.247 OA
HETATM   13  H   UNL     1      24.146  46.664  51.598  1.00  0.00     0.164 HD
HETATM   14  H   UNL     1      25.302  47.054  48.457  1.00  0.00     0.171 HD
BRANCH  11  15
HETATM   15  C   UNL     1      25.920  46.684  52.713  1.00  0.00     0.151 C 
BRANCH  15  16
HETATM   16  C   UNL     1      25.979  45.176  52.948  1.00  0.00     0.195 C 
BRANCH  16  17
HETATM   17  O   UNL     1      27.291  44.760  52.562  1.00  0.00    -0.350 OA
BRANCH  17  18
HETATM   18  C   UNL     1      28.216  44.511  53.533  1.00  0.00     0.068 A 
HETATM   19  C   UNL     1      28.980  43.362  53.315  1.00  0.00     0.037 A 
HETATM   20  C   UNL     1      29.978  42.983  54.216  1.00  0.00     0.009 A 
HETATM   21  C   UNL     1      30.221  43.753  55.355  1.00  0.00    -0.062 A 
HETATM   22  C   UNL     1      31.311  43.375  56.315  1.00  0.00     0.048 C 
HETATM   23  C   UNL     1      29.458  44.907  55.569  1.00  0.00     0.009 A 
HETATM   24  C   UNL     1      28.455  45.283  54.666  1.00  0.00     0.037 A 
ENDBRANCH  17  18
ENDBRANCH  16  17
ENDBRANCH  15  16
ENDBRANCH  11  15
ENDBRANCH   1   9
BRANCH   4  25
HETATM   25  S   UNL     1      20.053  50.633  49.217  1.00  0.00     0.285 S 
HETATM   26  O   UNL     1      20.533  50.906  50.559  1.00  0.00    -0.198 OA
HETATM   27  O   UNL     1      20.646  51.276  48.060  1.00  0.00    -0.198 OA
BRANCH  25  28
HETATM   28  C   UNL     1      18.337  51.120  49.197  1.00  0.00     0.081 A 
HETATM   29  C   UNL     1      17.950  52.310  49.822  1.00  0.00     0.025 A 
HETATM   30  C   UNL     1      16.612  52.701  49.788  1.00  0.00     0.002 A 
HETATM   31  C   UNL     1      15.669  51.903  49.136  1.00  0.00     0.000 A 
HETATM   32  C   UNL     1      16.061  50.713  48.517  1.00  0.00     0.002 A 
HETATM   33  C   UNL     1      17.398  50.316  48.545  1.00  0.00     0.025 A 
ENDBRANCH  25  28
ENDBRANCH   4  25
TORSDOF 7
ENDMDL
MODEL 4
REMARK VINA RESULT:      -8.9      1.879      2.600
REMARK  7 active torsions:
REMARK  status: ('A' for Active; 'I' for Inactive)
REMARK    1  A    between atoms: C_5  and  O_6 
REMARK    2  A    between atoms: O_6  and  C_7 
REMARK    3  A    between atoms: C_7  and  C_8 
REMARK    4  A    between atoms: C_8  and  N_9 
REMARK       I    between atoms: N_9  and  C_10 
REMARK       I    between atoms: C_10  and  N_11 
REMARK    5  A    between atoms: N_11  and  C_12 
REMARK    6  A    between atoms: N_15  and  S_16 
REMARK    7  A    between atoms: S_16  and  C_17 
ROOT
HETATM    1  C   UNL     1      24.169  45.218  50.286  1.00  0.00     0.103 A 
HETATM    2  S   UNL     1      23.400  46.167  49.028  1.00  0.00    -0.032 SA
HETATM    3  C   UNL     1      23.839  47.692  49.831  1.00  0.00     0.185 A 
HETATM    4  N   UNL     1      23.615  48.898  49.436  1.00  0.00    -0.134 NA
HETATM    5  N   UNL     1      24.501  47.357  50.989  1.00  0.00    -0.336 N 
HETATM    6  C   UNL     1      24.723  46.004  51.230  1.00  0.00     0.041 A 
HETATM    7  C   UNL     1      25.620  45.620  52.361  1.00  0.00     0.071 C 
HETATM    8  H   UNL     1      24.952  48.067  51.550  1.00  0.00     0.168 HD
ENDROOT
BRANCH   1   9
HETATM    9  N   UNL     1      24.142  43.877  50.081  1.00  0.00    -0.301 N 
HETATM   10  C   UNL     1      25.055  42.922  49.782  1.00  0.00     0.321 C 
HETATM   11  N   UNL     1      26.377  43.238  49.920  1.00  0.00    -0.341 N 
HETATM   12  O   UNL     1      24.658  41.795  49.495  1.00  0.00    -0.247 OA
HETATM   13  H   UNL     1      26.547  44.029  50.522  1.00  0.00     0.164 HD
HETATM   14  H   UNL     1      23.238  43.453  50.260  1.00  0.00     0.171 HD
BRANCH  11  15
HETATM   15  C   UNL     1      27.348  42.158  50.029  1.00  0.00     0.151 C 
BRANCH  15  16
HETATM   16  C   UNL     1      28.003  42.025  51.403  1.00  0.00     0.195 C 
BRANCH  16  17
HETATM   17  O   UNL     1      28.070  43.346  51.946  1.00  0.00    -0.350 OA
BRANCH  17  18
HETATM   18  C   UNL     1      28.776  43.552  53.094  1.00  0.00     0.068 A 
HETATM   19  C   UNL     1      29.858  42.683  53.265  1.00  0.00     0.037 A 
HETATM   20  C   UNL     1      30.684  42.780  54.386  1.00  0.00     0.009 A 
HETATM   21  C   UNL     1      30.435  43.751  55.358  1.00  0.00    -0.062 A 
HETATM   22  C   UNL     1      31.334  43.886  56.552  1.00  0.00     0.048 C 
HETATM   23  C   UNL     1      29.355  44.624  55.182  1.00  0.00     0.009 A 
HETATM   24  C   UNL     1      28.524  44.522  54.059  1.00  0.00     0.037 A 
ENDBRANCH  17  18
ENDBRANCH  16  17
ENDBRANCH  15  16
ENDBRANCH  11  15
ENDBRANCH   1   9
BRANCH   4  25
HETATM   25  S   UNL     1      22.816  49.160  48.051  1.00  0.00     0.285 S 
HETATM   26  O   UNL     1      23.532  50.156  47.275  1.00  0.00    -0.198 OA
HETATM   27  O   UNL     1      22.428  47.890  47.469  1.00  0.00    -0.198 OA
BRANCH  25  28
HETATM   28  C   UNL     1      21.289  49.931  48.558  1.00  0.00     0.081 A 
HETATM   29  C   UNL     1      21.098  51.299  48.332  1.00  0.00     0.025 A 
HETATM   30  C   UNL     1      19.896  51.896  48.709  1.00  0.00     0.002 A 
HETATM   31  C   UNL     1      18.896  51.131  49.311  1.00  0.00     0.000 A 
HETATM   32  C   UNL     1      19.094  49.766  49.538  1.00  0.00     0.002 A 
HETATM   33  C   UNL     1      20.293  49.160  49.162  1.00  0.00     0.025 A 
ENDBRANCH  25  28
ENDBRANCH   4  25
TORSDOF 7
ENDMDL
MODEL 5
REMARK VINA RESULT:      -8.9      2.651     10.834
REMARK  7 active torsions:
REMARK  status: ('A' for Active; 'I' for Inactive)
REMARK    1  A    between atoms: C_5  and  O_6 
REMARK    2  A    between atoms: O_6  and  C_7 
REMARK    3  A    between atoms: C_7  and  C_8 
REMARK    4  A    between atoms: C_8  and  N_9 
REMARK       I    between atoms: N_9  and  C_10 
REMARK       I    between atoms: C_10  and  N_11 
REMARK    5  A    between atoms: N_11  and  C_12 
REMARK    6  A    between atoms: N_15  and  S_16 
REMARK    7  A    between atoms: S_16  and  C_17 
ROOT
HETATM    1  C   UNL     1      24.026  43.240  50.234  1.00  0.00     0.103 A 
HETATM    2  S   UNL     1      24.506  44.078  51.697  1.00  0.00    -0.032 SA
HETATM    3  C   UNL     1      26.138  43.373  51.634  1.00  0.00     0.185 A 
HETATM    4  N   UNL     1      27.130  43.578  52.431  1.00  0.00    -0.134 NA
HETATM    5  N   UNL     1      26.173  42.548  50.534  1.00  0.00    -0.336 N 
HETATM    6  C   UNL     1      25.034  42.496  49.736  1.00  0.00     0.041 A 
HETATM    7  C   UNL     1      25.113  41.781  48.427  1.00  0.00     0.071 C 
HETATM    8  H   UNL     1      27.042  42.131  50.230  1.00  0.00     0.168 HD
ENDROOT
BRANCH   1   9
HETATM    9  N   UNL     1      22.768  43.517  49.808  1.00  0.00    -0.301 N 
HETATM   10  C   UNL     1      22.148  44.578  49.237  1.00  0.00     0.321 C 
HETATM   11  N   UNL     1      22.931  45.569  48.715  1.00  0.00    -0.341 N 
HETATM   12  O   UNL     1      20.925  44.558  49.126  1.00  0.00    -0.247 OA
HETATM   13  H   UNL     1      23.878  45.282  48.522  1.00  0.00     0.164 HD
HETATM   14  H   UNL     1      22.135  42.726  49.855  1.00  0.00     0.171 HD
BRANCH  11  15
HETATM   15  C   UNL     1      22.350  46.482  47.741  1.00  0.00     0.151 C 
BRANCH  15  16
HETATM   16  C   UNL     1      22.471  47.962  48.101  1.00  0.00     0.195 C 
BRANCH  16  17
HETATM   17  O   UNL     1      21.612  48.174  49.224  1.00  0.00    -0.350 OA
BRANCH  17  18
HETATM   18  C   UNL     1      20.813  49.278  49.244  1.00  0.00     0.068 A 
HETATM   19  C   UNL     1      19.580  49.082  49.872  1.00  0.00     0.037 A 
HETATM   20  C   UNL     1      18.658  50.126  49.983  1.00  0.00     0.009 A 
HETATM   21  C   UNL     1      18.959  51.385  49.460  1.00  0.00    -0.062 A 
HETATM   22  C   UNL     1      17.992  52.523  49.600  1.00  0.00     0.048 C 
HETATM   23  C   UNL     1      20.198  51.580  48.836  1.00  0.00     0.009 A 
HETATM   24  C   UNL     1      21.119  50.531  48.722  1.00  0.00     0.037 A 
ENDBRANCH  17  18
ENDBRANCH  16  17
ENDBRANCH  15  16
ENDBRANCH  11  15
ENDBRANCH   1   9
BRANCH   4  25
HETATM   25  S   UNL     1      26.957  44.573  53.697  1.00  0.00     0.285 S 
HETATM   26  O   UNL     1      26.869  45.939  53.214  1.00  0.00    -0.198 OA
HETATM   27  O   UNL     1      25.966  44.032  54.606  1.00  0.00    -0.198 OA
BRANCH  25  28
HETATM   28  C   UNL     1      28.509  44.456  54.570  1.00  0.00     0.081 A 
HETATM   29  C   UNL     1      28.851  45.439  55.504  1.00  0.00     0.025 A 
HETATM   30  C   UNL     1      30.054  45.336  56.201  1.00  0.00     0.002 A 
HETATM   31  C   UNL     1      30.909  44.258  55.960  1.00  0.00     0.000 A 
HETATM   32  C   UNL     1      30.564  43.281  55.022  1.00  0.00     0.002 A 
HETATM   33  C   UNL     1      29.361  43.377  54.322  1.00  0.00     0.025 A 
ENDBRANCH  25  28
ENDBRANCH   4  25
TORSDOF 7
ENDMDL
MODEL 6
REMARK VINA RESULT:      -8.9      2.457     10.874
REMARK  7 active torsions:
REMARK  status: ('A' for Active; 'I' for Inactive)
REMARK    1  A    between atoms: C_5  and  O_6 
REMARK    2  A    between atoms: O_6  and  C_7 
REMARK    3  A    between atoms: C_7  and  C_8 
REMARK    4  A    between atoms: C_8  and  N_9 
REMARK       I    between atoms: N_9  and  C_10 
REMARK       I    between atoms: C_10  and  N_11 
REMARK    5  A    between atoms: N_11  and  C_12 
REMARK    6  A    between atoms: N_15  and  S_16 
REMARK    7  A    between atoms: S_16  and  C_17 
ROOT
HETATM    1  C   UNL     1      25.180  45.271  49.858  1.00  0.00     0.103 A 
HETATM    2  S   UNL     1      26.052  44.088  50.816  1.00  0.00    -0.032 SA
HETATM    3  C   UNL     1      26.536  45.322  52.002  1.00  0.00     0.185 A 
HETATM    4  N   UNL     1      27.218  45.167  53.085  1.00  0.00    -0.134 NA
HETATM    5  N   UNL     1      26.023  46.520  51.563  1.00  0.00    -0.336 N 
HETATM    6  C   UNL     1      25.245  46.499  50.409  1.00  0.00     0.041 A 
HETATM    7  C   UNL     1      24.503  47.738  50.028  1.00  0.00     0.071 C 
HETATM    8  H   UNL     1      26.071  47.345  52.144  1.00  0.00     0.168 HD
ENDROOT
BRANCH   1   9
HETATM    9  N   UNL     1      24.539  44.762  48.777  1.00  0.00    -0.301 N 
HETATM   10  C   UNL     1      23.253  44.476  48.455  1.00  0.00     0.321 C 
HETATM   11  N   UNL     1      22.268  44.992  49.248  1.00  0.00    -0.341 N 
HETATM   12  O   UNL     1      23.028  43.852  47.421  1.00  0.00    -0.247 OA
HETATM   13  H   UNL     1      22.561  45.783  49.801  1.00  0.00     0.164 HD
HETATM   14  H   UNL     1      25.140  44.619  47.972  1.00  0.00     0.171 HD
BRANCH  11  15
HETATM   15  C   UNL     1      20.914  45.076  48.717  1.00  0.00     0.151 C 
BRANCH  15  16
HETATM   16  C   UNL     1      20.580  46.398  48.027  1.00  0.00     0.195 C 
BRANCH  16  17
HETATM   17  O   UNL     1      21.195  47.425  48.807  1.00  0.00    -0.350 OA
BRANCH  17  18
HETATM   18  C   UNL     1      20.746  48.707  48.680  1.00  0.00     0.068 A 
HETATM   19  C   UNL     1      19.358  48.838  48.756  1.00  0.00     0.037 A 
HETATM   20  C   UNL     1      18.749  50.091  48.657  1.00  0.00     0.009 A 
HETATM   21  C   UNL     1      19.528  51.235  48.475  1.00  0.00    -0.062 A 
HETATM   22  C   UNL     1      18.890  52.591  48.398  1.00  0.00     0.048 C 
HETATM   23  C   UNL     1      20.920  51.102  48.405  1.00  0.00     0.009 A 
HETATM   24  C   UNL     1      21.529  49.844  48.500  1.00  0.00     0.037 A 
ENDBRANCH  17  18
ENDBRANCH  16  17
ENDBRANCH  15  16
ENDBRANCH  11  15
ENDBRANCH   1   9
BRANCH   4  25
HETATM   25  S   UNL     1      27.771  43.699  53.488  1.00  0.00     0.285 S 
HETATM   26  O   UNL     1      26.720  42.973  54.177  1.00  0.00    -0.198 OA
HETATM   27  O   UNL     1      28.471  43.118  52.360  1.00  0.00    -0.198 OA
BRANCH  25  28
HETATM   28  C   UNL     1      29.032  44.019  54.709  1.00  0.00     0.081 A 
HETATM   29  C   UNL     1      28.977  45.193  55.468  1.00  0.00     0.025 A 
HETATM   30  C   UNL     1      29.951  45.432  56.436  1.00  0.00     0.002 A 
HETATM   31  C   UNL     1      30.975  44.504  56.640  1.00  0.00     0.000 A 
HETATM   32  C   UNL     1      31.027  43.335  55.876  1.00  0.00     0.002 A 
HETATM   33  C   UNL     1      30.055  43.088  54.906  1.00  0.00     0.025 A 
ENDBRANCH  25  28
ENDBRANCH   4  25
TORSDOF 7
ENDMDL
MODEL 7
REMARK VINA RESULT:      -8.8      2.228     11.530
REMARK  7 active torsions:
REMARK  status: ('A' for Active; 'I' for Inactive)
REMARK    1  A    between atoms: C_5  and  O_6 
REMARK    2  A    between atoms: O_6  and  C_7 
REMARK    3  A    between atoms: C_7  and  C_8 
REMARK    4  A    between atoms: C_8  and  N_9 
REMARK       I    between atoms: N_9  and  C_10 
REMARK       I    between atoms: C_10  and  N_11 
REMARK    5  A    between atoms: N_11  and  C_12 
REMARK    6  A    between atoms: N_15  and  S_16 
REMARK    7  A    between atoms: S_16  and  C_17 
ROOT
HETATM    1  C   UNL     1      23.892  46.884  49.315  1.00  0.00     0.103 A 
HETATM    2  S   UNL     1      24.252  45.497  50.326  1.00  0.00    -0.032 SA
HETATM    3  C   UNL     1      25.703  46.284  50.988  1.00  0.00     0.185 A 
HETATM    4  N   UNL     1      26.518  45.838  51.881  1.00  0.00    -0.134 NA
HETATM    5  N   UNL     1      25.808  47.509  50.372  1.00  0.00    -0.336 N 
HETATM    6  C   UNL     1      24.799  47.866  49.482  1.00  0.00     0.041 A 
HETATM    7  C   UNL     1      24.770  49.267  48.963  1.00  0.00     0.071 C 
HETATM    8  H   UNL     1      26.494  48.184  50.681  1.00  0.00     0.168 HD
ENDROOT
BRANCH   1   9
HETATM    9  N   UNL     1      22.750  46.777  48.591  1.00  0.00    -0.301 N 
HETATM   10  C   UNL     1      21.492  47.274  48.683  1.00  0.00     0.321 C 
HETATM   11  N   UNL     1      21.279  48.317  49.538  1.00  0.00    -0.341 N 
HETATM   12  O   UNL     1      20.627  46.833  47.929  1.00  0.00    -0.247 OA
HETATM   13  H   UNL     1      22.118  48.822  49.783  1.00  0.00     0.164 HD
HETATM   14  H   UNL     1      22.859  46.259  47.726  1.00  0.00     0.171 HD
BRANCH  11  15
HETATM   15  C   UNL     1      20.092  49.141  49.358  1.00  0.00     0.151 C 
BRANCH  15  16
HETATM   16  C   UNL     1      20.318  50.418  48.550  1.00  0.00     0.195 C 
BRANCH  16  17
HETATM   17  O   UNL     1      19.106  50.657  47.830  1.00  0.00    -0.350 OA
BRANCH  17  18
HETATM   18  C   UNL     1      18.072  51.277  48.469  1.00  0.00     0.068 A 
HETATM   19  C   UNL     1      16.816  50.737  48.181  1.00  0.00     0.037 A 
HETATM   20  C   UNL     1      15.661  51.256  48.770  1.00  0.00     0.009 A 
HETATM   21  C   UNL     1      15.749  52.331  49.657  1.00  0.00    -0.062 A 
HETATM   22  C   UNL     1      14.520  52.879  50.320  1.00  0.00     0.048 C 
HETATM   23  C   UNL     1      17.010  52.867  49.948  1.00  0.00     0.009 A 
HETATM   24  C   UNL     1      18.167  52.347  49.353  1.00  0.00     0.037 A 
ENDBRANCH  17  18
ENDBRANCH  16  17
ENDBRANCH  15  16
ENDBRANCH  11  15
ENDBRANCH   1   9
BRANCH   4  25
HETATM   25  S   UNL     1      26.286  44.371  52.527  1.00  0.00     0.285 S 
HETATM   26  O   UNL     1      25.147  44.426  53.425  1.00  0.00    -0.198 OA
HETATM   27  O   UNL     1      26.376  43.365  51.487  1.00  0.00    -0.198 OA
BRANCH  25  28
HETATM   28  C   UNL     1      27.717  44.108  53.559  1.00  0.00     0.081 A 
HETATM   29  C   UNL     1      28.120  45.110  54.449  1.00  0.00     0.025 A 
HETATM   30  C   UNL     1      29.226  44.895  55.270  1.00  0.00     0.002 A 
HETATM   31  C   UNL     1      29.925  43.689  55.198  1.00  0.00     0.000 A 
HETATM   32  C   UNL     1      29.521  42.693  54.304  1.00  0.00     0.002 A 
HETATM   33  C   UNL     1      28.414  42.900  53.480  1.00  0.00     0.025 A 
ENDBRANCH  25  28
ENDBRANCH   4  25
TORSDOF 7
ENDMDL
MODEL 8
REMARK VINA RESULT:      -8.8      1.848      2.218
REMARK  7 active torsions:
REMARK  status: ('A' for Active; 'I' for Inactive)
REMARK    1  A    between atoms: C_5  and  O_6 
REMARK    2  A    between atoms: O_6  and  C_7 
REMARK    3  A    between atoms: C_7  and  C_8 
REMARK    4  A    between atoms: C_8  and  N_9 
REMARK       I    between atoms: N_9  and  C_10 
REMARK       I    between atoms: C_10  and  N_11 
REMARK    5  A    between atoms: N_11  and  C_12 
REMARK    6  A    between atoms: N_15  and  S_16 
REMARK    7  A    between atoms: S_16  and  C_17 
ROOT
HETATM    1  C   UNL     1      22.981  47.531  48.848  1.00  0.00     0.103 A 
HETATM    2  S   UNL     1      21.229  47.459  48.806  1.00  0.00    -0.032 SA
HETATM    3  C   UNL     1      21.096  49.226  48.957  1.00  0.00     0.185 A 
HETATM    4  N   UNL     1      20.030  49.951  48.964  1.00  0.00    -0.134 NA
HETATM    5  N   UNL     1      22.378  49.716  49.053  1.00  0.00    -0.336 N 
HETATM    6  C   UNL     1      23.421  48.800  48.955  1.00  0.00     0.041 A 
HETATM    7  C   UNL     1      24.817  49.320  48.841  1.00  0.00     0.071 C 
HETATM    8  H   UNL     1      22.553  50.711  49.027  1.00  0.00     0.168 HD
ENDROOT
BRANCH   1   9
HETATM    9  N   UNL     1      23.600  46.333  48.702  1.00  0.00    -0.301 N 
HETATM   10  C   UNL     1      24.356  45.529  49.489  1.00  0.00     0.321 C 
HETATM   11  N   UNL     1      24.368  45.779  50.832  1.00  0.00    -0.341 N 
HETATM   12  O   UNL     1      24.914  44.559  48.980  1.00  0.00    -0.247 OA
HETATM   13  H   UNL     1      23.584  46.328  51.152  1.00  0.00     0.164 HD
HETATM   14  H   UNL     1      23.405  45.874  47.819  1.00  0.00     0.171 HD
BRANCH  11  15
HETATM   15  C   UNL     1      24.795  44.723  51.739  1.00  0.00     0.151 C 
BRANCH  15  16
HETATM   16  C   UNL     1      25.985  45.086  52.627  1.00  0.00     0.195 C 
BRANCH  16  17
HETATM   17  O   UNL     1      27.103  44.354  52.118  1.00  0.00    -0.350 OA
BRANCH  17  18
HETATM   18  C   UNL     1      28.129  44.049  52.963  1.00  0.00     0.068 A 
HETATM   19  C   UNL     1      28.116  44.764  54.163  1.00  0.00     0.037 A 
HETATM   20  C   UNL     1      29.095  44.551  55.135  1.00  0.00     0.009 A 
HETATM   21  C   UNL     1      30.109  43.617  54.915  1.00  0.00    -0.062 A 
HETATM   22  C   UNL     1      31.150  43.356  55.964  1.00  0.00     0.048 C 
HETATM   23  C   UNL     1      30.118  42.898  53.714  1.00  0.00     0.009 A 
HETATM   24  C   UNL     1      29.137  43.115  52.738  1.00  0.00     0.037 A 
ENDBRANCH  17  18
ENDBRANCH  16  17
ENDBRANCH  15  16
ENDBRANCH  11  15
ENDBRANCH   1   9
BRANCH   4  25
HETATM   25  S   UNL     1      18.575  49.250  48.849  1.00  0.00     0.285 S 
HETATM   26  O   UNL     1      18.453  48.628  47.543  1.00  0.00    -0.198 OA
HETATM   27  O   UNL     1      18.298  48.507  50.063  1.00  0.00    -0.198 OA
BRANCH  25  28
HETATM   28  C   UNL     1      17.423  50.612  48.858  1.00  0.00     0.081 A 
HETATM   29  C   UNL     1      17.523  51.595  49.848  1.00  0.00     0.025 A 
HETATM   30  C   UNL     1      16.636  52.670  49.842  1.00  0.00     0.002 A 
HETATM   31  C   UNL     1      15.652  52.757  48.854  1.00  0.00     0.000 A 
HETATM   32  C   UNL     1      15.554  51.769  47.870  1.00  0.00     0.002 A 
HETATM   33  C   UNL     1      16.439  50.691  47.869  1.00  0.00     0.025 A 
ENDBRANCH  25  28
ENDBRANCH   4  25
TORSDOF 7
ENDMDL
MODEL 9
REMARK VINA RESULT:      -8.6      4.106      9.268
REMARK  7 active torsions:
REMARK  status: ('A' for Active; 'I' for Inactive)
REMARK    1  A    between atoms: C_5  and  O_6 
REMARK    2  A    between atoms: O_6  and  C_7 
REMARK    3  A    between atoms: C_7  and  C_8 
REMARK    4  A    between atoms: C_8  and  N_9 
REMARK       I    between atoms: N_9  and  C_10 
REMARK       I    between atoms: C_10  and  N_11 
REMARK    5  A    between atoms: N_11  and  C_12 
REMARK    6  A    between atoms: N_15  and  S_16 
REMARK    7  A    between atoms: S_16  and  C_17 
ROOT
HETATM    1  C   UNL     1      24.225  45.028  50.655  1.00  0.00     0.103 A 
HETATM    2  S   UNL     1      25.052  43.931  51.745  1.00  0.00    -0.032 SA
HETATM    3  C   UNL     1      26.220  45.187  52.214  1.00  0.00     0.185 A 
HETATM    4  N   UNL     1      27.180  45.107  53.070  1.00  0.00    -0.134 NA
HETATM    5  N   UNL     1      25.905  46.314  51.492  1.00  0.00    -0.336 N 
HETATM    6  C   UNL     1      24.789  46.252  50.663  1.00  0.00     0.041 A 
HETATM    7  C   UNL     1      24.297  47.514  50.034  1.00  0.00     0.071 C 
HETATM    8  H   UNL     1      26.363  47.194  51.685  1.00  0.00     0.168 HD
ENDROOT
BRANCH   1   9
HETATM    9  N   UNL     1      23.135  44.503  50.042  1.00  0.00    -0.301 N 
HETATM   10  C   UNL     1      22.910  43.754  48.935  1.00  0.00     0.321 C 
HETATM   11  N   UNL     1      23.981  43.138  48.353  1.00  0.00    -0.341 N 
HETATM   12  O   UNL     1      21.751  43.584  48.563  1.00  0.00    -0.247 OA
HETATM   13  H   UNL     1      24.776  43.037  48.966  1.00  0.00     0.164 HD
HETATM   14  H   UNL     1      22.271  44.629  50.560  1.00  0.00     0.171 HD
BRANCH  11  15
HETATM   15  C   UNL     1      23.743  42.014  47.458  1.00  0.00     0.151 C 
BRANCH  15  16
HETATM   16  C   UNL     1      24.835  40.945  47.472  1.00  0.00     0.195 C 
BRANCH  16  17
HETATM   17  O   UNL     1      25.182  40.743  48.843  1.00  0.00    -0.350 OA
BRANCH  17  18
HETATM   18  C   UNL     1      26.292  40.009  49.141  1.00  0.00     0.068 A 
HETATM   19  C   UNL     1      27.152  40.618  50.059  1.00  0.00     0.037 A 
HETATM   20  C   UNL     1      28.324  39.982  50.473  1.00  0.00     0.009 A 
HETATM   21  C   UNL     1      28.655  38.723  49.967  1.00  0.00    -0.062 A 
HETATM   22  C   UNL     1      29.895  38.015  50.427  1.00  0.00     0.048 C 
HETATM   23  C   UNL     1      27.789  38.113  49.052  1.00  0.00     0.009 A 
HETATM   24  C   UNL     1      26.615  38.754  48.634  1.00  0.00     0.037 A 
ENDBRANCH  17  18
ENDBRANCH  16  17
ENDBRANCH  15  16
ENDBRANCH  11  15
ENDBRANCH   1   9
BRANCH   4  25
HETATM   25  S   UNL     1      27.451  43.715  53.853  1.00  0.00     0.285 S 
HETATM   26  O   UNL     1      26.372  43.487  54.796  1.00  0.00    -0.198 OA
HETATM   27  O   UNL     1      27.847  42.694  52.903  1.00  0.00    -0.198 OA
BRANCH  25  28
HETATM   28  C   UNL     1      28.907  44.033  54.835  1.00  0.00     0.081 A 
HETATM   29  C   UNL     1      29.063  45.277  55.455  1.00  0.00     0.025 A 
HETATM   30  C   UNL     1      30.191  45.517  56.239  1.00  0.00     0.002 A 
HETATM   31  C   UNL     1      31.156  44.520  56.397  1.00  0.00     0.000 A 
HETATM   32  C   UNL     1      30.997  43.281  55.771  1.00  0.00     0.002 A 
HETATM   33  C   UNL     1      29.871  43.032  54.986  1.00  0.00     0.025 A 
ENDBRANCH  25  28
ENDBRANCH   4  25
TORSDOF 7
ENDMDL
MODEL 10
REMARK VINA RESULT:      -8.3      6.475      9.087
REMARK  7 active torsions:
REMARK  status: ('A' for Active; 'I' for Inactive)
REMARK    1  A    between atoms: C_5  and  O_6 
REMARK    2  A    between atoms: O_6  and  C_7 
REMARK    3  A    between atoms: C_7  and  C_8 
REMARK    4  A    between atoms: C_8  and  N_9 
REMARK       I    between atoms: N_9  and  C_10 
REMARK       I    between atoms: C_10  and  N_11 
REMARK    5  A    between atoms: N_11  and  C_12 
REMARK    6  A    between atoms: N_15  and  S_16 
REMARK    7  A    between atoms: S_16  and  C_17 
ROOT
HETATM    1  C   UNL     1      27.177  42.356  52.418  1.00  0.00     0.103 A 
HETATM    2  S   UNL     1      26.478  41.794  50.911  1.00  0.00    -0.032 SA
HETATM    3  C   UNL     1      28.018  41.062  50.404  1.00  0.00     0.185 A 
HETATM    4  N   UNL     1      28.271  40.392  49.332  1.00  0.00    -0.134 NA
HETATM    5  N   UNL     1      28.931  41.325  51.398  1.00  0.00    -0.336 N 
HETATM    6  C   UNL     1      28.473  42.000  52.525  1.00  0.00     0.041 A 
HETATM    7  C   UNL     1      29.380  42.112  53.706  1.00  0.00     0.071 C 
HETATM    8  H   UNL     1      29.848  40.900  51.381  1.00  0.00     0.168 HD
ENDROOT
BRANCH   1   9
HETATM    9  N   UNL     1      26.307  42.986  53.246  1.00  0.00    -0.301 N 
HETATM   10  C   UNL     1      26.234  44.207  53.831  1.00  0.00     0.321 C 
HETATM   11  N   UNL     1      27.062  45.188  53.365  1.00  0.00    -0.341 N 
HETATM   12  O   UNL     1      25.368  44.403  54.680  1.00  0.00    -0.247 OA
HETATM   13  H   UNL     1      27.421  45.013  52.438  1.00  0.00     0.164 HD
HETATM   14  H   UNL     1      25.459  42.460  53.429  1.00  0.00     0.171 HD
BRANCH  11  15
HETATM   15  C   UNL     1      26.732  46.578  53.648  1.00  0.00     0.151 C 
BRANCH  15  16
HETATM   16  C   UNL     1      27.762  47.317  54.501  1.00  0.00     0.195 C 
BRANCH  16  17
HETATM   17  O   UNL     1      27.602  46.831  55.835  1.00  0.00    -0.350 OA
BRANCH  17  18
HETATM   18  C   UNL     1      28.636  46.160  56.420  1.00  0.00     0.068 A 
HETATM   19  C   UNL     1      29.389  45.384  55.535  1.00  0.00     0.037 A 
HETATM   20  C   UNL     1      30.489  44.650  55.983  1.00  0.00     0.009 A 
HETATM   21  C   UNL     1      30.849  44.679  57.332  1.00  0.00    -0.062 A 
HETATM   22  C   UNL     1      32.046  43.920  57.821  1.00  0.00     0.048 C 
HETATM   23  C   UNL     1      30.096  45.462  58.216  1.00  0.00     0.009 A 
HETATM   24  C   UNL     1      28.990  46.195  57.765  1.00  0.00     0.037 A 
ENDBRANCH  17  18
ENDBRANCH  16  17
ENDBRANCH  15  16
ENDBRANCH  11  15
ENDBRANCH   1   9
BRANCH   4  25
HETATM   25  S   UNL     1      27.105  40.156  48.233  1.00  0.00     0.285 S 
HETATM   26  O   UNL     1      26.049  39.358  48.830  1.00  0.00    -0.198 OA
HETATM   27  O   UNL     1      26.813  41.406  47.559  1.00  0.00    -0.198 OA
BRANCH  25  28
HETATM   28  C   UNL     1      27.865  39.121  46.993  1.00  0.00     0.081 A 
HETATM   29  C   UNL     1      28.449  37.908  47.370  1.00  0.00     0.025 A 
HETATM   30  C   UNL     1      29.024  37.090  46.399  1.00  0.00     0.002 A 
HETATM   31  C   UNL     1      29.018  37.488  45.060  1.00  0.00     0.000 A 
HETATM   32  C   UNL     1      28.437  38.704  44.689  1.00  0.00     0.002 A 
HETATM   33  C   UNL     1      27.858  39.527  45.656  1.00  0.00     0.025 A 
ENDBRANCH  25  28
ENDBRANCH   4  25
TORSDOF 7
ENDMDL
