MODEL 1
REMARK VINA RESULT:      -8.5      0.000      0.000
REMARK  11 active torsions:
REMARK  status: ('A' for Active; 'I' for Inactive)
REMARK    1  A    between atoms: O_2  and  C_3 
REMARK    2  A    between atoms: C_5  and  C_6 
REMARK    3  A    between atoms: C_10  and  C_11 
REMARK       I    between atoms: C_11  and  N_12 
REMARK    4  A    between atoms: N_12  and  C_13 
REMARK    5  A    between atoms: C_13  and  C_14 
REMARK    6  A    between atoms: C_15  and  C_16 
REMARK    7  A    between atoms: C_16  and  O_17 
REMARK    8  A    between atoms: O_17  and  C_18 
REMARK    9  A    between atoms: C_19  and  C_20 
REMARK   10  A    between atoms: C_20  and  C_21 
REMARK   11  A    between atoms: C_29  and  O_30 
ROOT
HETATM    1  C   UNL     1      25.163  43.478  51.300  1.00  0.00     0.270 C 
HETATM    2  N   UNL     1      25.848  44.392  52.060  1.00  0.00    -0.345 N 
HETATM    3  O   UNL     1      23.948  43.331  51.378  1.00  0.00    -0.266 OA
HETATM    4  H   UNL     1      26.854  44.445  51.996  1.00  0.00     0.163 HD
ENDROOT
BRANCH   1   5
HETATM    5  C   UNL     1      25.968  42.683  50.412  1.00  0.00     0.120 A 
HETATM    6  N   UNL     1      26.505  43.212  49.271  1.00  0.00    -0.272 N 
HETATM    7  N   UNL     1      27.169  42.329  48.510  1.00  0.00    -0.174 NA
HETATM    8  H   UNL     1      26.420  44.171  48.949  1.00  0.00     0.189 HD
HETATM    9  C   UNL     1      27.102  41.183  49.201  1.00  0.00     0.092 A 
HETATM   10  C   UNL     1      26.365  41.361  50.405  1.00  0.00     0.071 A 
BRANCH   9  11
HETATM   11  C   UNL     1      27.647  39.934  48.682  1.00  0.00     0.030 A 
HETATM   12  C   UNL     1      28.719  39.339  49.369  1.00  0.00     0.053 A 
HETATM   13  C   UNL     1      29.270  38.130  48.942  1.00  0.00     0.069 A 
HETATM   14  C   UNL     1      28.753  37.510  47.806  1.00  0.00     0.039 A 
HETATM   15  C   UNL     1      27.691  38.096  47.106  1.00  0.00     0.040 A 
HETATM   16  C   UNL     1      27.126  39.299  47.545  1.00  0.00     0.081 A 
BRANCH  13  17
HETATM   17  O   UNL     1      30.307  37.673  49.708  1.00  0.00    -0.356 OA
HETATM   18  C   UNL     1      30.044  37.469  51.090  1.00  0.00     0.210 C 
ENDBRANCH  13  17
BRANCH  16  19
HETATM   19  O   UNL     1      26.134  39.930  46.837  1.00  0.00    -0.355 OA
HETATM   20  C   UNL     1      26.289  39.858  45.422  1.00  0.00     0.210 C 
ENDBRANCH  16  19
ENDBRANCH   9  11
ENDBRANCH   1   5
BRANCH   2  21
HETATM   21  C   UNL     1      25.195  45.147  53.096  1.00  0.00     0.217 C 
BRANCH  21  22
HETATM   22  C   UNL     1      26.192  45.710  54.009  1.00  0.00    -0.085 C 
HETATM   23  C   UNL     1      26.995  46.135  54.795  1.00  0.00    -0.078 C 
BRANCH  23  24
HETATM   24  C   UNL     1      27.955  46.601  55.806  1.00  0.00     0.269 C 
BRANCH  24  25
HETATM   25  O   UNL     1      29.302  46.348  55.393  1.00  0.00    -0.339 OA
BRANCH  25  26
HETATM   26  C   UNL     1      29.998  45.413  56.117  1.00  0.00     0.076 A 
HETATM   27  C   UNL     1      30.249  44.180  55.490  1.00  0.00    -0.021 A 
HETATM   28  C   UNL     1      30.971  43.194  56.186  1.00  0.00     0.010 A 
HETATM   29  C   UNL     1      31.462  43.440  57.468  1.00  0.00     0.001 A 
HETATM   30  C   UNL     1      31.235  44.672  58.070  1.00  0.00     0.003 A 
HETATM   31  C   UNL     1      30.509  45.657  57.396  1.00  0.00     0.037 A 
BRANCH  27  32
HETATM   32  C   UNL     1      29.723  43.863  54.108  1.00  0.00     0.067 C 
BRANCH  32  33
HETATM   33  C   UNL     1      28.624  42.835  54.140  1.00  0.00    -0.032 C 
HETATM   34  C   UNL     1      28.630  41.696  53.435  1.00  0.00     0.007 C 
ENDBRANCH  32  33
ENDBRANCH  27  32
ENDBRANCH  25  26
ENDBRANCH  24  25
ENDBRANCH  23  24
ENDBRANCH  21  22
ENDBRANCH   2  21
TORSDOF 11
ENDMDL
MODEL 2
REMARK VINA RESULT:      -8.5      6.107     10.821
REMARK  11 active torsions:
REMARK  status: ('A' for Active; 'I' for Inactive)
REMARK    1  A    between atoms: O_2  and  C_3 
REMARK    2  A    between atoms: C_5  and  C_6 
REMARK    3  A    between atoms: C_10  and  C_11 
REMARK       I    between atoms: C_11  and  N_12 
REMARK    4  A    between atoms: N_12  and  C_13 
REMARK    5  A    between atoms: C_13  and  C_14 
REMARK    6  A    between atoms: C_15  and  C_16 
REMARK    7  A    between atoms: C_16  and  O_17 
REMARK    8  A    between atoms: O_17  and  C_18 
REMARK    9  A    between atoms: C_19  and  C_20 
REMARK   10  A    between atoms: C_20  and  C_21 
REMARK   11  A    between atoms: C_29  and  O_30 
ROOT
HETATM    1  C   UNL     1      24.171  47.091  50.059  1.00  0.00     0.270 C 
HETATM    2  N   UNL     1      23.262  46.295  49.409  1.00  0.00    -0.345 N 
HETATM    3  O   UNL     1      24.388  48.252  49.730  1.00  0.00    -0.266 OA
HETATM    4  H   UNL     1      23.150  45.331  49.685  1.00  0.00     0.163 HD
ENDROOT
BRANCH   1   5
HETATM    5  C   UNL     1      24.875  46.466  51.147  1.00  0.00     0.120 A 
HETATM    6  N   UNL     1      24.429  45.301  51.708  1.00  0.00    -0.272 N 
HETATM    7  N   UNL     1      25.148  44.881  52.759  1.00  0.00    -0.174 NA
HETATM    8  H   UNL     1      23.614  44.765  51.425  1.00  0.00     0.189 HD
HETATM    9  C   UNL     1      26.133  45.785  52.866  1.00  0.00     0.092 A 
HETATM   10  C   UNL     1      26.005  46.792  51.869  1.00  0.00     0.071 A 
BRANCH   9  11
HETATM   11  C   UNL     1      27.113  45.737  53.945  1.00  0.00     0.030 A 
HETATM   12  C   UNL     1      28.125  44.764  53.882  1.00  0.00     0.053 A 
HETATM   13  C   UNL     1      29.110  44.681  54.868  1.00  0.00     0.069 A 
HETATM   14  C   UNL     1      29.078  45.572  55.938  1.00  0.00     0.039 A 
HETATM   15  C   UNL     1      28.070  46.540  56.019  1.00  0.00     0.040 A 
HETATM   16  C   UNL     1      27.093  46.637  55.021  1.00  0.00     0.081 A 
BRANCH  13  17
HETATM   17  O   UNL     1      30.028  43.686  54.673  1.00  0.00    -0.356 OA
HETATM   18  C   UNL     1      30.843  43.336  55.784  1.00  0.00     0.210 C 
ENDBRANCH  13  17
BRANCH  16  19
HETATM   19  O   UNL     1      26.053  47.527  55.114  1.00  0.00    -0.355 OA
HETATM   20  C   UNL     1      26.385  48.747  55.770  1.00  0.00     0.210 C 
ENDBRANCH  16  19
ENDBRANCH   9  11
ENDBRANCH   1   5
BRANCH   2  21
HETATM   21  C   UNL     1      22.597  46.737  48.211  1.00  0.00     0.217 C 
BRANCH  21  22
HETATM   22  C   UNL     1      21.238  47.180  48.528  1.00  0.00    -0.085 C 
HETATM   23  C   UNL     1      20.129  47.522  48.840  1.00  0.00    -0.078 C 
BRANCH  23  24
HETATM   24  C   UNL     1      18.786  47.914  49.290  1.00  0.00     0.269 C 
BRANCH  24  25
HETATM   25  O   UNL     1      18.837  49.105  50.084  1.00  0.00    -0.339 OA
BRANCH  25  26
HETATM   26  C   UNL     1      18.474  50.271  49.460  1.00  0.00     0.076 A 
HETATM   27  C   UNL     1      19.496  51.200  49.202  1.00  0.00    -0.021 A 
HETATM   28  C   UNL     1      19.178  52.405  48.551  1.00  0.00     0.010 A 
HETATM   29  C   UNL     1      17.873  52.668  48.135  1.00  0.00     0.001 A 
HETATM   30  C   UNL     1      16.872  51.732  48.367  1.00  0.00     0.003 A 
HETATM   31  C   UNL     1      17.171  50.537  49.023  1.00  0.00     0.037 A 
BRANCH  27  32
HETATM   32  C   UNL     1      20.923  50.965  49.649  1.00  0.00     0.067 C 
BRANCH  32  33
HETATM   33  C   UNL     1      21.872  50.856  48.486  1.00  0.00    -0.032 C 
HETATM   34  C   UNL     1      23.166  51.200  48.529  1.00  0.00     0.007 C 
ENDBRANCH  32  33
ENDBRANCH  27  32
ENDBRANCH  25  26
ENDBRANCH  24  25
ENDBRANCH  23  24
ENDBRANCH  21  22
ENDBRANCH   2  21
TORSDOF 11
ENDMDL
MODEL 3
REMARK VINA RESULT:      -8.4      6.081     10.322
REMARK  11 active torsions:
REMARK  status: ('A' for Active; 'I' for Inactive)
REMARK    1  A    between atoms: O_2  and  C_3 
REMARK    2  A    between atoms: C_5  and  C_6 
REMARK    3  A    between atoms: C_10  and  C_11 
REMARK       I    between atoms: C_11  and  N_12 
REMARK    4  A    between atoms: N_12  and  C_13 
REMARK    5  A    between atoms: C_13  and  C_14 
REMARK    6  A    between atoms: C_15  and  C_16 
REMARK    7  A    between atoms: C_16  and  O_17 
REMARK    8  A    between atoms: O_17  and  C_18 
REMARK    9  A    between atoms: C_19  and  C_20 
REMARK   10  A    between atoms: C_20  and  C_21 
REMARK   11  A    between atoms: C_29  and  O_30 
ROOT
HETATM    1  C   UNL     1      24.302  47.028  50.280  1.00  0.00     0.270 C 
HETATM    2  N   UNL     1      23.396  46.436  49.438  1.00  0.00    -0.345 N 
HETATM    3  O   UNL     1      24.517  48.236  50.277  1.00  0.00    -0.266 OA
HETATM    4  H   UNL     1      23.286  45.433  49.442  1.00  0.00     0.163 HD
ENDROOT
BRANCH   1   5
HETATM    5  C   UNL     1      25.006  46.134  51.160  1.00  0.00     0.120 A 
HETATM    6  N   UNL     1      24.363  45.104  51.790  1.00  0.00    -0.272 N 
HETATM    7  N   UNL     1      25.135  44.403  52.635  1.00  0.00    -0.174 NA
HETATM    8  H   UNL     1      23.383  44.853  51.698  1.00  0.00     0.189 HD
HETATM    9  C   UNL     1      26.344  44.970  52.522  1.00  0.00     0.092 A 
HETATM   10  C   UNL     1      26.311  46.054  51.602  1.00  0.00     0.071 A 
BRANCH   9  11
HETATM   11  C   UNL     1      27.476  44.547  53.340  1.00  0.00     0.030 A 
HETATM   12  C   UNL     1      27.933  45.416  54.344  1.00  0.00     0.053 A 
HETATM   13  C   UNL     1      28.994  45.062  55.179  1.00  0.00     0.069 A 
HETATM   14  C   UNL     1      29.616  43.827  55.003  1.00  0.00     0.039 A 
HETATM   15  C   UNL     1      29.177  42.955  53.999  1.00  0.00     0.040 A 
HETATM   16  C   UNL     1      28.101  43.302  53.174  1.00  0.00     0.081 A 
BRANCH  13  17
HETATM   17  O   UNL     1      29.328  46.007  56.109  1.00  0.00    -0.356 OA
HETATM   18  C   UNL     1      30.255  45.621  57.116  1.00  0.00     0.210 C 
ENDBRANCH  13  17
BRANCH  16  19
HETATM   19  O   UNL     1      27.699  42.498  52.137  1.00  0.00    -0.355 OA
HETATM   20  C   UNL     1      28.284  41.199  52.143  1.00  0.00     0.210 C 
ENDBRANCH  16  19
ENDBRANCH   9  11
ENDBRANCH   1   5
BRANCH   2  21
HETATM   21  C   UNL     1      22.733  47.184  48.402  1.00  0.00     0.217 C 
BRANCH  21  22
HETATM   22  C   UNL     1      21.360  47.493  48.810  1.00  0.00    -0.085 C 
HETATM   23  C   UNL     1      20.248  47.731  49.196  1.00  0.00    -0.078 C 
BRANCH  23  24
HETATM   24  C   UNL     1      18.910  48.006  49.739  1.00  0.00     0.269 C 
BRANCH  24  25
HETATM   25  O   UNL     1      18.867  49.287  50.379  1.00  0.00    -0.339 OA
BRANCH  25  26
HETATM   26  C   UNL     1      18.449  50.341  49.608  1.00  0.00     0.076 A 
HETATM   27  C   UNL     1      19.419  51.293  49.250  1.00  0.00    -0.021 A 
HETATM   28  C   UNL     1      19.042  52.385  48.449  1.00  0.00     0.010 A 
HETATM   29  C   UNL     1      17.733  52.513  47.986  1.00  0.00     0.001 A 
HETATM   30  C   UNL     1      16.786  51.552  48.319  1.00  0.00     0.003 A 
HETATM   31  C   UNL     1      17.142  50.468  49.124  1.00  0.00     0.037 A 
BRANCH  27  32
HETATM   32  C   UNL     1      20.847  51.205  49.743  1.00  0.00     0.067 C 
BRANCH  32  33
HETATM   33  C   UNL     1      21.840  51.230  48.613  1.00  0.00    -0.032 C 
HETATM   34  C   UNL     1      23.137  50.919  48.736  1.00  0.00     0.007 C 
ENDBRANCH  32  33
ENDBRANCH  27  32
ENDBRANCH  25  26
ENDBRANCH  24  25
ENDBRANCH  23  24
ENDBRANCH  21  22
ENDBRANCH   2  21
TORSDOF 11
ENDMDL
MODEL 4
REMARK VINA RESULT:      -8.1      6.949     10.099
REMARK  11 active torsions:
REMARK  status: ('A' for Active; 'I' for Inactive)
REMARK    1  A    between atoms: O_2  and  C_3 
REMARK    2  A    between atoms: C_5  and  C_6 
REMARK    3  A    between atoms: C_10  and  C_11 
REMARK       I    between atoms: C_11  and  N_12 
REMARK    4  A    between atoms: N_12  and  C_13 
REMARK    5  A    between atoms: C_13  and  C_14 
REMARK    6  A    between atoms: C_15  and  C_16 
REMARK    7  A    between atoms: C_16  and  O_17 
REMARK    8  A    between atoms: O_17  and  C_18 
REMARK    9  A    between atoms: C_19  and  C_20 
REMARK   10  A    between atoms: C_20  and  C_21 
REMARK   11  A    between atoms: C_29  and  O_30 
ROOT
HETATM    1  C   UNL     1      24.150  48.819  49.104  1.00  0.00     0.270 C 
HETATM    2  N   UNL     1      24.499  47.780  49.929  1.00  0.00    -0.345 N 
HETATM    3  O   UNL     1      24.976  49.465  48.467  1.00  0.00    -0.266 OA
HETATM    4  H   UNL     1      23.791  47.308  50.470  1.00  0.00     0.163 HD
ENDROOT
BRANCH   1   5
HETATM    5  C   UNL     1      22.744  49.121  49.050  1.00  0.00     0.120 A 
HETATM    6  N   UNL     1      21.805  48.217  49.463  1.00  0.00    -0.272 N 
HETATM    7  N   UNL     1      20.537  48.613  49.283  1.00  0.00    -0.174 NA
HETATM    8  H   UNL     1      21.981  47.295  49.852  1.00  0.00     0.189 HD
HETATM    9  C   UNL     1      20.648  49.846  48.769  1.00  0.00     0.092 A 
HETATM   10  C   UNL     1      22.014  50.208  48.614  1.00  0.00     0.071 A 
BRANCH   9  11
HETATM   11  C   UNL     1      19.482  50.618  48.353  1.00  0.00     0.030 A 
HETATM   12  C   UNL     1      18.895  51.491  49.285  1.00  0.00     0.053 A 
HETATM   13  C   UNL     1      17.795  52.279  48.944  1.00  0.00     0.069 A 
HETATM   14  C   UNL     1      17.263  52.187  47.659  1.00  0.00     0.039 A 
HETATM   15  C   UNL     1      17.832  51.314  46.724  1.00  0.00     0.040 A 
HETATM   16  C   UNL     1      18.947  50.537  47.059  1.00  0.00     0.081 A 
BRANCH  13  17
HETATM   17  O   UNL     1      17.332  53.079  49.953  1.00  0.00    -0.356 OA
HETATM   18  C   UNL     1      15.928  53.090  50.173  1.00  0.00     0.210 C 
ENDBRANCH  13  17
BRANCH  16  19
HETATM   19  O   UNL     1      19.477  49.622  46.185  1.00  0.00    -0.355 OA
HETATM   20  C   UNL     1      18.682  48.453  46.008  1.00  0.00     0.210 C 
ENDBRANCH  16  19
ENDBRANCH   9  11
ENDBRANCH   1   5
BRANCH   2  21
HETATM   21  C   UNL     1      25.878  47.466  50.198  1.00  0.00     0.217 C 
BRANCH  21  22
HETATM   22  C   UNL     1      26.065  47.229  51.631  1.00  0.00    -0.085 C 
HETATM   23  C   UNL     1      26.240  47.087  52.811  1.00  0.00    -0.078 C 
BRANCH  23  24
HETATM   24  C   UNL     1      26.479  46.984  54.258  1.00  0.00     0.269 C 
BRANCH  24  25
HETATM   25  O   UNL     1      26.724  45.627  54.644  1.00  0.00    -0.339 OA
BRANCH  25  26
HETATM   26  C   UNL     1      27.959  45.358  55.177  1.00  0.00     0.076 A 
HETATM   27  C   UNL     1      28.702  44.329  54.575  1.00  0.00    -0.021 A 
HETATM   28  C   UNL     1      29.980  44.024  55.076  1.00  0.00     0.010 A 
HETATM   29  C   UNL     1      30.522  44.749  56.136  1.00  0.00     0.001 A 
HETATM   30  C   UNL     1      29.794  45.786  56.708  1.00  0.00     0.003 A 
HETATM   31  C   UNL     1      28.518  46.092  56.230  1.00  0.00     0.037 A 
BRANCH  27  32
HETATM   32  C   UNL     1      28.148  43.504  53.433  1.00  0.00     0.067 C 
BRANCH  32  33
HETATM   33  C   UNL     1      28.959  42.262  53.184  1.00  0.00    -0.032 C 
HETATM   34  C   UNL     1      28.510  41.013  53.365  1.00  0.00     0.007 C 
ENDBRANCH  32  33
ENDBRANCH  27  32
ENDBRANCH  25  26
ENDBRANCH  24  25
ENDBRANCH  23  24
ENDBRANCH  21  22
ENDBRANCH   2  21
TORSDOF 11
ENDMDL
MODEL 5
REMARK VINA RESULT:      -8.0      7.316     10.853
REMARK  11 active torsions:
REMARK  status: ('A' for Active; 'I' for Inactive)
REMARK    1  A    between atoms: O_2  and  C_3 
REMARK    2  A    between atoms: C_5  and  C_6 
REMARK    3  A    between atoms: C_10  and  C_11 
REMARK       I    between atoms: C_11  and  N_12 
REMARK    4  A    between atoms: N_12  and  C_13 
REMARK    5  A    between atoms: C_13  and  C_14 
REMARK    6  A    between atoms: C_15  and  C_16 
REMARK    7  A    between atoms: C_16  and  O_17 
REMARK    8  A    between atoms: O_17  and  C_18 
REMARK    9  A    between atoms: C_19  and  C_20 
REMARK   10  A    between atoms: C_20  and  C_21 
REMARK   11  A    between atoms: C_29  and  O_30 
ROOT
HETATM    1  C   UNL     1      23.206  49.208  48.439  1.00  0.00     0.270 C 
HETATM    2  N   UNL     1      23.991  48.535  49.340  1.00  0.00    -0.345 N 
HETATM    3  O   UNL     1      23.661  49.731  47.426  1.00  0.00    -0.266 OA
HETATM    4  H   UNL     1      23.581  48.162  50.183  1.00  0.00     0.163 HD
ENDROOT
BRANCH   1   5
HETATM    5  C   UNL     1      21.808  49.282  48.769  1.00  0.00     0.120 A 
HETATM    6  N   UNL     1      21.197  48.303  49.503  1.00  0.00    -0.272 N 
HETATM    7  N   UNL     1      19.877  48.475  49.667  1.00  0.00    -0.174 NA
HETATM    8  H   UNL     1      21.636  47.475  49.894  1.00  0.00     0.189 HD
HETATM    9  C   UNL     1      19.618  49.637  49.050  1.00  0.00     0.092 A 
HETATM   10  C   UNL     1      20.802  50.182  48.480  1.00  0.00     0.071 A 
BRANCH   9  11
HETATM   11  C   UNL     1      18.263  50.163  48.930  1.00  0.00     0.030 A 
HETATM   12  C   UNL     1      17.951  51.356  49.605  1.00  0.00     0.053 A 
HETATM   13  C   UNL     1      16.681  51.929  49.511  1.00  0.00     0.069 A 
HETATM   14  C   UNL     1      15.705  51.297  48.743  1.00  0.00     0.039 A 
HETATM   15  C   UNL     1      15.999  50.103  48.073  1.00  0.00     0.040 A 
HETATM   16  C   UNL     1      17.278  49.538  48.152  1.00  0.00     0.081 A 
BRANCH  13  17
HETATM   17  O   UNL     1      16.525  53.088  50.220  1.00  0.00    -0.356 OA
HETATM   18  C   UNL     1      15.194  53.468  50.546  1.00  0.00     0.210 C 
ENDBRANCH  13  17
BRANCH  16  19
HETATM   19  O   UNL     1      17.570  48.332  47.566  1.00  0.00    -0.355 OA
HETATM   20  C   UNL     1      16.813  47.237  48.072  1.00  0.00     0.210 C 
ENDBRANCH  16  19
ENDBRANCH   9  11
ENDBRANCH   1   5
BRANCH   2  21
HETATM   21  C   UNL     1      25.425  48.512  49.218  1.00  0.00     0.217 C 
BRANCH  21  22
HETATM   22  C   UNL     1      25.933  47.178  49.545  1.00  0.00    -0.085 C 
HETATM   23  C   UNL     1      26.353  46.099  49.866  1.00  0.00    -0.078 C 
BRANCH  23  24
HETATM   24  C   UNL     1      26.865  44.803  50.331  1.00  0.00     0.269 C 
BRANCH  24  25
HETATM   25  O   UNL     1      26.448  44.537  51.675  1.00  0.00    -0.339 OA
BRANCH  25  26
HETATM   26  C   UNL     1      27.444  44.320  52.592  1.00  0.00     0.076 A 
HETATM   27  C   UNL     1      27.392  45.070  53.780  1.00  0.00    -0.021 A 
HETATM   28  C   UNL     1      28.383  44.872  54.758  1.00  0.00     0.010 A 
HETATM   29  C   UNL     1      29.389  43.926  54.573  1.00  0.00     0.001 A 
HETATM   30  C   UNL     1      29.418  43.166  53.409  1.00  0.00     0.003 A 
HETATM   31  C   UNL     1      28.448  43.359  52.424  1.00  0.00     0.037 A 
BRANCH  27  32
HETATM   32  C   UNL     1      26.328  46.120  54.017  1.00  0.00     0.067 C 
BRANCH  32  33
HETATM   33  C   UNL     1      26.920  47.465  54.337  1.00  0.00    -0.032 C 
HETATM   34  C   UNL     1      26.631  48.180  55.432  1.00  0.00     0.007 C 
ENDBRANCH  32  33
ENDBRANCH  27  32
ENDBRANCH  25  26
ENDBRANCH  24  25
ENDBRANCH  23  24
ENDBRANCH  21  22
ENDBRANCH   2  21
TORSDOF 11
ENDMDL
MODEL 6
REMARK VINA RESULT:      -8.0      6.648     11.207
REMARK  11 active torsions:
REMARK  status: ('A' for Active; 'I' for Inactive)
REMARK    1  A    between atoms: O_2  and  C_3 
REMARK    2  A    between atoms: C_5  and  C_6 
REMARK    3  A    between atoms: C_10  and  C_11 
REMARK       I    between atoms: C_11  and  N_12 
REMARK    4  A    between atoms: N_12  and  C_13 
REMARK    5  A    between atoms: C_13  and  C_14 
REMARK    6  A    between atoms: C_15  and  C_16 
REMARK    7  A    between atoms: C_16  and  O_17 
REMARK    8  A    between atoms: O_17  and  C_18 
REMARK    9  A    between atoms: C_19  and  C_20 
REMARK   10  A    between atoms: C_20  and  C_21 
REMARK   11  A    between atoms: C_29  and  O_30 
ROOT
HETATM    1  C   UNL     1      23.835  47.027  49.391  1.00  0.00     0.270 C 
HETATM    2  N   UNL     1      22.749  46.351  48.897  1.00  0.00    -0.345 N 
HETATM    3  O   UNL     1      24.228  48.087  48.915  1.00  0.00    -0.266 OA
HETATM    4  H   UNL     1      22.491  45.458  49.291  1.00  0.00     0.163 HD
ENDROOT
BRANCH   1   5
HETATM    5  C   UNL     1      24.504  46.399  50.499  1.00  0.00     0.120 A 
HETATM    6  N   UNL     1      23.996  45.277  51.095  1.00  0.00    -0.272 N 
HETATM    7  N   UNL     1      24.692  44.851  52.159  1.00  0.00    -0.174 NA
HETATM    8  H   UNL     1      23.153  44.778  50.828  1.00  0.00     0.189 HD
HETATM    9  C   UNL     1      25.724  45.703  52.240  1.00  0.00     0.092 A 
HETATM   10  C   UNL     1      25.650  46.685  51.213  1.00  0.00     0.071 A 
BRANCH   9  11
HETATM   11  C   UNL     1      26.700  45.636  53.322  1.00  0.00     0.030 A 
HETATM   12  C   UNL     1      26.659  46.627  54.317  1.00  0.00     0.053 A 
HETATM   13  C   UNL     1      27.547  46.607  55.395  1.00  0.00     0.069 A 
HETATM   14  C   UNL     1      28.496  45.590  55.475  1.00  0.00     0.039 A 
HETATM   15  C   UNL     1      28.554  44.601  54.485  1.00  0.00     0.040 A 
HETATM   16  C   UNL     1      27.652  44.610  53.414  1.00  0.00     0.081 A 
BRANCH  13  17
HETATM   17  O   UNL     1      27.389  47.635  56.283  1.00  0.00    -0.356 OA
HETATM   18  C   UNL     1      26.389  48.599  55.979  1.00  0.00     0.210 C 
ENDBRANCH  13  17
BRANCH  16  19
HETATM   19  O   UNL     1      27.734  43.696  52.395  1.00  0.00    -0.355 OA
HETATM   20  C   UNL     1      27.668  42.338  52.820  1.00  0.00     0.210 C 
ENDBRANCH  16  19
ENDBRANCH   9  11
ENDBRANCH   1   5
BRANCH   2  21
HETATM   21  C   UNL     1      22.077  46.782  47.700  1.00  0.00     0.217 C 
BRANCH  21  22
HETATM   22  C   UNL     1      20.784  47.381  48.040  1.00  0.00    -0.085 C 
HETATM   23  C   UNL     1      19.702  47.846  48.276  1.00  0.00    -0.078 C 
BRANCH  23  24
HETATM   24  C   UNL     1      18.350  48.374  48.507  1.00  0.00     0.269 C 
BRANCH  24  25
HETATM   25  O   UNL     1      18.127  49.567  47.748  1.00  0.00    -0.339 OA
BRANCH  25  26
HETATM   26  C   UNL     1      17.546  50.616  48.414  1.00  0.00     0.076 A 
HETATM   27  C   UNL     1      18.392  51.665  48.812  1.00  0.00    -0.021 A 
HETATM   28  C   UNL     1      17.841  52.770  49.486  1.00  0.00     0.010 A 
HETATM   29  C   UNL     1      16.471  52.845  49.732  1.00  0.00     0.001 A 
HETATM   30  C   UNL     1      15.635  51.818  49.310  1.00  0.00     0.003 A 
HETATM   31  C   UNL     1      16.169  50.709  48.650  1.00  0.00     0.037 A 
BRANCH  27  32
HETATM   32  C   UNL     1      19.886  51.619  48.582  1.00  0.00     0.067 C 
BRANCH  32  33
HETATM   33  C   UNL     1      20.633  51.121  49.789  1.00  0.00    -0.032 C 
HETATM   34  C   UNL     1      21.883  50.641  49.764  1.00  0.00     0.007 C 
ENDBRANCH  32  33
ENDBRANCH  27  32
ENDBRANCH  25  26
ENDBRANCH  24  25
ENDBRANCH  23  24
ENDBRANCH  21  22
ENDBRANCH   2  21
TORSDOF 11
ENDMDL
MODEL 7
REMARK VINA RESULT:      -7.9      7.224     11.567
REMARK  11 active torsions:
REMARK  status: ('A' for Active; 'I' for Inactive)
REMARK    1  A    between atoms: O_2  and  C_3 
REMARK    2  A    between atoms: C_5  and  C_6 
REMARK    3  A    between atoms: C_10  and  C_11 
REMARK       I    between atoms: C_11  and  N_12 
REMARK    4  A    between atoms: N_12  and  C_13 
REMARK    5  A    between atoms: C_13  and  C_14 
REMARK    6  A    between atoms: C_15  and  C_16 
REMARK    7  A    between atoms: C_16  and  O_17 
REMARK    8  A    between atoms: O_17  and  C_18 
REMARK    9  A    between atoms: C_19  and  C_20 
REMARK   10  A    between atoms: C_20  and  C_21 
REMARK   11  A    between atoms: C_29  and  O_30 
ROOT
HETATM    1  C   UNL     1      24.344  47.856  49.745  1.00  0.00     0.270 C 
HETATM    2  N   UNL     1      22.979  47.790  49.628  1.00  0.00    -0.345 N 
HETATM    3  O   UNL     1      25.038  48.550  49.010  1.00  0.00    -0.266 OA
HETATM    4  H   UNL     1      22.453  47.169  50.225  1.00  0.00     0.163 HD
ENDROOT
BRANCH   1   5
HETATM    5  C   UNL     1      24.918  47.037  50.779  1.00  0.00     0.120 A 
HETATM    6  N   UNL     1      24.321  45.872  51.178  1.00  0.00    -0.272 N 
HETATM    7  N   UNL     1      24.934  45.257  52.200  1.00  0.00    -0.174 NA
HETATM    8  H   UNL     1      23.471  45.465  50.799  1.00  0.00     0.189 HD
HETATM    9  C   UNL     1      26.001  46.028  52.456  1.00  0.00     0.092 A 
HETATM   10  C   UNL     1      26.034  47.151  51.582  1.00  0.00     0.071 A 
BRANCH   9  11
HETATM   11  C   UNL     1      26.910  45.749  53.562  1.00  0.00     0.030 A 
HETATM   12  C   UNL     1      27.785  44.656  53.444  1.00  0.00     0.053 A 
HETATM   13  C   UNL     1      28.699  44.350  54.454  1.00  0.00     0.069 A 
HETATM   14  C   UNL     1      28.732  45.138  55.604  1.00  0.00     0.039 A 
HETATM   15  C   UNL     1      27.860  46.224  55.738  1.00  0.00     0.040 A 
HETATM   16  C   UNL     1      26.956  46.543  54.718  1.00  0.00     0.081 A 
BRANCH  13  17
HETATM   17  O   UNL     1      29.484  43.260  54.200  1.00  0.00    -0.356 OA
HETATM   18  C   UNL     1      29.940  43.092  52.864  1.00  0.00     0.210 C 
ENDBRANCH  13  17
BRANCH  16  19
HETATM   19  O   UNL     1      26.041  47.557  54.856  1.00  0.00    -0.355 OA
HETATM   20  C   UNL     1      26.460  48.609  55.720  1.00  0.00     0.210 C 
ENDBRANCH  16  19
ENDBRANCH   9  11
ENDBRANCH   1   5
BRANCH   2  21
HETATM   21  C   UNL     1      22.285  48.435  48.545  1.00  0.00     0.217 C 
BRANCH  21  22
HETATM   22  C   UNL     1      21.411  49.488  49.067  1.00  0.00    -0.085 C 
HETATM   23  C   UNL     1      20.658  50.313  49.510  1.00  0.00    -0.078 C 
BRANCH  23  24
HETATM   24  C   UNL     1      19.690  51.265  50.072  1.00  0.00     0.269 C 
BRANCH  24  25
HETATM   25  O   UNL     1      18.382  50.685  50.148  1.00  0.00    -0.339 OA
BRANCH  25  26
HETATM   26  C   UNL     1      17.365  51.392  49.559  1.00  0.00     0.076 A 
HETATM   27  C   UNL     1      16.754  50.811  48.434  1.00  0.00    -0.021 A 
HETATM   28  C   UNL     1      15.697  51.490  47.804  1.00  0.00     0.010 A 
HETATM   29  C   UNL     1      15.234  52.708  48.299  1.00  0.00     0.001 A 
HETATM   30  C   UNL     1      15.824  53.263  49.430  1.00  0.00     0.003 A 
HETATM   31  C   UNL     1      16.883  52.607  50.059  1.00  0.00     0.037 A 
BRANCH  27  32
HETATM   32  C   UNL     1      17.233  49.499  47.852  1.00  0.00     0.067 C 
BRANCH  32  33
HETATM   33  C   UNL     1      17.898  49.681  46.514  1.00  0.00    -0.032 C 
HETATM   34  C   UNL     1      18.969  50.457  46.299  1.00  0.00     0.007 C 
ENDBRANCH  32  33
ENDBRANCH  27  32
ENDBRANCH  25  26
ENDBRANCH  24  25
ENDBRANCH  23  24
ENDBRANCH  21  22
ENDBRANCH   2  21
TORSDOF 11
ENDMDL
MODEL 8
REMARK VINA RESULT:      -7.9      6.694     11.533
REMARK  11 active torsions:
REMARK  status: ('A' for Active; 'I' for Inactive)
REMARK    1  A    between atoms: O_2  and  C_3 
REMARK    2  A    between atoms: C_5  and  C_6 
REMARK    3  A    between atoms: C_10  and  C_11 
REMARK       I    between atoms: C_11  and  N_12 
REMARK    4  A    between atoms: N_12  and  C_13 
REMARK    5  A    between atoms: C_13  and  C_14 
REMARK    6  A    between atoms: C_15  and  C_16 
REMARK    7  A    between atoms: C_16  and  O_17 
REMARK    8  A    between atoms: O_17  and  C_18 
REMARK    9  A    between atoms: C_19  and  C_20 
REMARK   10  A    between atoms: C_20  and  C_21 
REMARK   11  A    between atoms: C_29  and  O_30 
ROOT
HETATM    1  C   UNL     1      24.213  47.458  50.003  1.00  0.00     0.270 C 
HETATM    2  N   UNL     1      23.197  46.767  49.394  1.00  0.00    -0.345 N 
HETATM    3  O   UNL     1      24.548  48.586  49.656  1.00  0.00    -0.266 OA
HETATM    4  H   UNL     1      22.988  45.823  49.682  1.00  0.00     0.163 HD
ENDROOT
BRANCH   1   5
HETATM    5  C   UNL     1      24.882  46.763  51.070  1.00  0.00     0.120 A 
HETATM    6  N   UNL     1      24.412  45.571  51.549  1.00  0.00    -0.272 N 
HETATM    7  N   UNL     1      25.099  45.083  52.592  1.00  0.00    -0.174 NA
HETATM    8  H   UNL     1      23.601  45.061  51.213  1.00  0.00     0.189 HD
HETATM    9  C   UNL     1      26.087  45.969  52.779  1.00  0.00     0.092 A 
HETATM   10  C   UNL     1      25.994  47.035  51.842  1.00  0.00     0.071 A 
BRANCH   9  11
HETATM   11  C   UNL     1      27.036  45.848  53.880  1.00  0.00     0.030 A 
HETATM   12  C   UNL     1      27.970  44.798  53.841  1.00  0.00     0.053 A 
HETATM   13  C   UNL     1      28.923  44.640  54.848  1.00  0.00     0.069 A 
HETATM   14  C   UNL     1      28.940  45.536  55.916  1.00  0.00     0.039 A 
HETATM   15  C   UNL     1      28.010  46.581  55.972  1.00  0.00     0.040 A 
HETATM   16  C   UNL     1      27.065  46.751  54.953  1.00  0.00     0.081 A 
BRANCH  13  17
HETATM   17  O   UNL     1      29.764  43.575  54.676  1.00  0.00    -0.356 OA
HETATM   18  C   UNL     1      30.806  43.417  55.629  1.00  0.00     0.210 C 
ENDBRANCH  13  17
BRANCH  16  19
HETATM   19  O   UNL     1      26.097  47.721  55.021  1.00  0.00    -0.355 OA
HETATM   20  C   UNL     1      26.314  48.692  56.041  1.00  0.00     0.210 C 
ENDBRANCH  16  19
ENDBRANCH   9  11
ENDBRANCH   1   5
BRANCH   2  21
HETATM   21  C   UNL     1      22.542  47.276  48.217  1.00  0.00     0.217 C 
BRANCH  21  22
HETATM   22  C   UNL     1      21.103  47.398  48.459  1.00  0.00    -0.085 C 
HETATM   23  C   UNL     1      19.932  47.492  48.712  1.00  0.00    -0.078 C 
BRANCH  23  24
HETATM   24  C   UNL     1      18.518  47.604  49.095  1.00  0.00     0.269 C 
BRANCH  24  25
HETATM   25  O   UNL     1      18.023  48.926  48.856  1.00  0.00    -0.339 OA
BRANCH  25  26
HETATM   26  C   UNL     1      17.874  49.294  47.543  1.00  0.00     0.076 A 
HETATM   27  C   UNL     1      18.672  50.357  47.085  1.00  0.00    -0.021 A 
HETATM   28  C   UNL     1      18.567  50.762  45.743  1.00  0.00     0.010 A 
HETATM   29  C   UNL     1      17.708  50.104  44.864  1.00  0.00     0.001 A 
HETATM   30  C   UNL     1      16.944  49.034  45.315  1.00  0.00     0.003 A 
HETATM   31  C   UNL     1      17.028  48.628  46.648  1.00  0.00     0.037 A 
BRANCH  27  32
HETATM   32  C   UNL     1      19.605  51.111  48.006  1.00  0.00     0.067 C 
BRANCH  32  33
HETATM   33  C   UNL     1      19.054  52.455  48.398  1.00  0.00    -0.032 C 
HETATM   34  C   UNL     1      18.007  52.637  49.214  1.00  0.00     0.007 C 
ENDBRANCH  32  33
ENDBRANCH  27  32
ENDBRANCH  25  26
ENDBRANCH  24  25
ENDBRANCH  23  24
ENDBRANCH  21  22
ENDBRANCH   2  21
TORSDOF 11
ENDMDL
MODEL 9
REMARK VINA RESULT:      -7.9      1.316      2.689
REMARK  11 active torsions:
REMARK  status: ('A' for Active; 'I' for Inactive)
REMARK    1  A    between atoms: O_2  and  C_3 
REMARK    2  A    between atoms: C_5  and  C_6 
REMARK    3  A    between atoms: C_10  and  C_11 
REMARK       I    between atoms: C_11  and  N_12 
REMARK    4  A    between atoms: N_12  and  C_13 
REMARK    5  A    between atoms: C_13  and  C_14 
REMARK    6  A    between atoms: C_15  and  C_16 
REMARK    7  A    between atoms: C_16  and  O_17 
REMARK    8  A    between atoms: O_17  and  C_18 
REMARK    9  A    between atoms: C_19  and  C_20 
REMARK   10  A    between atoms: C_20  and  C_21 
REMARK   11  A    between atoms: C_29  and  O_30 
ROOT
HETATM    1  C   UNL     1      26.494  43.743  50.729  1.00  0.00     0.270 C 
HETATM    2  N   UNL     1      25.525  43.983  51.670  1.00  0.00    -0.345 N 
HETATM    3  O   UNL     1      27.285  44.604  50.358  1.00  0.00    -0.266 OA
HETATM    4  H   UNL     1      24.866  43.258  51.909  1.00  0.00     0.163 HD
ENDROOT
BRANCH   1   5
HETATM    5  C   UNL     1      26.511  42.412  50.183  1.00  0.00     0.120 A 
HETATM    6  N   UNL     1      25.797  41.397  50.759  1.00  0.00    -0.272 N 
HETATM    7  N   UNL     1      25.970  40.199  50.181  1.00  0.00    -0.174 NA
HETATM    8  H   UNL     1      25.193  41.467  51.573  1.00  0.00     0.189 HD
HETATM    9  C   UNL     1      26.800  40.446  49.158  1.00  0.00     0.092 A 
HETATM   10  C   UNL     1      27.158  41.822  49.116  1.00  0.00     0.071 A 
BRANCH   9  11
HETATM   11  C   UNL     1      27.308  39.381  48.300  1.00  0.00     0.030 A 
HETATM   12  C   UNL     1      26.581  39.054  47.143  1.00  0.00     0.053 A 
HETATM   13  C   UNL     1      27.026  38.064  46.265  1.00  0.00     0.069 A 
HETATM   14  C   UNL     1      28.206  37.380  46.552  1.00  0.00     0.039 A 
HETATM   15  C   UNL     1      28.935  37.688  47.707  1.00  0.00     0.040 A 
HETATM   16  C   UNL     1      28.500  38.694  48.578  1.00  0.00     0.081 A 
BRANCH  13  17
HETATM   17  O   UNL     1      26.216  37.856  45.183  1.00  0.00    -0.356 OA
HETATM   18  C   UNL     1      25.519  38.986  44.675  1.00  0.00     0.210 C 
ENDBRANCH  13  17
BRANCH  16  19
HETATM   19  O   UNL     1      29.157  38.965  49.752  1.00  0.00    -0.355 OA
HETATM   20  C   UNL     1      29.882  37.861  50.285  1.00  0.00     0.210 C 
ENDBRANCH  16  19
ENDBRANCH   9  11
ENDBRANCH   1   5
BRANCH   2  21
HETATM   21  C   UNL     1      25.293  45.306  52.188  1.00  0.00     0.217 C 
BRANCH  21  22
HETATM   22  C   UNL     1      26.163  45.550  53.341  1.00  0.00    -0.085 C 
HETATM   23  C   UNL     1      26.877  45.804  54.273  1.00  0.00    -0.078 C 
BRANCH  23  24
HETATM   24  C   UNL     1      27.749  46.188  55.393  1.00  0.00     0.269 C 
BRANCH  24  25
HETATM   25  O   UNL     1      29.124  45.930  55.087  1.00  0.00    -0.339 OA
BRANCH  25  26
HETATM   26  C   UNL     1      29.878  45.373  56.088  1.00  0.00     0.076 A 
HETATM   27  C   UNL     1      30.557  44.180  55.786  1.00  0.00    -0.021 A 
HETATM   28  C   UNL     1      31.355  43.578  56.774  1.00  0.00     0.010 A 
HETATM   29  C   UNL     1      31.502  44.167  58.029  1.00  0.00     0.001 A 
HETATM   30  C   UNL     1      30.852  45.363  58.312  1.00  0.00     0.003 A 
HETATM   31  C   UNL     1      30.046  45.966  57.344  1.00  0.00     0.037 A 
BRANCH  27  32
HETATM   32  C   UNL     1      30.414  43.496  54.443  1.00  0.00     0.067 C 
BRANCH  32  33
HETATM   33  C   UNL     1      29.269  42.521  54.422  1.00  0.00    -0.032 C 
HETATM   34  C   UNL     1      28.520  42.254  53.343  1.00  0.00     0.007 C 
ENDBRANCH  32  33
ENDBRANCH  27  32
ENDBRANCH  25  26
ENDBRANCH  24  25
ENDBRANCH  23  24
ENDBRANCH  21  22
ENDBRANCH   2  21
TORSDOF 11
ENDMDL
MODEL 10
REMARK VINA RESULT:      -7.8      7.136     11.377
REMARK  11 active torsions:
REMARK  status: ('A' for Active; 'I' for Inactive)
REMARK    1  A    between atoms: O_2  and  C_3 
REMARK    2  A    between atoms: C_5  and  C_6 
REMARK    3  A    between atoms: C_10  and  C_11 
REMARK       I    between atoms: C_11  and  N_12 
REMARK    4  A    between atoms: N_12  and  C_13 
REMARK    5  A    between atoms: C_13  and  C_14 
REMARK    6  A    between atoms: C_15  and  C_16 
REMARK    7  A    between atoms: C_16  and  O_17 
REMARK    8  A    between atoms: O_17  and  C_18 
REMARK    9  A    between atoms: C_19  and  C_20 
REMARK   10  A    between atoms: C_20  and  C_21 
REMARK   11  A    between atoms: C_29  and  O_30 
ROOT
HETATM    1  C   UNL     1      23.998  47.862  49.096  1.00  0.00     0.270 C 
HETATM    2  N   UNL     1      24.569  49.094  48.905  1.00  0.00    -0.345 N 
HETATM    3  O   UNL     1      23.043  47.466  48.435  1.00  0.00    -0.266 OA
HETATM    4  H   UNL     1      25.323  49.397  49.504  1.00  0.00     0.163 HD
ENDROOT
BRANCH   1   5
HETATM    5  C   UNL     1      24.579  47.065  50.143  1.00  0.00     0.120 A 
HETATM    6  N   UNL     1      24.006  45.890  50.544  1.00  0.00    -0.272 N 
HETATM    7  N   UNL     1      24.622  45.297  51.578  1.00  0.00    -0.174 NA
HETATM    8  H   UNL     1      23.170  45.460  50.160  1.00  0.00     0.189 HD
HETATM    9  C   UNL     1      25.667  46.095  51.838  1.00  0.00     0.092 A 
HETATM   10  C   UNL     1      25.684  47.211  50.957  1.00  0.00     0.071 A 
BRANCH   9  11
HETATM   11  C   UNL     1      26.571  45.846  52.957  1.00  0.00     0.030 A 
HETATM   12  C   UNL     1      26.612  46.786  54.001  1.00  0.00     0.053 A 
HETATM   13  C   UNL     1      27.434  46.595  55.113  1.00  0.00     0.069 A 
HETATM   14  C   UNL     1      28.236  45.457  55.179  1.00  0.00     0.039 A 
HETATM   15  C   UNL     1      28.211  44.517  54.142  1.00  0.00     0.040 A 
HETATM   16  C   UNL     1      27.373  44.698  53.035  1.00  0.00     0.081 A 
BRANCH  13  17
HETATM   17  O   UNL     1      27.369  47.592  56.047  1.00  0.00    -0.356 OA
HETATM   18  C   UNL     1      26.329  48.549  55.895  1.00  0.00     0.210 C 
ENDBRANCH  13  17
BRANCH  16  19
HETATM   19  O   UNL     1      27.385  43.830  51.972  1.00  0.00    -0.355 OA
HETATM   20  C   UNL     1      27.949  42.555  52.265  1.00  0.00     0.210 C 
ENDBRANCH  16  19
ENDBRANCH   9  11
ENDBRANCH   1   5
BRANCH   2  21
HETATM   21  C   UNL     1      23.997  50.056  48.000  1.00  0.00     0.217 C 
BRANCH  21  22
HETATM   22  C   UNL     1      22.744  50.576  48.549  1.00  0.00    -0.085 C 
HETATM   23  C   UNL     1      21.695  50.950  49.002  1.00  0.00    -0.078 C 
BRANCH  23  24
HETATM   24  C   UNL     1      20.391  51.336  49.560  1.00  0.00     0.269 C 
BRANCH  24  25
HETATM   25  O   UNL     1      19.672  52.177  48.651  1.00  0.00    -0.339 OA
BRANCH  25  26
HETATM   26  C   UNL     1      18.303  52.126  48.725  1.00  0.00     0.076 A 
HETATM   27  C   UNL     1      17.633  51.479  47.673  1.00  0.00    -0.021 A 
HETATM   28  C   UNL     1      16.230  51.387  47.710  1.00  0.00     0.010 A 
HETATM   29  C   UNL     1      15.509  51.901  48.787  1.00  0.00     0.001 A 
HETATM   30  C   UNL     1      16.181  52.514  49.838  1.00  0.00     0.003 A 
HETATM   31  C   UNL     1      17.573  52.624  49.810  1.00  0.00     0.037 A 
BRANCH  27  32
HETATM   32  C   UNL     1      18.371  50.920  46.477  1.00  0.00     0.067 C 
BRANCH  32  33
HETATM   33  C   UNL     1      18.523  49.425  46.550  1.00  0.00    -0.032 C 
HETATM   34  C   UNL     1      19.657  48.793  46.879  1.00  0.00     0.007 C 
ENDBRANCH  32  33
ENDBRANCH  27  32
ENDBRANCH  25  26
ENDBRANCH  24  25
ENDBRANCH  23  24
ENDBRANCH  21  22
ENDBRANCH   2  21
TORSDOF 11
ENDMDL
