MODEL 1
REMARK VINA RESULT:      -9.8      0.000      0.000
REMARK  3 active torsions:
REMARK  status: ('A' for Active; 'I' for Inactive)
REMARK    1  A    between atoms: O_2  and  C_3 
REMARK    2  A    between atoms: C_6  and  C_7 
REMARK       I    between atoms: C_7  and  N_8 
REMARK    3  A    between atoms: C_11  and  C_12 
ROOT
HETATM    1  C   UNL     1      25.839  45.774  50.743  1.00  0.00     0.274 C 
HETATM    2  N   UNL     1      26.362  45.763  52.046  1.00  0.00    -0.343 N 
HETATM    3  C   UNL     1      26.667  44.441  52.580  1.00  0.00     0.154 C 
HETATM    4  C   UNL     1      27.455  44.499  53.851  1.00  0.00     0.001 C 
HETATM    5  C   UNL     1      27.770  45.624  54.515  1.00  0.00    -0.046 C 
HETATM    6  C   UNL     1      27.310  46.965  53.998  1.00  0.00     0.059 C 
HETATM    7  C   UNL     1      26.124  46.815  53.041  1.00  0.00     0.131 C 
HETATM    8  O   UNL     1      25.661  44.726  50.115  1.00  0.00    -0.266 OA
ENDROOT
BRANCH   1   9
HETATM    9  C   UNL     1      25.465  47.041  50.057  1.00  0.00     0.147 A 
HETATM   10  N   UNL     1      24.161  47.398  50.006  1.00  0.00    -0.142 NA
HETATM   11  N   UNL     1      23.804  48.582  49.409  1.00  0.00    -0.124 NA
HETATM   12  C   UNL     1      24.761  49.393  48.905  1.00  0.00     0.185 A 
HETATM   13  C   UNL     1      26.102  49.072  48.965  1.00  0.00     0.062 A 
HETATM   14  C   UNL     1      26.465  47.866  49.558  1.00  0.00     0.043 A 
BRANCH  12  15
HETATM   15  O   UNL     1      24.436  50.592  48.304  1.00  0.00    -0.338 OA
HETATM   16  C   UNL     1      23.122  51.038  48.621  1.00  0.00     0.211 C 
ENDBRANCH  12  15
ENDBRANCH   1   9
BRANCH   5  17
HETATM   17  C   UNL     1      28.519  45.649  55.735  1.00  0.00    -0.002 A 
HETATM   18  C   UNL     1      29.646  44.843  56.098  1.00  0.00     0.003 A 
HETATM   19  C   UNL     1      30.056  45.258  57.366  1.00  0.00     0.043 A 
HETATM   20  C   UNL     1      30.360  43.793  55.478  1.00  0.00     0.014 A 
HETATM   21  C   UNL     1      31.149  44.692  58.035  1.00  0.00     0.030 A 
HETATM   22  N   UNL     1      29.204  46.265  57.759  1.00  0.00    -0.364 N 
HETATM   23  C   UNL     1      31.844  43.664  57.391  1.00  0.00     0.002 A 
HETATM   24  C   UNL     1      31.455  43.216  56.132  1.00  0.00     0.001 A 
HETATM   25  H   UNL     1      29.268  46.756  58.639  1.00  0.00     0.165 HD
HETATM   26  C   UNL     1      28.269  46.505  56.787  1.00  0.00     0.101 A 
ENDBRANCH   5  17
TORSDOF 3
ENDMDL
MODEL 2
REMARK VINA RESULT:      -9.2      2.452      3.801
REMARK  3 active torsions:
REMARK  status: ('A' for Active; 'I' for Inactive)
REMARK    1  A    between atoms: O_2  and  C_3 
REMARK    2  A    between atoms: C_6  and  C_7 
REMARK       I    between atoms: C_7  and  N_8 
REMARK    3  A    between atoms: C_11  and  C_12 
ROOT
HETATM    1  C   UNL     1      25.084  45.909  51.431  1.00  0.00     0.274 C 
HETATM    2  N   UNL     1      26.055  45.855  52.443  1.00  0.00    -0.343 N 
HETATM    3  C   UNL     1      26.407  47.141  53.033  1.00  0.00     0.154 C 
HETATM    4  C   UNL     1      27.239  47.002  54.269  1.00  0.00     0.001 C 
HETATM    5  C   UNL     1      27.721  45.843  54.750  1.00  0.00    -0.046 C 
HETATM    6  C   UNL     1      27.449  44.548  54.025  1.00  0.00     0.059 C 
HETATM    7  C   UNL     1      27.066  44.798  52.564  1.00  0.00     0.131 C 
HETATM    8  O   UNL     1      24.578  46.981  51.084  1.00  0.00    -0.266 OA
ENDROOT
BRANCH   1   9
HETATM    9  C   UNL     1      24.621  44.686  50.719  1.00  0.00     0.147 A 
HETATM   10  N   UNL     1      23.567  43.999  51.215  1.00  0.00    -0.142 NA
HETATM   11  N   UNL     1      23.105  42.890  50.549  1.00  0.00    -0.124 NA
HETATM   12  C   UNL     1      23.689  42.514  49.389  1.00  0.00     0.185 A 
HETATM   13  C   UNL     1      24.749  43.209  48.842  1.00  0.00     0.062 A 
HETATM   14  C   UNL     1      25.226  44.325  49.521  1.00  0.00     0.043 A 
BRANCH  12  15
HETATM   15  O   UNL     1      23.245  41.409  48.693  1.00  0.00    -0.338 OA
HETATM   16  C   UNL     1      22.456  41.744  47.556  1.00  0.00     0.211 C 
ENDBRANCH  12  15
ENDBRANCH   1   9
BRANCH   5  17
HETATM   17  C   UNL     1      28.523  45.740  55.931  1.00  0.00    -0.002 A 
HETATM   18  C   UNL     1      29.662  44.902  56.157  1.00  0.00     0.003 A 
HETATM   19  C   UNL     1      30.130  45.182  57.442  1.00  0.00     0.043 A 
HETATM   20  C   UNL     1      30.345  43.924  55.399  1.00  0.00     0.014 A 
HETATM   21  C   UNL     1      31.250  44.551  57.999  1.00  0.00     0.030 A 
HETATM   22  N   UNL     1      29.300  46.141  57.976  1.00  0.00    -0.364 N 
HETATM   23  C   UNL     1      31.912  43.596  57.221  1.00  0.00     0.002 A 
HETATM   24  C   UNL     1      31.466  43.283  55.940  1.00  0.00     0.001 A 
HETATM   25  H   UNL     1      29.404  46.537  58.899  1.00  0.00     0.165 HD
HETATM   26  C   UNL     1      28.323  46.481  57.078  1.00  0.00     0.101 A 
ENDBRANCH   5  17
TORSDOF 3
ENDMDL
MODEL 3
REMARK VINA RESULT:      -9.0      3.144      3.471
REMARK  3 active torsions:
REMARK  status: ('A' for Active; 'I' for Inactive)
REMARK    1  A    between atoms: O_2  and  C_3 
REMARK    2  A    between atoms: C_6  and  C_7 
REMARK       I    between atoms: C_7  and  N_8 
REMARK    3  A    between atoms: C_11  and  C_12 
ROOT
HETATM    1  C   UNL     1      26.328  43.168  49.896  1.00  0.00     0.274 C 
HETATM    2  N   UNL     1      26.802  43.497  51.175  1.00  0.00    -0.343 N 
HETATM    3  C   UNL     1      28.195  43.147  51.430  1.00  0.00     0.154 C 
HETATM    4  C   UNL     1      28.720  43.747  52.696  1.00  0.00     0.001 C 
HETATM    5  C   UNL     1      27.989  44.445  53.582  1.00  0.00    -0.046 C 
HETATM    6  C   UNL     1      26.514  44.661  53.347  1.00  0.00     0.059 C 
HETATM    7  C   UNL     1      25.951  43.633  52.362  1.00  0.00     0.131 C 
HETATM    8  O   UNL     1      27.058  42.624  49.062  1.00  0.00    -0.266 OA
ENDROOT
BRANCH   1   9
HETATM    9  C   UNL     1      24.926  43.449  49.480  1.00  0.00     0.147 A 
HETATM   10  N   UNL     1      23.997  42.475  49.614  1.00  0.00    -0.142 NA
HETATM   11  N   UNL     1      22.691  42.731  49.270  1.00  0.00    -0.124 NA
HETATM   12  C   UNL     1      22.343  43.960  48.831  1.00  0.00     0.185 A 
HETATM   13  C   UNL     1      23.262  44.984  48.708  1.00  0.00     0.062 A 
HETATM   14  C   UNL     1      24.587  44.723  49.044  1.00  0.00     0.043 A 
BRANCH  12  15
HETATM   15  O   UNL     1      21.040  44.251  48.483  1.00  0.00    -0.338 OA
HETATM   16  C   UNL     1      20.926  44.845  47.194  1.00  0.00     0.211 C 
ENDBRANCH  12  15
ENDBRANCH   1   9
BRANCH   5  17
HETATM   17  C   UNL     1      28.516  45.000  54.791  1.00  0.00    -0.002 A 
HETATM   18  C   UNL     1      29.575  44.491  55.611  1.00  0.00     0.003 A 
HETATM   19  C   UNL     1      29.756  45.397  56.658  1.00  0.00     0.043 A 
HETATM   20  C   UNL     1      30.400  43.344  55.573  1.00  0.00     0.014 A 
HETATM   21  C   UNL     1      30.725  45.224  57.654  1.00  0.00     0.030 A 
HETATM   22  N   UNL     1      28.835  46.405  56.485  1.00  0.00    -0.364 N 
HETATM   23  C   UNL     1      31.535  44.086  57.584  1.00  0.00     0.002 A 
HETATM   24  C   UNL     1      31.374  43.156  56.561  1.00  0.00     0.001 A 
HETATM   25  H   UNL     1      28.740  47.202  57.098  1.00  0.00     0.165 HD
HETATM   26  C   UNL     1      28.078  46.174  55.368  1.00  0.00     0.101 A 
ENDBRANCH   5  17
TORSDOF 3
ENDMDL
MODEL 4
REMARK VINA RESULT:      -8.8      3.359      5.568
REMARK  3 active torsions:
REMARK  status: ('A' for Active; 'I' for Inactive)
REMARK    1  A    between atoms: O_2  and  C_3 
REMARK    2  A    between atoms: C_6  and  C_7 
REMARK       I    between atoms: C_7  and  N_8 
REMARK    3  A    between atoms: C_11  and  C_12 
ROOT
HETATM    1  C   UNL     1      26.206  43.460  50.568  1.00  0.00     0.274 C 
HETATM    2  N   UNL     1      26.923  43.957  51.667  1.00  0.00    -0.343 N 
HETATM    3  C   UNL     1      26.470  45.249  52.170  1.00  0.00     0.154 C 
HETATM    4  C   UNL     1      27.087  45.606  53.485  1.00  0.00     0.001 C 
HETATM    5  C   UNL     1      28.040  44.895  54.111  1.00  0.00    -0.046 C 
HETATM    6  C   UNL     1      28.583  43.635  53.483  1.00  0.00     0.059 C 
HETATM    7  C   UNL     1      28.313  43.604  51.975  1.00  0.00     0.131 C 
HETATM    8  O   UNL     1      25.261  44.089  50.081  1.00  0.00    -0.266 OA
ENDROOT
BRANCH   1   9
HETATM    9  C   UNL     1      26.548  42.160  49.929  1.00  0.00     0.147 A 
HETATM   10  N   UNL     1      27.285  42.162  48.794  1.00  0.00    -0.142 NA
HETATM   11  N   UNL     1      27.641  40.969  48.213  1.00  0.00    -0.124 NA
HETATM   12  C   UNL     1      27.277  39.805  48.797  1.00  0.00     0.185 A 
HETATM   13  C   UNL     1      26.549  39.768  49.970  1.00  0.00     0.062 A 
HETATM   14  C   UNL     1      26.177  40.975  50.553  1.00  0.00     0.043 A 
BRANCH  12  15
HETATM   15  O   UNL     1      27.624  38.590  48.243  1.00  0.00    -0.338 OA
HETATM   16  C   UNL     1      28.212  37.695  49.181  1.00  0.00     0.211 C 
ENDBRANCH  12  15
ENDBRANCH   1   9
BRANCH   5  17
HETATM   17  C   UNL     1      28.620  45.266  55.366  1.00  0.00    -0.002 A 
HETATM   18  C   UNL     1      29.745  44.678  56.029  1.00  0.00     0.003 A 
HETATM   19  C   UNL     1      29.956  45.405  57.202  1.00  0.00     0.043 A 
HETATM   20  C   UNL     1      30.608  43.593  55.755  1.00  0.00     0.014 A 
HETATM   21  C   UNL     1      30.991  45.115  58.102  1.00  0.00     0.030 A 
HETATM   22  N   UNL     1      28.990  46.384  57.252  1.00  0.00    -0.364 N 
HETATM   23  C   UNL     1      31.836  44.043  57.797  1.00  0.00     0.002 A 
HETATM   24  C   UNL     1      31.647  43.289  56.642  1.00  0.00     0.001 A 
HETATM   25  H   UNL     1      28.903  47.063  57.995  1.00  0.00     0.165 HD
HETATM   26  C   UNL     1      28.175  46.306  56.155  1.00  0.00     0.101 A 
ENDBRANCH   5  17
TORSDOF 3
ENDMDL
MODEL 5
REMARK VINA RESULT:      -8.7      1.706      1.908
REMARK  3 active torsions:
REMARK  status: ('A' for Active; 'I' for Inactive)
REMARK    1  A    between atoms: O_2  and  C_3 
REMARK    2  A    between atoms: C_6  and  C_7 
REMARK       I    between atoms: C_7  and  N_8 
REMARK    3  A    between atoms: C_11  and  C_12 
ROOT
HETATM    1  C   UNL     1      25.347  45.104  50.017  1.00  0.00     0.274 C 
HETATM    2  N   UNL     1      25.920  45.145  51.297  1.00  0.00    -0.343 N 
HETATM    3  C   UNL     1      26.892  44.094  51.576  1.00  0.00     0.154 C 
HETATM    4  C   UNL     1      27.657  44.335  52.839  1.00  0.00     0.001 C 
HETATM    5  C   UNL     1      27.425  45.336  53.705  1.00  0.00    -0.046 C 
HETATM    6  C   UNL     1      26.311  46.320  53.447  1.00  0.00     0.059 C 
HETATM    7  C   UNL     1      25.279  45.749  52.471  1.00  0.00     0.131 C 
HETATM    8  O   UNL     1      25.662  44.232  49.201  1.00  0.00    -0.266 OA
ENDROOT
BRANCH   1   9
HETATM    9  C   UNL     1      24.328  46.097  49.578  1.00  0.00     0.147 A 
HETATM   10  N   UNL     1      24.606  47.416  49.699  1.00  0.00    -0.142 NA
HETATM   11  N   UNL     1      23.692  48.345  49.264  1.00  0.00    -0.124 NA
HETATM   12  C   UNL     1      22.538  47.932  48.693  1.00  0.00     0.185 A 
HETATM   13  C   UNL     1      22.236  46.595  48.531  1.00  0.00     0.062 A 
HETATM   14  C   UNL     1      23.155  45.652  48.981  1.00  0.00     0.043 A 
BRANCH  12  15
HETATM   15  O   UNL     1      21.601  48.839  48.241  1.00  0.00    -0.338 OA
HETATM   16  C   UNL     1      20.483  48.221  47.614  1.00  0.00     0.211 C 
ENDBRANCH  12  15
ENDBRANCH   1   9
BRANCH   5  17
HETATM   17  C   UNL     1      28.167  45.536  54.913  1.00  0.00    -0.002 A 
HETATM   18  C   UNL     1      29.273  44.772  55.408  1.00  0.00     0.003 A 
HETATM   19  C   UNL     1      29.686  45.374  56.599  1.00  0.00     0.043 A 
HETATM   20  C   UNL     1      29.965  43.622  54.969  1.00  0.00     0.014 A 
HETATM   21  C   UNL     1      30.762  44.896  57.359  1.00  0.00     0.030 A 
HETATM   22  N   UNL     1      28.856  46.449  56.820  1.00  0.00    -0.364 N 
HETATM   23  C   UNL     1      31.435  43.763  56.892  1.00  0.00     0.002 A 
HETATM   24  C   UNL     1      31.043  43.131  55.716  1.00  0.00     0.001 A 
HETATM   25  H   UNL     1      28.926  47.071  57.612  1.00  0.00     0.165 HD
HETATM   26  C   UNL     1      27.932  46.553  55.814  1.00  0.00     0.101 A 
ENDBRANCH   5  17
TORSDOF 3
ENDMDL
MODEL 6
REMARK VINA RESULT:      -8.5      2.583      4.831
REMARK  3 active torsions:
REMARK  status: ('A' for Active; 'I' for Inactive)
REMARK    1  A    between atoms: O_2  and  C_3 
REMARK    2  A    between atoms: C_6  and  C_7 
REMARK       I    between atoms: C_7  and  N_8 
REMARK    3  A    between atoms: C_11  and  C_12 
ROOT
HETATM    1  C   UNL     1      24.439  49.798  48.350  1.00  0.00     0.274 C 
HETATM    2  N   UNL     1      24.904  48.732  49.137  1.00  0.00    -0.343 N 
HETATM    3  C   UNL     1      26.339  48.483  49.057  1.00  0.00     0.154 C 
HETATM    4  C   UNL     1      26.817  47.522  50.100  1.00  0.00     0.001 C 
HETATM    5  C   UNL     1      26.026  46.857  50.960  1.00  0.00    -0.046 C 
HETATM    6  C   UNL     1      24.529  47.040  50.912  1.00  0.00     0.059 C 
HETATM    7  C   UNL     1      24.080  47.593  49.557  1.00  0.00     0.131 C 
HETATM    8  O   UNL     1      25.210  50.462  47.649  1.00  0.00    -0.266 OA
ENDROOT
BRANCH   1   9
HETATM    9  C   UNL     1      23.000  50.176  48.309  1.00  0.00     0.147 A 
HETATM   10  N   UNL     1      22.229  49.714  47.298  1.00  0.00    -0.142 NA
HETATM   11  N   UNL     1      20.891  50.024  47.268  1.00  0.00    -0.124 NA
HETATM   12  C   UNL     1      20.352  50.761  48.264  1.00  0.00     0.185 A 
HETATM   13  C   UNL     1      21.104  51.224  49.325  1.00  0.00     0.062 A 
HETATM   14  C   UNL     1      22.462  50.922  49.351  1.00  0.00     0.043 A 
BRANCH  12  15
HETATM   15  O   UNL     1      19.011  51.084  48.267  1.00  0.00    -0.338 OA
HETATM   16  C   UNL     1      18.764  52.444  48.609  1.00  0.00     0.211 C 
ENDBRANCH  12  15
ENDBRANCH   1   9
BRANCH   5  17
HETATM   17  C   UNL     1      26.512  45.936  51.942  1.00  0.00    -0.002 A 
HETATM   18  C   UNL     1      26.999  46.222  53.259  1.00  0.00     0.003 A 
HETATM   19  C   UNL     1      27.320  44.999  53.851  1.00  0.00     0.043 A 
HETATM   20  C   UNL     1      27.207  47.400  54.010  1.00  0.00     0.014 A 
HETATM   21  C   UNL     1      27.819  44.894  55.156  1.00  0.00     0.030 A 
HETATM   22  N   UNL     1      27.050  44.016  52.927  1.00  0.00    -0.364 N 
HETATM   23  C   UNL     1      28.002  46.077  55.880  1.00  0.00     0.002 A 
HETATM   24  C   UNL     1      27.704  47.314  55.315  1.00  0.00     0.001 A 
HETATM   25  H   UNL     1      27.186  43.029  53.087  1.00  0.00     0.165 HD
HETATM   26  C   UNL     1      26.569  44.569  51.770  1.00  0.00     0.101 A 
ENDBRANCH   5  17
TORSDOF 3
ENDMDL
MODEL 7
REMARK VINA RESULT:      -8.4      2.739      4.603
REMARK  3 active torsions:
REMARK  status: ('A' for Active; 'I' for Inactive)
REMARK    1  A    between atoms: O_2  and  C_3 
REMARK    2  A    between atoms: C_6  and  C_7 
REMARK       I    between atoms: C_7  and  N_8 
REMARK    3  A    between atoms: C_11  and  C_12 
ROOT
HETATM    1  C   UNL     1      24.564  49.574  48.255  1.00  0.00     0.274 C 
HETATM    2  N   UNL     1      25.026  48.662  49.217  1.00  0.00    -0.343 N 
HETATM    3  C   UNL     1      26.473  48.489  49.264  1.00  0.00     0.154 C 
HETATM    4  C   UNL     1      26.925  47.718  50.464  1.00  0.00     0.001 C 
HETATM    5  C   UNL     1      26.110  47.136  51.361  1.00  0.00    -0.046 C 
HETATM    6  C   UNL     1      24.613  47.220  51.194  1.00  0.00     0.059 C 
HETATM    7  C   UNL     1      24.232  47.547  49.747  1.00  0.00     0.131 C 
HETATM    8  O   UNL     1      25.348  50.177  47.515  1.00  0.00    -0.266 OA
ENDROOT
BRANCH   1   9
HETATM    9  C   UNL     1      23.114  49.856  48.071  1.00  0.00     0.147 A 
HETATM   10  N   UNL     1      22.330  48.909  47.508  1.00  0.00    -0.142 NA
HETATM   11  N   UNL     1      20.983  49.140  47.365  1.00  0.00    -0.124 NA
HETATM   12  C   UNL     1      20.451  50.298  47.816  1.00  0.00     0.185 A 
HETATM   13  C   UNL     1      21.219  51.273  48.420  1.00  0.00     0.062 A 
HETATM   14  C   UNL     1      22.585  51.047  48.554  1.00  0.00     0.043 A 
BRANCH  12  15
HETATM   15  O   UNL     1      19.101  50.558  47.694  1.00  0.00    -0.338 OA
HETATM   16  C   UNL     1      18.747  51.876  48.101  1.00  0.00     0.211 C 
ENDBRANCH  12  15
ENDBRANCH   1   9
BRANCH   5  17
HETATM   17  C   UNL     1      26.571  46.395  52.496  1.00  0.00    -0.002 A 
HETATM   18  C   UNL     1      27.098  45.064  52.528  1.00  0.00     0.003 A 
HETATM   19  C   UNL     1      27.446  44.793  53.853  1.00  0.00     0.043 A 
HETATM   20  C   UNL     1      27.312  44.054  51.564  1.00  0.00     0.014 A 
HETATM   21  C   UNL     1      28.010  43.576  54.257  1.00  0.00     0.030 A 
HETATM   22  N   UNL     1      27.130  45.910  54.593  1.00  0.00    -0.364 N 
HETATM   23  C   UNL     1      28.221  42.599  53.279  1.00  0.00     0.002 A 
HETATM   24  C   UNL     1      27.874  42.831  51.951  1.00  0.00     0.001 A 
HETATM   25  H   UNL     1      27.278  45.996  55.588  1.00  0.00     0.165 HD
HETATM   26  C   UNL     1      26.596  46.880  53.787  1.00  0.00     0.101 A 
ENDBRANCH   5  17
TORSDOF 3
ENDMDL
MODEL 8
REMARK VINA RESULT:      -8.2      4.086     10.528
REMARK  3 active torsions:
REMARK  status: ('A' for Active; 'I' for Inactive)
REMARK    1  A    between atoms: O_2  and  C_3 
REMARK    2  A    between atoms: C_6  and  C_7 
REMARK       I    between atoms: C_7  and  N_8 
REMARK    3  A    between atoms: C_11  and  C_12 
ROOT
HETATM    1  C   UNL     1      26.212  47.816  49.627  1.00  0.00     0.274 C 
HETATM    2  N   UNL     1      24.897  48.167  49.286  1.00  0.00    -0.343 N 
HETATM    3  C   UNL     1      24.733  49.515  48.754  1.00  0.00     0.154 C 
HETATM    4  C   UNL     1      23.375  49.744  48.167  1.00  0.00     0.001 C 
HETATM    5  C   UNL     1      22.358  48.867  48.207  1.00  0.00    -0.046 C 
HETATM    6  C   UNL     1      22.529  47.535  48.895  1.00  0.00     0.059 C 
HETATM    7  C   UNL     1      23.699  47.566  49.883  1.00  0.00     0.131 C 
HETATM    8  O   UNL     1      27.147  48.608  49.478  1.00  0.00    -0.266 OA
ENDROOT
BRANCH   1   9
HETATM    9  C   UNL     1      26.547  46.480  50.194  1.00  0.00     0.147 A 
HETATM   10  N   UNL     1      27.097  45.545  49.385  1.00  0.00    -0.142 NA
HETATM   11  N   UNL     1      27.446  44.321  49.902  1.00  0.00    -0.124 NA
HETATM   12  C   UNL     1      27.266  44.075  51.219  1.00  0.00     0.185 A 
HETATM   13  C   UNL     1      26.733  45.016  52.077  1.00  0.00     0.062 A 
HETATM   14  C   UNL     1      26.367  46.252  51.553  1.00  0.00     0.043 A 
BRANCH  12  15
HETATM   15  O   UNL     1      27.612  42.858  51.770  1.00  0.00    -0.338 OA
HETATM   16  C   UNL     1      27.316  41.755  50.920  1.00  0.00     0.211 C 
ENDBRANCH  12  15
ENDBRANCH   1   9
BRANCH   5  17
HETATM   17  C   UNL     1      21.065  49.117  47.645  1.00  0.00    -0.002 A 
HETATM   18  C   UNL     1      20.247  50.283  47.793  1.00  0.00     0.003 A 
HETATM   19  C   UNL     1      19.097  50.077  47.028  1.00  0.00     0.043 A 
HETATM   20  C   UNL     1      20.362  51.497  48.507  1.00  0.00     0.014 A 
HETATM   21  C   UNL     1      18.070  51.026  46.928  1.00  0.00     0.030 A 
HETATM   22  N   UNL     1      19.210  48.833  46.452  1.00  0.00    -0.364 N 
HETATM   23  C   UNL     1      18.218  52.222  47.636  1.00  0.00     0.002 A 
HETATM   24  C   UNL     1      19.346  52.456  48.418  1.00  0.00     0.001 A 
HETATM   25  H   UNL     1      18.519  48.421  45.841  1.00  0.00     0.165 HD
HETATM   26  C   UNL     1      20.389  48.242  46.821  1.00  0.00     0.101 A 
ENDBRANCH   5  17
TORSDOF 3
ENDMDL
MODEL 9
REMARK VINA RESULT:      -8.2      3.982      8.925
REMARK  3 active torsions:
REMARK  status: ('A' for Active; 'I' for Inactive)
REMARK    1  A    between atoms: O_2  and  C_3 
REMARK    2  A    between atoms: C_6  and  C_7 
REMARK       I    between atoms: C_7  and  N_8 
REMARK    3  A    between atoms: C_11  and  C_12 
ROOT
HETATM    1  C   UNL     1      26.982  43.629  52.766  1.00  0.00     0.274 C 
HETATM    2  N   UNL     1      26.552  44.682  51.943  1.00  0.00    -0.343 N 
HETATM    3  C   UNL     1      26.061  45.860  52.649  1.00  0.00     0.154 C 
HETATM    4  C   UNL     1      25.865  47.036  51.744  1.00  0.00     0.001 C 
HETATM    5  C   UNL     1      26.007  47.016  50.408  1.00  0.00    -0.046 C 
HETATM    6  C   UNL     1      26.378  45.734  49.703  1.00  0.00     0.059 C 
HETATM    7  C   UNL     1      26.064  44.511  50.570  1.00  0.00     0.131 C 
HETATM    8  O   UNL     1      26.941  43.719  53.997  1.00  0.00    -0.266 OA
ENDROOT
BRANCH   1   9
HETATM    9  C   UNL     1      27.501  42.352  52.203  1.00  0.00     0.147 A 
HETATM   10  N   UNL     1      27.077  41.956  50.981  1.00  0.00    -0.142 NA
HETATM   11  N   UNL     1      27.575  40.799  50.432  1.00  0.00    -0.124 NA
HETATM   12  C   UNL     1      28.504  40.085  51.104  1.00  0.00     0.185 A 
HETATM   13  C   UNL     1      28.978  40.476  52.341  1.00  0.00     0.062 A 
HETATM   14  C   UNL     1      28.466  41.641  52.904  1.00  0.00     0.043 A 
BRANCH  12  15
HETATM   15  O   UNL     1      29.028  38.922  50.578  1.00  0.00    -0.338 OA
HETATM   16  C   UNL     1      28.997  38.888  49.156  1.00  0.00     0.211 C 
ENDBRANCH  12  15
ENDBRANCH   1   9
BRANCH   5  17
HETATM   17  C   UNL     1      25.803  48.155  49.566  1.00  0.00    -0.002 A 
HETATM   18  C   UNL     1      24.562  48.723  49.131  1.00  0.00     0.003 A 
HETATM   19  C   UNL     1      24.872  49.844  48.359  1.00  0.00     0.043 A 
HETATM   20  C   UNL     1      23.199  48.395  49.310  1.00  0.00     0.014 A 
HETATM   21  C   UNL     1      23.894  50.659  47.774  1.00  0.00     0.030 A 
HETATM   22  N   UNL     1      26.244  49.942  48.318  1.00  0.00    -0.364 N 
HETATM   23  C   UNL     1      22.554  50.316  47.980  1.00  0.00     0.002 A 
HETATM   24  C   UNL     1      22.209  49.198  48.734  1.00  0.00     0.001 A 
HETATM   25  H   UNL     1      26.751  50.666  47.829  1.00  0.00     0.165 HD
HETATM   26  C   UNL     1      26.816  48.926  49.036  1.00  0.00     0.101 A 
ENDBRANCH   5  17
TORSDOF 3
ENDMDL
MODEL 10
REMARK VINA RESULT:      -7.9      2.711      9.366
REMARK  3 active torsions:
REMARK  status: ('A' for Active; 'I' for Inactive)
REMARK    1  A    between atoms: O_2  and  C_3 
REMARK    2  A    between atoms: C_6  and  C_7 
REMARK       I    between atoms: C_7  and  N_8 
REMARK    3  A    between atoms: C_11  and  C_12 
ROOT
HETATM    1  C   UNL     1      25.526  44.171  51.433  1.00  0.00     0.274 C 
HETATM    2  N   UNL     1      25.133  45.300  50.697  1.00  0.00    -0.343 N 
HETATM    3  C   UNL     1      24.053  45.075  49.744  1.00  0.00     0.154 C 
HETATM    4  C   UNL     1      23.501  46.348  49.183  1.00  0.00     0.001 C 
HETATM    5  C   UNL     1      23.994  47.576  49.421  1.00  0.00    -0.046 C 
HETATM    6  C   UNL     1      25.206  47.749  50.304  1.00  0.00     0.059 C 
HETATM    7  C   UNL     1      26.004  46.447  50.415  1.00  0.00     0.131 C 
HETATM    8  O   UNL     1      24.978  43.077  51.268  1.00  0.00    -0.266 OA
ENDROOT
BRANCH   1   9
HETATM    9  C   UNL     1      26.622  44.230  52.438  1.00  0.00     0.147 A 
HETATM   10  N   UNL     1      26.362  44.747  53.661  1.00  0.00    -0.142 NA
HETATM   11  N   UNL     1      27.354  44.773  54.611  1.00  0.00    -0.124 NA
HETATM   12  C   UNL     1      28.569  44.255  54.326  1.00  0.00     0.185 A 
HETATM   13  C   UNL     1      28.859  43.695  53.098  1.00  0.00     0.062 A 
HETATM   14  C   UNL     1      27.860  43.679  52.129  1.00  0.00     0.043 A 
BRANCH  12  15
HETATM   15  O   UNL     1      29.584  44.261  55.260  1.00  0.00    -0.338 OA
HETATM   16  C   UNL     1      30.593  43.292  54.995  1.00  0.00     0.211 C 
ENDBRANCH  12  15
ENDBRANCH   1   9
BRANCH   5  17
HETATM   17  C   UNL     1      23.452  48.777  48.863  1.00  0.00    -0.002 A 
HETATM   18  C   UNL     1      22.084  49.201  48.838  1.00  0.00     0.003 A 
HETATM   19  C   UNL     1      22.055  50.454  48.222  1.00  0.00     0.043 A 
HETATM   20  C   UNL     1      20.860  48.645  49.273  1.00  0.00     0.014 A 
HETATM   21  C   UNL     1      20.872  51.182  48.036  1.00  0.00     0.030 A 
HETATM   22  N   UNL     1      23.350  50.768  47.878  1.00  0.00    -0.364 N 
HETATM   23  C   UNL     1      19.678  50.611  48.487  1.00  0.00     0.002 A 
HETATM   24  C   UNL     1      19.669  49.359  49.094  1.00  0.00     0.001 A 
HETATM   25  H   UNL     1      23.627  51.623  47.418  1.00  0.00     0.165 HD
HETATM   26  C   UNL     1      24.200  49.762  48.253  1.00  0.00     0.101 A 
ENDBRANCH   5  17
TORSDOF 3
ENDMDL
