MODEL 1
REMARK VINA RESULT:      -9.0      0.000      0.000
REMARK  5 active torsions:
REMARK  status: ('A' for Active; 'I' for Inactive)
REMARK    1  A    between atoms: O_2  and  C_3 
REMARK    2  A    between atoms: C_7  and  C_8 
REMARK    3  A    between atoms: C_8  and  C_9 
REMARK       I    between atoms: C_9  and  N_10 
REMARK    4  A    between atoms: N_10  and  C_11 
REMARK    5  A    between atoms: C_11  and  C_12 
ROOT
HETATM    1  C   UNL     1      25.782  45.537  51.585  1.00  0.00     0.222 C 
HETATM    2  N   UNL     1      25.088  46.656  51.193  1.00  0.00    -0.354 N 
HETATM    3  O   UNL     1      26.477  44.890  50.804  1.00  0.00    -0.273 OA
HETATM    4  H   UNL     1      24.702  47.286  51.891  1.00  0.00     0.162 HD
ENDROOT
BRANCH   1   5
HETATM    5  C   UNL     1      25.581  45.107  53.027  1.00  0.00     0.144 C 
BRANCH   5   6
HETATM    6  C   UNL     1      26.606  45.645  53.971  1.00  0.00    -0.014 A 
HETATM    7  C   UNL     1      27.821  45.029  54.413  1.00  0.00     0.006 A 
HETATM    8  C   UNL     1      28.420  45.937  55.275  1.00  0.00     0.088 A 
HETATM    9  C   UNL     1      28.482  43.811  54.170  1.00  0.00     0.017 A 
HETATM   10  C   UNL     1      29.644  45.736  55.915  1.00  0.00     0.074 A 
HETATM   11  O   UNL     1      27.645  47.048  55.406  1.00  0.00    -0.321 OA
HETATM   12  C   UNL     1      30.298  44.530  55.647  1.00  0.00     0.070 A 
HETATM   13  C   UNL     1      29.717  43.584  54.793  1.00  0.00     0.038 A 
HETATM   14  C   UNL     1      26.555  46.864  54.621  1.00  0.00     0.151 A 
BRANCH  12  15
HETATM   15  O   UNL     1      31.511  44.154  56.164  1.00  0.00    -0.356 OA
HETATM   16  C   UNL     1      31.486  43.418  57.381  1.00  0.00     0.210 C 
ENDBRANCH  12  15
ENDBRANCH   5   6
ENDBRANCH   1   5
BRANCH   2  17
HETATM   17  C   UNL     1      25.302  47.222  49.884  1.00  0.00     0.201 C 
BRANCH  17  18
HETATM   18  C   UNL     1      24.178  48.144  49.569  1.00  0.00     0.123 A 
HETATM   19  N   UNL     1      24.262  49.422  49.244  1.00  0.00    -0.232 NA
HETATM   20  C   UNL     1      22.971  49.828  49.010  1.00  0.00     0.085 A 
HETATM   21  C   UNL     1      22.078  48.782  49.206  1.00  0.00     0.062 A 
HETATM   22  C   UNL     1      22.482  51.083  48.619  1.00  0.00     0.034 A 
HETATM   23  N   UNL     1      22.870  47.722  49.566  1.00  0.00    -0.341 N 
HETATM   24  C   UNL     1      20.698  48.909  49.037  1.00  0.00     0.032 A 
HETATM   25  H   UNL     1      22.548  46.791  49.781  1.00  0.00     0.167 HD
HETATM   26  C   UNL     1      20.227  50.168  48.647  1.00  0.00     0.002 A 
HETATM   27  C   UNL     1      21.101  51.238  48.440  1.00  0.00     0.002 A 
ENDBRANCH  17  18
ENDBRANCH   2  17
TORSDOF 5
ENDMDL
MODEL 2
REMARK VINA RESULT:      -9.0      1.215      1.661
REMARK  5 active torsions:
REMARK  status: ('A' for Active; 'I' for Inactive)
REMARK    1  A    between atoms: O_2  and  C_3 
REMARK    2  A    between atoms: C_7  and  C_8 
REMARK    3  A    between atoms: C_8  and  C_9 
REMARK       I    between atoms: C_9  and  N_10 
REMARK    4  A    between atoms: N_10  and  C_11 
REMARK    5  A    between atoms: C_11  and  C_12 
ROOT
HETATM    1  C   UNL     1      25.073  45.656  52.173  1.00  0.00     0.222 C 
HETATM    2  N   UNL     1      25.327  46.580  51.188  1.00  0.00    -0.354 N 
HETATM    3  O   UNL     1      24.268  44.739  52.018  1.00  0.00    -0.273 OA
HETATM    4  H   UNL     1      26.140  47.187  51.258  1.00  0.00     0.162 HD
ENDROOT
BRANCH   1   5
HETATM    5  C   UNL     1      25.795  45.877  53.489  1.00  0.00     0.144 C 
BRANCH   5   6
HETATM    6  C   UNL     1      26.989  45.002  53.684  1.00  0.00    -0.014 A 
HETATM    7  C   UNL     1      28.025  45.114  54.667  1.00  0.00     0.006 A 
HETATM    8  C   UNL     1      28.894  44.057  54.431  1.00  0.00     0.088 A 
HETATM    9  C   UNL     1      28.316  45.984  55.733  1.00  0.00     0.017 A 
HETATM   10  C   UNL     1      30.036  43.784  55.184  1.00  0.00     0.074 A 
HETATM   11  O   UNL     1      28.471  43.328  53.362  1.00  0.00    -0.321 OA
HETATM   12  C   UNL     1      30.300  44.646  56.253  1.00  0.00     0.070 A 
HETATM   13  C   UNL     1      29.453  45.731  56.513  1.00  0.00     0.038 A 
HETATM   14  C   UNL     1      27.327  43.903  52.918  1.00  0.00     0.151 A 
BRANCH  12  15
HETATM   15  O   UNL     1      31.360  44.538  57.116  1.00  0.00    -0.356 OA
HETATM   16  C   UNL     1      32.046  43.292  57.132  1.00  0.00     0.210 C 
ENDBRANCH  12  15
ENDBRANCH   5   6
ENDBRANCH   1   5
BRANCH   2  17
HETATM   17  C   UNL     1      24.793  46.394  49.862  1.00  0.00     0.201 C 
BRANCH  17  18
HETATM   18  C   UNL     1      23.852  47.507  49.563  1.00  0.00     0.123 A 
HETATM   19  N   UNL     1      24.123  48.800  49.556  1.00  0.00    -0.232 NA
HETATM   20  C   UNL     1      22.953  49.419  49.187  1.00  0.00     0.085 A 
HETATM   21  C   UNL     1      21.944  48.487  48.974  1.00  0.00     0.062 A 
HETATM   22  C   UNL     1      22.677  50.781  49.006  1.00  0.00     0.034 A 
HETATM   23  N   UNL     1      22.540  47.278  49.224  1.00  0.00    -0.341 N 
HETATM   24  C   UNL     1      20.648  48.835  48.588  1.00  0.00     0.032 A 
HETATM   25  H   UNL     1      22.093  46.376  49.161  1.00  0.00     0.167 HD
HETATM   26  C   UNL     1      20.390  50.199  48.413  1.00  0.00     0.002 A 
HETATM   27  C   UNL     1      21.385  51.159  48.617  1.00  0.00     0.002 A 
ENDBRANCH  17  18
ENDBRANCH   2  17
TORSDOF 5
ENDMDL
MODEL 3
REMARK VINA RESULT:      -9.0      2.661      9.430
REMARK  5 active torsions:
REMARK  status: ('A' for Active; 'I' for Inactive)
REMARK    1  A    between atoms: O_2  and  C_3 
REMARK    2  A    between atoms: C_7  and  C_8 
REMARK    3  A    between atoms: C_8  and  C_9 
REMARK       I    between atoms: C_9  and  N_10 
REMARK    4  A    between atoms: N_10  and  C_11 
REMARK    5  A    between atoms: C_11  and  C_12 
ROOT
HETATM    1  C   UNL     1      26.074  46.607  51.384  1.00  0.00     0.222 C 
HETATM    2  N   UNL     1      25.686  45.343  51.756  1.00  0.00    -0.354 N 
HETATM    3  O   UNL     1      26.073  47.551  52.173  1.00  0.00    -0.273 OA
HETATM    4  H   UNL     1      25.899  44.549  51.157  1.00  0.00     0.162 HD
ENDROOT
BRANCH   1   5
HETATM    5  C   UNL     1      26.440  46.783  49.921  1.00  0.00     0.144 C 
BRANCH   5   6
HETATM    6  C   UNL     1      25.998  48.083  49.334  1.00  0.00    -0.014 A 
HETATM    7  C   UNL     1      24.663  48.562  49.135  1.00  0.00     0.006 A 
HETATM    8  C   UNL     1      24.789  49.823  48.566  1.00  0.00     0.088 A 
HETATM    9  C   UNL     1      23.367  48.073  49.380  1.00  0.00     0.017 A 
HETATM   10  C   UNL     1      23.718  50.653  48.230  1.00  0.00     0.074 A 
HETATM   11  O   UNL     1      26.102  50.132  48.387  1.00  0.00    -0.321 OA
HETATM   12  C   UNL     1      22.438  50.161  48.499  1.00  0.00     0.070 A 
HETATM   13  C   UNL     1      22.271  48.887  49.059  1.00  0.00     0.038 A 
HETATM   14  C   UNL     1      26.822  49.080  48.849  1.00  0.00     0.151 A 
BRANCH  12  15
HETATM   15  O   UNL     1      21.265  50.827  48.256  1.00  0.00    -0.356 OA
HETATM   16  C   UNL     1      20.464  51.146  49.388  1.00  0.00     0.210 C 
ENDBRANCH  12  15
ENDBRANCH   5   6
ENDBRANCH   1   5
BRANCH   2  17
HETATM   17  C   UNL     1      25.439  45.037  53.142  1.00  0.00     0.201 C 
BRANCH  17  18
HETATM   18  C   UNL     1      26.733  44.715  53.801  1.00  0.00     0.123 A 
HETATM   19  N   UNL     1      27.419  43.590  53.704  1.00  0.00    -0.232 NA
HETATM   20  C   UNL     1      28.553  43.784  54.454  1.00  0.00     0.085 A 
HETATM   21  C   UNL     1      28.556  45.048  55.032  1.00  0.00     0.062 A 
HETATM   22  C   UNL     1      29.634  42.923  54.687  1.00  0.00     0.034 A 
HETATM   23  N   UNL     1      27.385  45.619  54.605  1.00  0.00    -0.341 N 
HETATM   24  C   UNL     1      29.589  45.518  55.847  1.00  0.00     0.032 A 
HETATM   25  H   UNL     1      27.063  46.548  54.834  1.00  0.00     0.167 HD
HETATM   26  C   UNL     1      30.659  44.644  56.068  1.00  0.00     0.002 A 
HETATM   27  C   UNL     1      30.686  43.368  55.499  1.00  0.00     0.002 A 
ENDBRANCH  17  18
ENDBRANCH   2  17
TORSDOF 5
ENDMDL
MODEL 4
REMARK VINA RESULT:      -8.5      4.457      6.117
REMARK  5 active torsions:
REMARK  status: ('A' for Active; 'I' for Inactive)
REMARK    1  A    between atoms: O_2  and  C_3 
REMARK    2  A    between atoms: C_7  and  C_8 
REMARK    3  A    between atoms: C_8  and  C_9 
REMARK       I    between atoms: C_9  and  N_10 
REMARK    4  A    between atoms: N_10  and  C_11 
REMARK    5  A    between atoms: C_11  and  C_12 
ROOT
HETATM    1  C   UNL     1      28.966  41.470  52.765  1.00  0.00     0.222 C 
HETATM    2  N   UNL     1      28.794  41.192  51.430  1.00  0.00    -0.354 N 
HETATM    3  O   UNL     1      28.200  41.042  53.627  1.00  0.00    -0.273 OA
HETATM    4  H   UNL     1      29.548  41.372  50.772  1.00  0.00     0.162 HD
ENDROOT
BRANCH   1   5
HETATM    5  C   UNL     1      30.119  42.396  53.103  1.00  0.00     0.144 C 
BRANCH   5   6
HETATM    6  C   UNL     1      29.782  43.447  54.109  1.00  0.00    -0.014 A 
HETATM    7  C   UNL     1      28.717  44.404  54.074  1.00  0.00     0.006 A 
HETATM    8  C   UNL     1      28.831  45.147  55.243  1.00  0.00     0.088 A 
HETATM    9  C   UNL     1      27.668  44.716  53.192  1.00  0.00     0.017 A 
HETATM   10  C   UNL     1      27.968  46.178  55.615  1.00  0.00     0.074 A 
HETATM   11  O   UNL     1      29.901  44.723  55.970  1.00  0.00    -0.321 OA
HETATM   12  C   UNL     1      26.918  46.462  54.737  1.00  0.00     0.070 A 
HETATM   13  C   UNL     1      26.780  45.743  53.542  1.00  0.00     0.038 A 
HETATM   14  C   UNL     1      30.469  43.704  55.281  1.00  0.00     0.151 A 
BRANCH  12  15
HETATM   15  O   UNL     1      25.961  47.424  54.930  1.00  0.00    -0.356 OA
HETATM   16  C   UNL     1      26.339  48.555  55.705  1.00  0.00     0.210 C 
ENDBRANCH  12  15
ENDBRANCH   5   6
ENDBRANCH   1   5
BRANCH   2  17
HETATM   17  C   UNL     1      27.809  40.226  51.011  1.00  0.00     0.201 C 
BRANCH  17  18
HETATM   18  C   UNL     1      26.597  40.949  50.541  1.00  0.00     0.123 A 
HETATM   19  N   UNL     1      25.901  40.711  49.443  1.00  0.00    -0.232 NA
HETATM   20  C   UNL     1      24.859  41.606  49.466  1.00  0.00     0.085 A 
HETATM   21  C   UNL     1      24.924  42.415  50.594  1.00  0.00     0.062 A 
HETATM   22  C   UNL     1      23.809  41.784  48.554  1.00  0.00     0.034 A 
HETATM   23  N   UNL     1      26.041  41.981  51.259  1.00  0.00    -0.341 N 
HETATM   24  C   UNL     1      23.991  43.416  50.875  1.00  0.00     0.032 A 
HETATM   25  H   UNL     1      26.389  42.350  52.132  1.00  0.00     0.167 HD
HETATM   26  C   UNL     1      22.951  43.579  49.955  1.00  0.00     0.002 A 
HETATM   27  C   UNL     1      22.857  42.779  48.813  1.00  0.00     0.002 A 
ENDBRANCH  17  18
ENDBRANCH   2  17
TORSDOF 5
ENDMDL
MODEL 5
REMARK VINA RESULT:      -8.3      2.811      9.461
REMARK  5 active torsions:
REMARK  status: ('A' for Active; 'I' for Inactive)
REMARK    1  A    between atoms: O_2  and  C_3 
REMARK    2  A    between atoms: C_7  and  C_8 
REMARK    3  A    between atoms: C_8  and  C_9 
REMARK       I    between atoms: C_9  and  N_10 
REMARK    4  A    between atoms: N_10  and  C_11 
REMARK    5  A    between atoms: C_11  and  C_12 
ROOT
HETATM    1  C   UNL     1      25.745  44.903  52.770  1.00  0.00     0.222 C 
HETATM    2  N   UNL     1      26.795  45.720  53.111  1.00  0.00    -0.354 N 
HETATM    3  O   UNL     1      24.873  44.586  53.577  1.00  0.00    -0.273 OA
HETATM    4  H   UNL     1      27.372  46.137  52.385  1.00  0.00     0.162 HD
ENDROOT
BRANCH   1   5
HETATM    5  C   UNL     1      25.764  44.360  51.353  1.00  0.00     0.144 C 
BRANCH   5   6
HETATM    6  C   UNL     1      24.619  44.816  50.510  1.00  0.00    -0.014 A 
HETATM    7  C   UNL     1      24.403  46.104  49.923  1.00  0.00     0.006 A 
HETATM    8  C   UNL     1      23.202  46.014  49.231  1.00  0.00     0.088 A 
HETATM    9  C   UNL     1      25.093  47.329  49.892  1.00  0.00     0.017 A 
HETATM   10  C   UNL     1      22.631  47.051  48.492  1.00  0.00     0.074 A 
HETATM   11  O   UNL     1      22.665  44.772  49.376  1.00  0.00    -0.321 OA
HETATM   12  C   UNL     1      23.340  48.255  48.455  1.00  0.00     0.070 A 
HETATM   13  C   UNL     1      24.548  48.388  49.152  1.00  0.00     0.038 A 
HETATM   14  C   UNL     1      23.521  44.058  50.147  1.00  0.00     0.151 A 
BRANCH  12  15
HETATM   15  O   UNL     1      22.954  49.382  47.775  1.00  0.00    -0.356 OA
HETATM   16  C   UNL     1      23.612  50.594  48.124  1.00  0.00     0.210 C 
ENDBRANCH  12  15
ENDBRANCH   5   6
ENDBRANCH   1   5
BRANCH   2  17
HETATM   17  C   UNL     1      26.810  46.389  54.388  1.00  0.00     0.201 C 
BRANCH  17  18
HETATM   18  C   UNL     1      27.968  45.892  55.178  1.00  0.00     0.123 A 
HETATM   19  N   UNL     1      28.356  46.305  56.372  1.00  0.00    -0.232 NA
HETATM   20  C   UNL     1      29.438  45.525  56.698  1.00  0.00     0.085 A 
HETATM   21  C   UNL     1      29.724  44.622  55.681  1.00  0.00     0.062 A 
HETATM   22  C   UNL     1      30.229  45.525  57.856  1.00  0.00     0.034 A 
HETATM   23  N   UNL     1      28.777  44.879  54.723  1.00  0.00    -0.341 N 
HETATM   24  C   UNL     1      30.773  43.703  55.743  1.00  0.00     0.032 A 
HETATM   25  H   UNL     1      28.686  44.399  53.840  1.00  0.00     0.167 HD
HETATM   26  C   UNL     1      31.552  43.718  56.906  1.00  0.00     0.002 A 
HETATM   27  C   UNL     1      31.287  44.611  57.947  1.00  0.00     0.002 A 
ENDBRANCH  17  18
ENDBRANCH   2  17
TORSDOF 5
ENDMDL
MODEL 6
REMARK VINA RESULT:      -8.3      4.311      8.662
REMARK  5 active torsions:
REMARK  status: ('A' for Active; 'I' for Inactive)
REMARK    1  A    between atoms: O_2  and  C_3 
REMARK    2  A    between atoms: C_7  and  C_8 
REMARK    3  A    between atoms: C_8  and  C_9 
REMARK       I    between atoms: C_9  and  N_10 
REMARK    4  A    between atoms: N_10  and  C_11 
REMARK    5  A    between atoms: C_11  and  C_12 
ROOT
HETATM    1  C   UNL     1      25.561  46.349  52.820  1.00  0.00     0.222 C 
HETATM    2  N   UNL     1      26.421  45.923  53.804  1.00  0.00    -0.354 N 
HETATM    3  O   UNL     1      25.322  47.541  52.631  1.00  0.00    -0.273 OA
HETATM    4  H   UNL     1      26.764  44.966  53.799  1.00  0.00     0.162 HD
ENDROOT
BRANCH   1   5
HETATM    5  C   UNL     1      24.872  45.255  52.025  1.00  0.00     0.144 C 
BRANCH   5   6
HETATM    6  C   UNL     1      25.730  44.635  50.972  1.00  0.00    -0.014 A 
HETATM    7  C   UNL     1      25.848  43.252  50.619  1.00  0.00     0.006 A 
HETATM    8  C   UNL     1      26.765  43.198  49.578  1.00  0.00     0.088 A 
HETATM    9  C   UNL     1      25.274  42.045  51.059  1.00  0.00     0.017 A 
HETATM   10  C   UNL     1      27.153  42.030  48.922  1.00  0.00     0.074 A 
HETATM   11  O   UNL     1      27.227  44.445  49.290  1.00  0.00    -0.321 OA
HETATM   12  C   UNL     1      26.559  40.842  49.356  1.00  0.00     0.070 A 
HETATM   13  C   UNL     1      25.640  40.855  50.414  1.00  0.00     0.038 A 
HETATM   14  C   UNL     1      26.602  45.303  50.133  1.00  0.00     0.151 A 
BRANCH  12  15
HETATM   15  O   UNL     1      26.796  39.597  48.832  1.00  0.00    -0.356 OA
HETATM   16  C   UNL     1      27.819  38.827  49.452  1.00  0.00     0.210 C 
ENDBRANCH  12  15
ENDBRANCH   5   6
ENDBRANCH   1   5
BRANCH   2  17
HETATM   17  C   UNL     1      27.220  46.876  54.533  1.00  0.00     0.201 C 
BRANCH  17  18
HETATM   18  C   UNL     1      28.303  46.148  55.247  1.00  0.00     0.123 A 
HETATM   19  N   UNL     1      28.805  46.431  56.436  1.00  0.00    -0.232 NA
HETATM   20  C   UNL     1      29.745  45.459  56.680  1.00  0.00     0.085 A 
HETATM   21  C   UNL     1      29.828  44.570  55.615  1.00  0.00     0.062 A 
HETATM   22  C   UNL     1      30.569  45.268  57.798  1.00  0.00     0.034 A 
HETATM   23  N   UNL     1      28.903  45.032  54.714  1.00  0.00    -0.341 N 
HETATM   24  C   UNL     1      30.701  43.480  55.592  1.00  0.00     0.032 A 
HETATM   25  H   UNL     1      28.694  44.617  53.819  1.00  0.00     0.167 HD
HETATM   26  C   UNL     1      31.515  43.305  56.716  1.00  0.00     0.002 A 
HETATM   27  C   UNL     1      31.453  44.181  57.802  1.00  0.00     0.002 A 
ENDBRANCH  17  18
ENDBRANCH   2  17
TORSDOF 5
ENDMDL
MODEL 7
REMARK VINA RESULT:      -8.2      2.361      3.996
REMARK  5 active torsions:
REMARK  status: ('A' for Active; 'I' for Inactive)
REMARK    1  A    between atoms: O_2  and  C_3 
REMARK    2  A    between atoms: C_7  and  C_8 
REMARK    3  A    between atoms: C_8  and  C_9 
REMARK       I    between atoms: C_9  and  N_10 
REMARK    4  A    between atoms: N_10  and  C_11 
REMARK    5  A    between atoms: C_11  and  C_12 
ROOT
HETATM    1  C   UNL     1      22.571  44.815  48.859  1.00  0.00     0.222 C 
HETATM    2  N   UNL     1      21.338  45.025  49.429  1.00  0.00    -0.354 N 
HETATM    3  O   UNL     1      22.755  44.901  47.646  1.00  0.00    -0.273 OA
HETATM    4  H   UNL     1      21.259  45.161  50.434  1.00  0.00     0.162 HD
ENDROOT
BRANCH   1   5
HETATM    5  C   UNL     1      23.678  44.403  49.813  1.00  0.00     0.144 C 
BRANCH   5   6
HETATM    6  C   UNL     1      24.323  45.544  50.527  1.00  0.00    -0.014 A 
HETATM    7  C   UNL     1      25.012  45.534  51.783  1.00  0.00     0.006 A 
HETATM    8  C   UNL     1      25.430  46.840  52.002  1.00  0.00     0.088 A 
HETATM    9  C   UNL     1      25.336  44.564  52.749  1.00  0.00     0.017 A 
HETATM   10  C   UNL     1      26.163  47.264  53.111  1.00  0.00     0.074 A 
HETATM   11  O   UNL     1      25.024  47.644  50.982  1.00  0.00    -0.321 OA
HETATM   12  C   UNL     1      26.495  46.284  54.052  1.00  0.00     0.070 A 
HETATM   13  C   UNL     1      26.079  44.959  53.871  1.00  0.00     0.038 A 
HETATM   14  C   UNL     1      24.357  46.858  50.101  1.00  0.00     0.151 A 
BRANCH  12  15
HETATM   15  O   UNL     1      27.220  46.497  55.196  1.00  0.00    -0.356 OA
HETATM   16  C   UNL     1      28.514  45.909  55.251  1.00  0.00     0.210 C 
ENDBRANCH  12  15
ENDBRANCH   5   6
ENDBRANCH   1   5
BRANCH   2  17
HETATM   17  C   UNL     1      20.250  45.540  48.636  1.00  0.00     0.201 C 
BRANCH  17  18
HETATM   18  C   UNL     1      20.200  47.018  48.790  1.00  0.00     0.123 A 
HETATM   19  N   UNL     1      20.774  47.921  48.014  1.00  0.00    -0.232 NA
HETATM   20  C   UNL     1      20.411  49.139  48.535  1.00  0.00     0.085 A 
HETATM   21  C   UNL     1      19.608  48.979  49.659  1.00  0.00     0.062 A 
HETATM   22  C   UNL     1      20.726  50.433  48.097  1.00  0.00     0.034 A 
HETATM   23  N   UNL     1      19.493  47.621  49.803  1.00  0.00    -0.341 N 
HETATM   24  C   UNL     1      19.091  50.050  50.391  1.00  0.00     0.032 A 
HETATM   25  H   UNL     1      18.969  47.146  50.523  1.00  0.00     0.167 HD
HETATM   26  C   UNL     1      19.417  51.333  49.940  1.00  0.00     0.002 A 
HETATM   27  C   UNL     1      20.219  51.526  48.812  1.00  0.00     0.002 A 
ENDBRANCH  17  18
ENDBRANCH   2  17
TORSDOF 5
ENDMDL
MODEL 8
REMARK VINA RESULT:      -8.1      3.072      9.257
REMARK  5 active torsions:
REMARK  status: ('A' for Active; 'I' for Inactive)
REMARK    1  A    between atoms: O_2  and  C_3 
REMARK    2  A    between atoms: C_7  and  C_8 
REMARK    3  A    between atoms: C_8  and  C_9 
REMARK       I    between atoms: C_9  and  N_10 
REMARK    4  A    between atoms: N_10  and  C_11 
REMARK    5  A    between atoms: C_11  and  C_12 
ROOT
HETATM    1  C   UNL     1      26.042  43.747  50.168  1.00  0.00     0.222 C 
HETATM    2  N   UNL     1      26.260  43.112  51.367  1.00  0.00    -0.354 N 
HETATM    3  O   UNL     1      26.946  43.944  49.357  1.00  0.00    -0.273 OA
HETATM    4  H   UNL     1      25.471  42.774  51.913  1.00  0.00     0.162 HD
ENDROOT
BRANCH   1   5
HETATM    5  C   UNL     1      24.629  44.253  49.935  1.00  0.00     0.144 C 
BRANCH   5   6
HETATM    6  C   UNL     1      24.488  45.735  50.040  1.00  0.00    -0.014 A 
HETATM    7  C   UNL     1      23.623  46.603  49.298  1.00  0.00     0.006 A 
HETATM    8  C   UNL     1      23.864  47.885  49.775  1.00  0.00     0.088 A 
HETATM    9  C   UNL     1      22.660  46.443  48.286  1.00  0.00     0.017 A 
HETATM   10  C   UNL     1      23.208  49.033  49.330  1.00  0.00     0.074 A 
HETATM   11  O   UNL     1      24.827  47.858  50.735  1.00  0.00    -0.321 OA
HETATM   12  C   UNL     1      22.239  48.855  48.339  1.00  0.00     0.070 A 
HETATM   13  C   UNL     1      21.978  47.579  47.824  1.00  0.00     0.038 A 
HETATM   14  C   UNL     1      25.199  46.564  50.888  1.00  0.00     0.151 A 
BRANCH  12  15
HETATM   15  O   UNL     1      21.479  49.853  47.785  1.00  0.00    -0.356 OA
HETATM   16  C   UNL     1      21.390  51.070  48.516  1.00  0.00     0.210 C 
ENDBRANCH  12  15
ENDBRANCH   5   6
ENDBRANCH   1   5
BRANCH   2  17
HETATM   17  C   UNL     1      27.529  42.485  51.636  1.00  0.00     0.201 C 
BRANCH  17  18
HETATM   18  C   UNL     1      28.188  43.197  52.763  1.00  0.00     0.123 A 
HETATM   19  N   UNL     1      27.823  44.346  53.303  1.00  0.00    -0.232 NA
HETATM   20  C   UNL     1      28.710  44.571  54.328  1.00  0.00     0.085 A 
HETATM   21  C   UNL     1      29.643  43.544  54.410  1.00  0.00     0.062 A 
HETATM   22  C   UNL     1      28.779  45.634  55.239  1.00  0.00     0.034 A 
HETATM   23  N   UNL     1      29.292  42.685  53.401  1.00  0.00    -0.341 N 
HETATM   24  C   UNL     1      30.665  43.510  55.361  1.00  0.00     0.032 A 
HETATM   25  H   UNL     1      29.760  41.820  53.173  1.00  0.00     0.167 HD
HETATM   26  C   UNL     1      30.718  44.579  56.262  1.00  0.00     0.002 A 
HETATM   27  C   UNL     1      29.793  45.624  56.206  1.00  0.00     0.002 A 
ENDBRANCH  17  18
ENDBRANCH   2  17
TORSDOF 5
ENDMDL
MODEL 9
REMARK VINA RESULT:      -8.0      5.307      8.014
REMARK  5 active torsions:
REMARK  status: ('A' for Active; 'I' for Inactive)
REMARK    1  A    between atoms: O_2  and  C_3 
REMARK    2  A    between atoms: C_7  and  C_8 
REMARK    3  A    between atoms: C_8  and  C_9 
REMARK       I    between atoms: C_9  and  N_10 
REMARK    4  A    between atoms: N_10  and  C_11 
REMARK    5  A    between atoms: C_11  and  C_12 
ROOT
HETATM    1  C   UNL     1      28.860  41.509  52.740  1.00  0.00     0.222 C 
HETATM    2  N   UNL     1      28.632  41.307  51.400  1.00  0.00    -0.354 N 
HETATM    3  O   UNL     1      28.112  41.059  53.606  1.00  0.00    -0.273 OA
HETATM    4  H   UNL     1      29.368  41.498  50.724  1.00  0.00     0.162 HD
ENDROOT
BRANCH   1   5
HETATM    5  C   UNL     1      30.054  42.380  53.083  1.00  0.00     0.144 C 
BRANCH   5   6
HETATM    6  C   UNL     1      29.761  43.451  54.081  1.00  0.00    -0.014 A 
HETATM    7  C   UNL     1      28.699  44.412  54.070  1.00  0.00     0.006 A 
HETATM    8  C   UNL     1      28.861  45.175  55.219  1.00  0.00     0.088 A 
HETATM    9  C   UNL     1      27.617  44.712  53.224  1.00  0.00     0.017 A 
HETATM   10  C   UNL     1      28.018  46.217  55.606  1.00  0.00     0.074 A 
HETATM   11  O   UNL     1      29.957  44.761  55.911  1.00  0.00    -0.321 OA
HETATM   12  C   UNL     1      26.935  46.489  54.764  1.00  0.00     0.070 A 
HETATM   13  C   UNL     1      26.747  45.750  53.589  1.00  0.00     0.038 A 
HETATM   14  C   UNL     1      30.494  43.726  55.220  1.00  0.00     0.151 A 
BRANCH  12  15
HETATM   15  O   UNL     1      25.990  47.459  54.976  1.00  0.00    -0.356 OA
HETATM   16  C   UNL     1      26.388  48.581  55.755  1.00  0.00     0.210 C 
ENDBRANCH  12  15
ENDBRANCH   5   6
ENDBRANCH   1   5
BRANCH   2  17
HETATM   17  C   UNL     1      27.602  40.396  50.967  1.00  0.00     0.201 C 
BRANCH  17  18
HETATM   18  C   UNL     1      27.798  40.099  49.523  1.00  0.00     0.123 A 
HETATM   19  N   UNL     1      27.916  38.908  48.962  1.00  0.00    -0.232 NA
HETATM   20  C   UNL     1      28.038  39.146  47.615  1.00  0.00     0.085 A 
HETATM   21  C   UNL     1      28.006  40.510  47.347  1.00  0.00     0.062 A 
HETATM   22  C   UNL     1      28.178  38.242  46.552  1.00  0.00     0.034 A 
HETATM   23  N   UNL     1      27.857  41.094  48.578  1.00  0.00    -0.341 N 
HETATM   24  C   UNL     1      28.109  41.041  46.059  1.00  0.00     0.032 A 
HETATM   25  H   UNL     1      27.791  42.085  48.756  1.00  0.00     0.167 HD
HETATM   26  C   UNL     1      28.247  40.124  45.012  1.00  0.00     0.002 A 
HETATM   27  C   UNL     1      28.280  38.748  45.249  1.00  0.00     0.002 A 
ENDBRANCH  17  18
ENDBRANCH   2  17
TORSDOF 5
ENDMDL
MODEL 10
REMARK VINA RESULT:      -8.0      7.080     10.875
REMARK  5 active torsions:
REMARK  status: ('A' for Active; 'I' for Inactive)
REMARK    1  A    between atoms: O_2  and  C_3 
REMARK    2  A    between atoms: C_7  and  C_8 
REMARK    3  A    between atoms: C_8  and  C_9 
REMARK       I    between atoms: C_9  and  N_10 
REMARK    4  A    between atoms: N_10  and  C_11 
REMARK    5  A    between atoms: C_11  and  C_12 
ROOT
HETATM    1  C   UNL     1      17.901  52.328  49.270  1.00  0.00     0.222 C 
HETATM    2  N   UNL     1      16.861  53.193  49.028  1.00  0.00    -0.354 N 
HETATM    3  O   UNL     1      17.894  51.544  50.217  1.00  0.00    -0.273 OA
HETATM    4  H   UNL     1      16.793  53.669  48.131  1.00  0.00     0.162 HD
ENDROOT
BRANCH   1   5
HETATM    5  C   UNL     1      19.091  52.448  48.335  1.00  0.00     0.144 C 
BRANCH   5   6
HETATM    6  C   UNL     1      19.784  51.154  48.062  1.00  0.00    -0.014 A 
HETATM    7  C   UNL     1      21.144  50.797  48.334  1.00  0.00     0.006 A 
HETATM    8  C   UNL     1      21.291  49.485  47.901  1.00  0.00     0.088 A 
HETATM    9  C   UNL     1      22.260  51.434  48.906  1.00  0.00     0.017 A 
HETATM   10  C   UNL     1      22.467  48.742  48.003  1.00  0.00     0.074 A 
HETATM   11  O   UNL     1      20.125  49.031  47.367  1.00  0.00    -0.321 OA
HETATM   12  C   UNL     1      23.561  49.383  48.593  1.00  0.00     0.070 A 
HETATM   13  C   UNL     1      23.455  50.710  49.029  1.00  0.00     0.038 A 
HETATM   14  C   UNL     1      19.225  50.040  47.464  1.00  0.00     0.151 A 
BRANCH  12  15
HETATM   15  O   UNL     1      24.795  48.820  48.796  1.00  0.00    -0.356 OA
HETATM   16  C   UNL     1      25.922  49.587  48.390  1.00  0.00     0.210 C 
ENDBRANCH  12  15
ENDBRANCH   5   6
ENDBRANCH   1   5
BRANCH   2  17
HETATM   17  C   UNL     1      15.634  53.080  49.775  1.00  0.00     0.201 C 
BRANCH  17  18
HETATM   18  C   UNL     1      15.366  54.374  50.458  1.00  0.00     0.123 A 
HETATM   19  N   UNL     1      14.929  54.549  51.693  1.00  0.00    -0.232 NA
HETATM   20  C   UNL     1      14.878  55.909  51.877  1.00  0.00     0.085 A 
HETATM   21  C   UNL     1      15.282  56.580  50.729  1.00  0.00     0.062 A 
HETATM   22  C   UNL     1      14.499  56.648  53.006  1.00  0.00     0.034 A 
HETATM   23  N   UNL     1      15.584  55.582  49.840  1.00  0.00    -0.341 N 
HETATM   24  C   UNL     1      15.331  57.973  50.632  1.00  0.00     0.032 A 
HETATM   25  H   UNL     1      15.917  55.713  48.897  1.00  0.00     0.167 HD
HETATM   26  C   UNL     1      14.949  58.694  51.768  1.00  0.00     0.002 A 
HETATM   27  C   UNL     1      14.540  58.047  52.937  1.00  0.00     0.002 A 
ENDBRANCH  17  18
ENDBRANCH   2  17
TORSDOF 5
ENDMDL
