MODEL 1
REMARK VINA RESULT:      -8.1      0.000      0.000
REMARK  5 active torsions:
REMARK  status: ('A' for Active; 'I' for Inactive)
REMARK    1  A    between atoms: C_2  and  N_3 
REMARK    2  A    between atoms: N_3  and  C_6 
REMARK    3  A    between atoms: C_6  and  C_7 
REMARK    4  A    between atoms: C_8  and  N_9 
REMARK       I    between atoms: N_9  and  C_10 
REMARK    5  A    between atoms: C_10  and  C_11 
ROOT
HETATM    1  N   UNL     1      25.995  46.747  50.531  1.00  0.00    -0.326 N 
HETATM    2  C   UNL     1      26.041  46.629  51.916  1.00  0.00     0.231 C 
HETATM    3  O   UNL     1      26.048  47.569  52.705  1.00  0.00    -0.272 OA
HETATM    4  H   UNL     1      25.991  45.869  50.037  1.00  0.00     0.169 HD
ENDROOT
BRANCH   1   5
HETATM    5  C   UNL     1      26.073  47.929  49.755  1.00  0.00     0.042 A 
HETATM    6  C   UNL     1      24.889  48.479  49.206  1.00  0.00    -0.006 A 
HETATM    7  C   UNL     1      24.971  49.641  48.411  1.00  0.00     0.011 A 
HETATM    8  C   UNL     1      26.196  50.251  48.161  1.00  0.00     0.001 A 
HETATM    9  C   UNL     1      27.354  49.719  48.710  1.00  0.00     0.002 A 
HETATM   10  C   UNL     1      27.291  48.568  49.500  1.00  0.00     0.030 A 
BRANCH   6  11
HETATM   11  C   UNL     1      23.517  47.938  49.508  1.00  0.00     0.273 C 
BRANCH  11  12
HETATM   12  N   UNL     1      22.541  49.045  49.744  1.00  0.00    -0.072 N 
HETATM   13  H   UNL     1      23.036  49.939  49.612  1.00  0.00     0.277 HD
HETATM   14  H   UNL     1      22.263  49.041  50.737  1.00  0.00     0.277 HD
BRANCH  12  15
HETATM   15  C   UNL     1      21.328  49.000  48.881  1.00  0.00     0.228 C 
HETATM   16  C   UNL     1      21.278  50.255  48.033  1.00  0.00     0.034 C 
ENDBRANCH  12  15
ENDBRANCH  11  12
ENDBRANCH   6  11
ENDBRANCH   1   5
BRANCH   2  17
HETATM   17  C   UNL     1      25.904  45.197  52.449  1.00  0.00     0.122 C 
HETATM   18  C   UNL     1      27.162  44.618  53.059  1.00  0.00    -0.028 A 
HETATM   19  C   UNL     1      27.869  43.750  52.218  1.00  0.00     0.007 A 
HETATM   20  C   UNL     1      27.660  44.930  54.319  1.00  0.00     0.009 A 
HETATM   21  C   UNL     1      29.066  43.177  52.614  1.00  0.00     0.019 A 
HETATM   22  S   UNL     1      27.087  43.572  50.643  1.00  0.00    -0.128 SA
HETATM   23  C   UNL     1      29.563  43.483  53.882  1.00  0.00     0.001 A 
HETATM   24  C   UNL     1      28.866  44.357  54.727  1.00  0.00     0.001 A 
HETATM   25  C   UNL     1      25.521  44.265  51.287  1.00  0.00     0.098 C 
ENDBRANCH   2  17
TORSDOF 5
ENDMDL
MODEL 2
REMARK VINA RESULT:      -7.8      4.079      7.191
REMARK  5 active torsions:
REMARK  status: ('A' for Active; 'I' for Inactive)
REMARK    1  A    between atoms: C_2  and  N_3 
REMARK    2  A    between atoms: N_3  and  C_6 
REMARK    3  A    between atoms: C_6  and  C_7 
REMARK    4  A    between atoms: C_8  and  N_9 
REMARK       I    between atoms: N_9  and  C_10 
REMARK    5  A    between atoms: C_10  and  C_11 
ROOT
HETATM    1  N   UNL     1      29.698  43.993  53.998  1.00  0.00    -0.326 N 
HETATM    2  C   UNL     1      28.474  43.477  53.587  1.00  0.00     0.231 C 
HETATM    3  O   UNL     1      27.549  43.170  54.334  1.00  0.00    -0.272 OA
HETATM    4  H   UNL     1      30.340  44.193  53.247  1.00  0.00     0.169 HD
ENDROOT
BRANCH   1   5
HETATM    5  C   UNL     1      30.175  44.154  55.321  1.00  0.00     0.042 A 
HETATM    6  C   UNL     1      29.912  45.361  56.013  1.00  0.00    -0.006 A 
HETATM    7  C   UNL     1      30.410  45.531  57.321  1.00  0.00     0.011 A 
HETATM    8  C   UNL     1      31.155  44.529  57.939  1.00  0.00     0.001 A 
HETATM    9  C   UNL     1      31.401  43.342  57.264  1.00  0.00     0.002 A 
HETATM   10  C   UNL     1      30.914  43.157  55.968  1.00  0.00     0.030 A 
BRANCH   6  11
HETATM   11  C   UNL     1      29.035  46.451  55.457  1.00  0.00     0.273 C 
BRANCH  11  12
HETATM   12  N   UNL     1      27.588  46.115  55.619  1.00  0.00    -0.072 N 
HETATM   13  H   UNL     1      27.352  46.201  56.618  1.00  0.00     0.277 HD
HETATM   14  H   UNL     1      27.449  45.118  55.399  1.00  0.00     0.277 HD
BRANCH  12  15
HETATM   15  C   UNL     1      26.660  46.945  54.802  1.00  0.00     0.228 C 
HETATM   16  C   UNL     1      26.527  48.313  55.441  1.00  0.00     0.034 C 
ENDBRANCH  12  15
ENDBRANCH  11  12
ENDBRANCH   6  11
ENDBRANCH   1   5
BRANCH   2  17
HETATM   17  C   UNL     1      28.253  43.463  52.069  1.00  0.00     0.122 C 
HETATM   18  C   UNL     1      26.863  43.860  51.620  1.00  0.00    -0.028 A 
HETATM   19  C   UNL     1      26.029  42.784  51.291  1.00  0.00     0.007 A 
HETATM   20  C   UNL     1      26.374  45.161  51.577  1.00  0.00     0.009 A 
HETATM   21  C   UNL     1      24.713  42.982  50.909  1.00  0.00     0.019 A 
HETATM   22  S   UNL     1      26.843  41.229  51.501  1.00  0.00    -0.128 SA
HETATM   23  C   UNL     1      24.224  44.288  50.857  1.00  0.00     0.001 A 
HETATM   24  C   UNL     1      25.048  45.370  51.192  1.00  0.00     0.001 A 
HETATM   25  C   UNL     1      28.484  42.037  51.542  1.00  0.00     0.098 C 
ENDBRANCH   2  17
TORSDOF 5
ENDMDL
MODEL 3
REMARK VINA RESULT:      -7.8      3.381      8.023
REMARK  5 active torsions:
REMARK  status: ('A' for Active; 'I' for Inactive)
REMARK    1  A    between atoms: C_2  and  N_3 
REMARK    2  A    between atoms: N_3  and  C_6 
REMARK    3  A    between atoms: C_6  and  C_7 
REMARK    4  A    between atoms: C_8  and  N_9 
REMARK       I    between atoms: N_9  and  C_10 
REMARK    5  A    between atoms: C_10  and  C_11 
ROOT
HETATM    1  N   UNL     1      23.273  48.930  48.307  1.00  0.00    -0.326 N 
HETATM    2  C   UNL     1      22.224  49.559  48.970  1.00  0.00     0.231 C 
HETATM    3  O   UNL     1      22.347  50.321  49.924  1.00  0.00    -0.272 OA
HETATM    4  H   UNL     1      22.988  48.340  47.541  1.00  0.00     0.169 HD
ENDROOT
BRANCH   1   5
HETATM    5  C   UNL     1      24.646  48.930  48.653  1.00  0.00     0.042 A 
HETATM    6  C   UNL     1      25.139  47.941  49.539  1.00  0.00    -0.006 A 
HETATM    7  C   UNL     1      26.501  47.958  49.903  1.00  0.00     0.011 A 
HETATM    8  C   UNL     1      27.363  48.932  49.406  1.00  0.00     0.001 A 
HETATM    9  C   UNL     1      26.881  49.892  48.529  1.00  0.00     0.002 A 
HETATM   10  C   UNL     1      25.534  49.890  48.155  1.00  0.00     0.030 A 
BRANCH   6  11
HETATM   11  C   UNL     1      24.299  46.799  50.043  1.00  0.00     0.273 C 
BRANCH  11  12
HETATM   12  N   UNL     1      24.694  46.411  51.431  1.00  0.00    -0.072 N 
HETATM   13  H   UNL     1      24.050  46.876  52.087  1.00  0.00     0.277 HD
HETATM   14  H   UNL     1      25.620  46.812  51.641  1.00  0.00     0.277 HD
BRANCH  12  15
HETATM   15  C   UNL     1      24.711  44.944  51.687  1.00  0.00     0.228 C 
HETATM   16  C   UNL     1      23.929  44.242  50.595  1.00  0.00     0.034 C 
ENDBRANCH  12  15
ENDBRANCH  11  12
ENDBRANCH   6  11
ENDBRANCH   1   5
BRANCH   2  17
HETATM   17  C   UNL     1      20.847  49.384  48.317  1.00  0.00     0.122 C 
HETATM   18  C   UNL     1      19.852  50.484  48.617  1.00  0.00    -0.028 A 
HETATM   19  C   UNL     1      18.915  50.166  49.608  1.00  0.00     0.007 A 
HETATM   20  C   UNL     1      19.853  51.748  48.037  1.00  0.00     0.009 A 
HETATM   21  C   UNL     1      17.969  51.085  50.028  1.00  0.00     0.019 A 
HETATM   22  S   UNL     1      19.162  48.539  50.254  1.00  0.00    -0.128 SA
HETATM   23  C   UNL     1      17.964  52.351  49.441  1.00  0.00     0.001 A 
HETATM   24  C   UNL     1      18.902  52.681  48.454  1.00  0.00     0.001 A 
HETATM   25  C   UNL     1      20.213  48.080  48.828  1.00  0.00     0.098 C 
ENDBRANCH   2  17
TORSDOF 5
ENDMDL
MODEL 4
REMARK VINA RESULT:      -7.6      3.039      6.493
REMARK  5 active torsions:
REMARK  status: ('A' for Active; 'I' for Inactive)
REMARK    1  A    between atoms: C_2  and  N_3 
REMARK    2  A    between atoms: N_3  and  C_6 
REMARK    3  A    between atoms: C_6  and  C_7 
REMARK    4  A    between atoms: C_8  and  N_9 
REMARK       I    between atoms: N_9  and  C_10 
REMARK    5  A    between atoms: C_10  and  C_11 
ROOT
HETATM    1  N   UNL     1      28.080  43.956  51.601  1.00  0.00    -0.326 N 
HETATM    2  C   UNL     1      27.144  43.108  51.018  1.00  0.00     0.231 C 
HETATM    3  O   UNL     1      26.726  42.067  51.517  1.00  0.00    -0.272 OA
HETATM    4  H   UNL     1      28.304  44.770  51.051  1.00  0.00     0.169 HD
ENDROOT
BRANCH   1   5
HETATM    5  C   UNL     1      28.820  43.750  52.790  1.00  0.00     0.042 A 
HETATM    6  C   UNL     1      28.462  44.458  53.962  1.00  0.00    -0.006 A 
HETATM    7  C   UNL     1      29.217  44.272  55.139  1.00  0.00     0.011 A 
HETATM    8  C   UNL     1      30.305  43.404  55.162  1.00  0.00     0.001 A 
HETATM    9  C   UNL     1      30.646  42.701  54.015  1.00  0.00     0.002 A 
HETATM   10  C   UNL     1      29.909  42.872  52.841  1.00  0.00     0.030 A 
BRANCH   6  11
HETATM   11  C   UNL     1      27.245  45.339  54.049  1.00  0.00     0.273 C 
BRANCH  11  12
HETATM   12  N   UNL     1      27.414  46.391  55.097  1.00  0.00    -0.072 N 
HETATM   13  H   UNL     1      28.411  46.650  55.129  1.00  0.00     0.277 HD
HETATM   14  H   UNL     1      27.218  45.979  56.021  1.00  0.00     0.277 HD
BRANCH  12  15
HETATM   15  C   UNL     1      26.577  47.607  54.900  1.00  0.00     0.228 C 
HETATM   16  C   UNL     1      25.767  47.449  53.629  1.00  0.00     0.034 C 
ENDBRANCH  12  15
ENDBRANCH  11  12
ENDBRANCH   6  11
ENDBRANCH   1   5
BRANCH   2  17
HETATM   17  C   UNL     1      26.496  43.642  49.734  1.00  0.00     0.122 C 
HETATM   18  C   UNL     1      26.143  45.114  49.760  1.00  0.00    -0.028 A 
HETATM   19  C   UNL     1      24.792  45.383  50.009  1.00  0.00     0.007 A 
HETATM   20  C   UNL     1      27.049  46.159  49.617  1.00  0.00     0.009 A 
HETATM   21  C   UNL     1      24.322  46.682  50.111  1.00  0.00     0.019 A 
HETATM   22  S   UNL     1      23.854  43.902  50.238  1.00  0.00    -0.128 SA
HETATM   23  C   UNL     1      25.229  47.732  49.960  1.00  0.00     0.001 A 
HETATM   24  C   UNL     1      26.584  47.472  49.717  1.00  0.00     0.001 A 
HETATM   25  C   UNL     1      25.179  42.889  49.486  1.00  0.00     0.098 C 
ENDBRANCH   2  17
TORSDOF 5
ENDMDL
MODEL 5
REMARK VINA RESULT:      -7.4      4.444      6.819
REMARK  5 active torsions:
REMARK  status: ('A' for Active; 'I' for Inactive)
REMARK    1  A    between atoms: C_2  and  N_3 
REMARK    2  A    between atoms: N_3  and  C_6 
REMARK    3  A    between atoms: C_6  and  C_7 
REMARK    4  A    between atoms: C_8  and  N_9 
REMARK       I    between atoms: N_9  and  C_10 
REMARK    5  A    between atoms: C_10  and  C_11 
ROOT
HETATM    1  N   UNL     1      28.185  43.009  53.882  1.00  0.00    -0.326 N 
HETATM    2  C   UNL     1      28.256  42.920  52.496  1.00  0.00     0.231 C 
HETATM    3  O   UNL     1      29.194  43.314  51.809  1.00  0.00    -0.272 OA
HETATM    4  H   UNL     1      27.342  42.630  54.282  1.00  0.00     0.169 HD
ENDROOT
BRANCH   1   5
HETATM    5  C   UNL     1      29.085  43.662  54.759  1.00  0.00     0.042 A 
HETATM    6  C   UNL     1      28.840  45.006  55.131  1.00  0.00    -0.006 A 
HETATM    7  C   UNL     1      29.752  45.663  55.983  1.00  0.00     0.011 A 
HETATM    8  C   UNL     1      30.884  45.010  56.461  1.00  0.00     0.001 A 
HETATM    9  C   UNL     1      31.115  43.689  56.106  1.00  0.00     0.002 A 
HETATM   10  C   UNL     1      30.223  43.021  55.263  1.00  0.00     0.030 A 
BRANCH   6  11
HETATM   11  C   UNL     1      27.593  45.752  54.739  1.00  0.00     0.273 C 
BRANCH  11  12
HETATM   12  N   UNL     1      27.480  47.043  55.483  1.00  0.00    -0.072 N 
HETATM   13  H   UNL     1      28.388  47.527  55.419  1.00  0.00     0.277 HD
HETATM   14  H   UNL     1      27.357  46.842  56.486  1.00  0.00     0.277 HD
BRANCH  12  15
HETATM   15  C   UNL     1      26.389  47.940  55.011  1.00  0.00     0.228 C 
HETATM   16  C   UNL     1      25.821  47.391  53.718  1.00  0.00     0.034 C 
ENDBRANCH  12  15
ENDBRANCH  11  12
ENDBRANCH   6  11
ENDBRANCH   1   5
BRANCH   2  17
HETATM   17  C   UNL     1      27.128  42.113  51.840  1.00  0.00     0.122 C 
HETATM   18  C   UNL     1      27.529  41.343  50.600  1.00  0.00    -0.028 A 
HETATM   19  C   UNL     1      27.171  41.957  49.393  1.00  0.00     0.007 A 
HETATM   20  C   UNL     1      28.248  40.153  50.591  1.00  0.00     0.009 A 
HETATM   21  C   UNL     1      27.511  41.400  48.172  1.00  0.00     0.019 A 
HETATM   22  S   UNL     1      26.341  43.496  49.656  1.00  0.00    -0.128 SA
HETATM   23  C   UNL     1      28.225  40.201  48.162  1.00  0.00     0.001 A 
HETATM   24  C   UNL     1      28.594  39.583  49.364  1.00  0.00     0.001 A 
HETATM   25  C   UNL     1      26.011  43.075  51.406  1.00  0.00     0.098 C 
ENDBRANCH   2  17
TORSDOF 5
ENDMDL
MODEL 6
REMARK VINA RESULT:      -7.3     11.056     12.845
REMARK  5 active torsions:
REMARK  status: ('A' for Active; 'I' for Inactive)
REMARK    1  A    between atoms: C_2  and  N_3 
REMARK    2  A    between atoms: N_3  and  C_6 
REMARK    3  A    between atoms: C_6  and  C_7 
REMARK    4  A    between atoms: C_8  and  N_9 
REMARK       I    between atoms: N_9  and  C_10 
REMARK    5  A    between atoms: C_10  and  C_11 
ROOT
HETATM    1  N   UNL     1      30.351  51.627  42.040  1.00  0.00    -0.326 N 
HETATM    2  C   UNL     1      29.512  50.533  41.855  1.00  0.00     0.231 C 
HETATM    3  O   UNL     1      29.788  49.373  42.145  1.00  0.00    -0.272 OA
HETATM    4  H   UNL     1      29.959  52.508  41.748  1.00  0.00     0.169 HD
ENDROOT
BRANCH   1   5
HETATM    5  C   UNL     1      31.700  51.626  42.469  1.00  0.00     0.042 A 
HETATM    6  C   UNL     1      32.724  51.308  41.544  1.00  0.00    -0.006 A 
HETATM    7  C   UNL     1      34.065  51.281  41.980  1.00  0.00     0.011 A 
HETATM    8  C   UNL     1      34.393  51.562  43.303  1.00  0.00     0.001 A 
HETATM    9  C   UNL     1      33.390  51.886  44.205  1.00  0.00     0.002 A 
HETATM   10  C   UNL     1      32.056  51.918  43.791  1.00  0.00     0.030 A 
BRANCH   6  11
HETATM   11  C   UNL     1      32.464  51.088  40.078  1.00  0.00     0.273 C 
BRANCH  11  12
HETATM   12  N   UNL     1      32.172  49.651  39.792  1.00  0.00    -0.072 N 
HETATM   13  H   UNL     1      31.933  49.191  40.683  1.00  0.00     0.277 HD
HETATM   14  H   UNL     1      33.039  49.188  39.479  1.00  0.00     0.277 HD
BRANCH  12  15
HETATM   15  C   UNL     1      31.091  49.421  38.793  1.00  0.00     0.228 C 
HETATM   16  C   UNL     1      30.554  48.015  38.960  1.00  0.00     0.034 C 
ENDBRANCH  12  15
ENDBRANCH  11  12
ENDBRANCH   6  11
ENDBRANCH   1   5
BRANCH   2  17
HETATM   17  C   UNL     1      28.087  50.879  41.403  1.00  0.00     0.122 C 
HETATM   18  C   UNL     1      27.495  49.939  40.375  1.00  0.00    -0.028 A 
HETATM   19  C   UNL     1      27.537  50.416  39.059  1.00  0.00     0.007 A 
HETATM   20  C   UNL     1      26.993  48.671  40.643  1.00  0.00     0.009 A 
HETATM   21  C   UNL     1      27.079  49.652  38.000  1.00  0.00     0.019 A 
HETATM   22  S   UNL     1      28.292  52.012  38.958  1.00  0.00    -0.128 SA
HETATM   23  C   UNL     1      26.567  48.381  38.268  1.00  0.00     0.001 A 
HETATM   24  C   UNL     1      26.527  47.893  39.580  1.00  0.00     0.001 A 
HETATM   25  C   UNL     1      28.091  52.274  40.758  1.00  0.00     0.098 C 
ENDBRANCH   2  17
TORSDOF 5
ENDMDL
MODEL 7
REMARK VINA RESULT:      -7.2      3.921      7.224
REMARK  5 active torsions:
REMARK  status: ('A' for Active; 'I' for Inactive)
REMARK    1  A    between atoms: C_2  and  N_3 
REMARK    2  A    between atoms: N_3  and  C_6 
REMARK    3  A    between atoms: C_6  and  C_7 
REMARK    4  A    between atoms: C_8  and  N_9 
REMARK       I    between atoms: N_9  and  C_10 
REMARK    5  A    between atoms: C_10  and  C_11 
ROOT
HETATM    1  N   UNL     1      27.640  45.087  54.133  1.00  0.00    -0.326 N 
HETATM    2  C   UNL     1      26.415  44.431  54.200  1.00  0.00     0.231 C 
HETATM    3  O   UNL     1      26.136  43.533  54.989  1.00  0.00    -0.272 OA
HETATM    4  H   UNL     1      27.691  45.803  53.426  1.00  0.00     0.169 HD
ENDROOT
BRANCH   1   5
HETATM    5  C   UNL     1      28.827  44.789  54.845  1.00  0.00     0.042 A 
HETATM    6  C   UNL     1      29.661  43.738  54.395  1.00  0.00    -0.006 A 
HETATM    7  C   UNL     1      30.829  43.425  55.121  1.00  0.00     0.011 A 
HETATM    8  C   UNL     1      31.170  44.134  56.269  1.00  0.00     0.001 A 
HETATM    9  C   UNL     1      30.358  45.172  56.701  1.00  0.00     0.002 A 
HETATM   10  C   UNL     1      29.197  45.497  55.994  1.00  0.00     0.030 A 
BRANCH   6  11
HETATM   11  C   UNL     1      29.417  42.988  53.113  1.00  0.00     0.273 C 
BRANCH  11  12
HETATM   12  N   UNL     1      28.838  41.637  53.381  1.00  0.00    -0.072 N 
HETATM   13  H   UNL     1      28.568  41.598  54.374  1.00  0.00     0.277 HD
HETATM   14  H   UNL     1      29.579  40.928  53.280  1.00  0.00     0.277 HD
BRANCH  12  15
HETATM   15  C   UNL     1      27.676  41.276  52.522  1.00  0.00     0.228 C 
HETATM   16  C   UNL     1      28.156  41.081  51.098  1.00  0.00     0.034 C 
ENDBRANCH  12  15
ENDBRANCH  11  12
ENDBRANCH   6  11
ENDBRANCH   1   5
BRANCH   2  17
HETATM   17  C   UNL     1      25.313  45.024  53.312  1.00  0.00     0.122 C 
HETATM   18  C   UNL     1      25.319  44.541  51.877  1.00  0.00    -0.028 A 
HETATM   19  C   UNL     1      25.899  45.433  50.966  1.00  0.00     0.007 A 
HETATM   20  C   UNL     1      24.860  43.302  51.445  1.00  0.00     0.009 A 
HETATM   21  C   UNL     1      26.023  45.115  49.625  1.00  0.00     0.019 A 
HETATM   22  S   UNL     1      26.483  46.901  51.759  1.00  0.00    -0.128 SA
HETATM   23  C   UNL     1      25.555  43.875  49.188  1.00  0.00     0.001 A 
HETATM   24  C   UNL     1      24.980  42.973  50.093  1.00  0.00     0.001 A 
HETATM   25  C   UNL     1      25.485  46.550  53.253  1.00  0.00     0.098 C 
ENDBRANCH   2  17
TORSDOF 5
ENDMDL
MODEL 8
REMARK VINA RESULT:      -7.2      1.585      2.357
REMARK  5 active torsions:
REMARK  status: ('A' for Active; 'I' for Inactive)
REMARK    1  A    between atoms: C_2  and  N_3 
REMARK    2  A    between atoms: N_3  and  C_6 
REMARK    3  A    between atoms: C_6  and  C_7 
REMARK    4  A    between atoms: C_8  and  N_9 
REMARK       I    between atoms: N_9  and  C_10 
REMARK    5  A    between atoms: C_10  and  C_11 
ROOT
HETATM    1  N   UNL     1      23.737  47.064  49.788  1.00  0.00    -0.326 N 
HETATM    2  C   UNL     1      24.717  46.808  50.741  1.00  0.00     0.231 C 
HETATM    3  O   UNL     1      25.483  47.644  51.210  1.00  0.00    -0.272 OA
HETATM    4  H   UNL     1      23.195  46.258  49.519  1.00  0.00     0.169 HD
ENDROOT
BRANCH   1   5
HETATM    5  C   UNL     1      23.502  48.271  49.084  1.00  0.00     0.042 A 
HETATM    6  C   UNL     1      22.193  48.568  48.633  1.00  0.00    -0.006 A 
HETATM    7  C   UNL     1      21.965  49.756  47.909  1.00  0.00     0.011 A 
HETATM    8  C   UNL     1      23.007  50.638  47.634  1.00  0.00     0.001 A 
HETATM    9  C   UNL     1      24.286  50.351  48.088  1.00  0.00     0.002 A 
HETATM   10  C   UNL     1      24.530  49.179  48.807  1.00  0.00     0.030 A 
BRANCH   6  11
HETATM   11  C   UNL     1      20.997  47.719  48.971  1.00  0.00     0.273 C 
BRANCH  11  12
HETATM   12  N   UNL     1      20.104  48.411  49.950  1.00  0.00    -0.072 N 
HETATM   13  H   UNL     1      20.319  49.418  49.920  1.00  0.00     0.277 HD
HETATM   14  H   UNL     1      20.359  48.114  50.904  1.00  0.00     0.277 HD
BRANCH  12  15
HETATM   15  C   UNL     1      18.648  48.193  49.727  1.00  0.00     0.228 C 
HETATM   16  C   UNL     1      18.194  49.043  48.558  1.00  0.00     0.034 C 
ENDBRANCH  12  15
ENDBRANCH  11  12
ENDBRANCH   6  11
ENDBRANCH   1   5
BRANCH   2  17
HETATM   17  C   UNL     1      24.687  45.395  51.337  1.00  0.00     0.122 C 
HETATM   18  C   UNL     1      25.760  45.110  52.366  1.00  0.00    -0.028 A 
HETATM   19  C   UNL     1      26.856  44.387  51.878  1.00  0.00     0.007 A 
HETATM   20  C   UNL     1      25.748  45.556  53.683  1.00  0.00     0.009 A 
HETATM   21  C   UNL     1      27.941  44.091  52.685  1.00  0.00     0.019 A 
HETATM   22  S   UNL     1      26.684  44.004  50.161  1.00  0.00    -0.128 SA
HETATM   23  C   UNL     1      27.926  44.530  54.010  1.00  0.00     0.001 A 
HETATM   24  C   UNL     1      26.838  45.260  54.504  1.00  0.00     0.001 A 
HETATM   25  C   UNL     1      24.892  44.371  50.209  1.00  0.00     0.098 C 
ENDBRANCH   2  17
TORSDOF 5
ENDMDL
MODEL 9
REMARK VINA RESULT:      -7.1      4.810      7.212
REMARK  5 active torsions:
REMARK  status: ('A' for Active; 'I' for Inactive)
REMARK    1  A    between atoms: C_2  and  N_3 
REMARK    2  A    between atoms: N_3  and  C_6 
REMARK    3  A    between atoms: C_6  and  C_7 
REMARK    4  A    between atoms: C_8  and  N_9 
REMARK       I    between atoms: N_9  and  C_10 
REMARK    5  A    between atoms: C_10  and  C_11 
ROOT
HETATM    1  N   UNL     1      25.906  42.399  51.763  1.00  0.00    -0.326 N 
HETATM    2  C   UNL     1      26.542  43.556  52.198  1.00  0.00     0.231 C 
HETATM    3  O   UNL     1      26.970  44.446  51.469  1.00  0.00    -0.272 OA
HETATM    4  H   UNL     1      25.616  41.778  52.502  1.00  0.00     0.169 HD
ENDROOT
BRANCH   1   5
HETATM    5  C   UNL     1      25.733  41.950  50.431  1.00  0.00     0.042 A 
HETATM    6  C   UNL     1      26.751  41.179  49.819  1.00  0.00    -0.006 A 
HETATM    7  C   UNL     1      26.588  40.756  48.483  1.00  0.00     0.011 A 
HETATM    8  C   UNL     1      25.444  41.085  47.763  1.00  0.00     0.001 A 
HETATM    9  C   UNL     1      24.442  41.830  48.368  1.00  0.00     0.002 A 
HETATM   10  C   UNL     1      24.585  42.257  49.691  1.00  0.00     0.030 A 
BRANCH   6  11
HETATM   11  C   UNL     1      27.971  40.699  50.557  1.00  0.00     0.273 C 
BRANCH  11  12
HETATM   12  N   UNL     1      28.023  39.207  50.600  1.00  0.00    -0.072 N 
HETATM   13  H   UNL     1      27.158  38.846  50.172  1.00  0.00     0.277 HD
HETATM   14  H   UNL     1      27.980  38.898  51.583  1.00  0.00     0.277 HD
BRANCH  12  15
HETATM   15  C   UNL     1      29.211  38.605  49.935  1.00  0.00     0.228 C 
HETATM   16  C   UNL     1      29.913  37.685  50.913  1.00  0.00     0.034 C 
ENDBRANCH  12  15
ENDBRANCH  11  12
ENDBRANCH   6  11
ENDBRANCH   1   5
BRANCH   2  17
HETATM   17  C   UNL     1      26.536  43.765  53.718  1.00  0.00     0.122 C 
HETATM   18  C   UNL     1      26.816  45.183  54.171  1.00  0.00    -0.028 A 
HETATM   19  C   UNL     1      28.129  45.405  54.605  1.00  0.00     0.007 A 
HETATM   20  C   UNL     1      25.908  46.234  54.125  1.00  0.00     0.009 A 
HETATM   21  C   UNL     1      28.553  46.661  55.004  1.00  0.00     0.019 A 
HETATM   22  S   UNL     1      29.118  43.944  54.496  1.00  0.00    -0.128 SA
HETATM   23  C   UNL     1      27.640  47.716  54.967  1.00  0.00     0.001 A 
HETATM   24  C   UNL     1      26.327  47.504  54.527  1.00  0.00     0.001 A 
HETATM   25  C   UNL     1      27.631  42.889  54.349  1.00  0.00     0.098 C 
ENDBRANCH   2  17
TORSDOF 5
ENDMDL
MODEL 10
REMARK VINA RESULT:      -7.1      2.834      4.574
REMARK  5 active torsions:
REMARK  status: ('A' for Active; 'I' for Inactive)
REMARK    1  A    between atoms: C_2  and  N_3 
REMARK    2  A    between atoms: N_3  and  C_6 
REMARK    3  A    between atoms: C_6  and  C_7 
REMARK    4  A    between atoms: C_8  and  N_9 
REMARK       I    between atoms: N_9  and  C_10 
REMARK    5  A    between atoms: C_10  and  C_11 
ROOT
HETATM    1  N   UNL     1      25.654  44.673  52.581  1.00  0.00    -0.326 N 
HETATM    2  C   UNL     1      26.908  44.073  52.579  1.00  0.00     0.231 C 
HETATM    3  O   UNL     1      27.738  44.173  51.680  1.00  0.00    -0.272 OA
HETATM    4  H   UNL     1      25.103  44.486  53.405  1.00  0.00     0.169 HD
ENDROOT
BRANCH   1   5
HETATM    5  C   UNL     1      25.034  45.397  51.535  1.00  0.00     0.042 A 
HETATM    6  C   UNL     1      24.273  44.702  50.564  1.00  0.00    -0.006 A 
HETATM    7  C   UNL     1      23.678  45.422  49.507  1.00  0.00     0.011 A 
HETATM    8  C   UNL     1      23.830  46.802  49.407  1.00  0.00     0.001 A 
HETATM    9  C   UNL     1      24.565  47.483  50.366  1.00  0.00     0.002 A 
HETATM   10  C   UNL     1      25.160  46.787  51.421  1.00  0.00     0.030 A 
BRANCH   6  11
HETATM   11  C   UNL     1      23.979  43.228  50.653  1.00  0.00     0.273 C 
BRANCH  11  12
HETATM   12  N   UNL     1      24.427  42.514  49.419  1.00  0.00    -0.072 N 
HETATM   13  H   UNL     1      24.280  43.143  48.617  1.00  0.00     0.277 HD
HETATM   14  H   UNL     1      23.800  41.714  49.248  1.00  0.00     0.277 HD
BRANCH  12  15
HETATM   15  C   UNL     1      25.841  42.047  49.449  1.00  0.00     0.228 C 
HETATM   16  C   UNL     1      26.004  41.033  50.563  1.00  0.00     0.034 C 
ENDBRANCH  12  15
ENDBRANCH  11  12
ENDBRANCH   6  11
ENDBRANCH   1   5
BRANCH   2  17
HETATM   17  C   UNL     1      27.298  43.381  53.892  1.00  0.00     0.122 C 
HETATM   18  C   UNL     1      28.256  44.161  54.767  1.00  0.00    -0.028 A 
HETATM   19  C   UNL     1      29.590  43.743  54.683  1.00  0.00     0.007 A 
HETATM   20  C   UNL     1      27.913  45.250  55.560  1.00  0.00     0.009 A 
HETATM   21  C   UNL     1      30.593  44.389  55.386  1.00  0.00     0.019 A 
HETATM   22  S   UNL     1      29.793  42.400  53.552  1.00  0.00    -0.128 SA
HETATM   23  C   UNL     1      30.249  45.477  56.189  1.00  0.00     0.001 A 
HETATM   24  C   UNL     1      28.919  45.906  56.274  1.00  0.00     0.001 A 
HETATM   25  C   UNL     1      27.997  42.050  53.569  1.00  0.00     0.098 C 
ENDBRANCH   2  17
TORSDOF 5
ENDMDL
