MODEL 1
REMARK VINA RESULT:      -7.9      0.000      0.000
REMARK  2 active torsions:
REMARK  status: ('A' for Active; 'I' for Inactive)
REMARK    1  A    between atoms: C_8  and  S_9 
REMARK    2  A    between atoms: S_9  and  C_10 
ROOT
HETATM    1  C   UNL     1      30.787  43.331  55.551  1.00  0.00     0.002 A 
HETATM    2  C   UNL     1      29.741  43.562  54.658  1.00  0.00     0.034 A 
HETATM    3  C   UNL     1      28.914  44.670  54.787  1.00  0.00     0.087 A 
HETATM    4  C   UNL     1      29.146  45.585  55.850  1.00  0.00     0.087 A 
HETATM    5  N   UNL     1      28.373  46.676  56.020  1.00  0.00    -0.232 NA
HETATM    6  C   UNL     1      27.395  46.868  55.114  1.00  0.00     0.164 A 
HETATM    7 CL   UNL     1      26.447  48.271  55.392  1.00  0.00    -0.059 Cl
HETATM    8  C   UNL     1      27.165  45.978  54.080  1.00  0.00     0.165 A 
HETATM    9  N   UNL     1      27.906  44.854  53.909  1.00  0.00    -0.234 NA
HETATM   10  C   UNL     1      30.190  45.341  56.733  1.00  0.00     0.034 A 
HETATM   11  C   UNL     1      31.011  44.221  56.593  1.00  0.00     0.002 A 
ENDROOT
BRANCH   8  12
HETATM   12  S   UNL     1      25.870  46.168  52.862  1.00  0.00     0.076 S 
HETATM   13  O   UNL     1      26.116  47.447  52.116  1.00  0.00    -0.251 OA
BRANCH  12  14
HETATM   14  C   UNL     1      26.317  44.799  51.718  1.00  0.00     0.089 C 
HETATM   15  C   UNL     1      26.729  45.255  50.313  1.00  0.00     0.045 C 
HETATM   16  C   UNL     1      25.575  45.799  49.484  1.00  0.00     0.233 C 
HETATM   17  N   UNL     1      24.476  44.786  49.443  1.00  0.00    -0.075 N 
HETATM   18  H   UNL     1      24.767  43.971  48.887  1.00  0.00     0.277 HD
HETATM   19  H   UNL     1      23.686  45.204  48.930  1.00  0.00     0.277 HD
HETATM   20  C   UNL     1      23.977  44.349  50.779  1.00  0.00     0.233 C 
HETATM   21  C   UNL     1      25.134  43.821  51.622  1.00  0.00     0.045 C 
ENDBRANCH  12  14
ENDBRANCH   8  12
TORSDOF 2
ENDMDL
MODEL 2
REMARK VINA RESULT:      -7.9      2.367      3.028
REMARK  2 active torsions:
REMARK  status: ('A' for Active; 'I' for Inactive)
REMARK    1  A    between atoms: C_8  and  S_9 
REMARK    2  A    between atoms: S_9  and  C_10 
ROOT
HETATM    1  C   UNL     1      30.410  45.507  56.494  1.00  0.00     0.002 A 
HETATM    2  C   UNL     1      29.203  45.603  55.801  1.00  0.00     0.034 A 
HETATM    3  C   UNL     1      28.769  44.583  54.964  1.00  0.00     0.087 A 
HETATM    4  C   UNL     1      29.574  43.421  54.817  1.00  0.00     0.087 A 
HETATM    5  N   UNL     1      29.199  42.403  54.017  1.00  0.00    -0.232 NA
HETATM    6  C   UNL     1      28.012  42.533  53.392  1.00  0.00     0.164 A 
HETATM    7 CL   UNL     1      27.599  41.206  52.387  1.00  0.00    -0.059 Cl
HETATM    8  C   UNL     1      27.229  43.665  53.532  1.00  0.00     0.165 A 
HETATM    9  N   UNL     1      27.601  44.717  54.303  1.00  0.00    -0.234 NA
HETATM   10  C   UNL     1      30.774  43.340  55.510  1.00  0.00     0.034 A 
HETATM   11  C   UNL     1      31.199  44.374  56.347  1.00  0.00     0.002 A 
ENDROOT
BRANCH   8  12
HETATM   12  S   UNL     1      25.657  43.904  52.713  1.00  0.00     0.076 S 
HETATM   13  O   UNL     1      24.715  44.543  53.690  1.00  0.00    -0.251 OA
BRANCH  12  14
HETATM   14  C   UNL     1      26.130  45.210  51.508  1.00  0.00     0.089 C 
HETATM   15  C   UNL     1      24.946  45.889  50.810  1.00  0.00     0.045 C 
HETATM   16  C   UNL     1      24.230  44.990  49.812  1.00  0.00     0.233 C 
HETATM   17  N   UNL     1      25.221  44.450  48.833  1.00  0.00    -0.075 N 
HETATM   18  H   UNL     1      25.566  45.204  48.225  1.00  0.00     0.277 HD
HETATM   19  H   UNL     1      24.721  43.798  48.210  1.00  0.00     0.277 HD
HETATM   20  C   UNL     1      26.366  43.714  49.443  1.00  0.00     0.233 C 
HETATM   21  C   UNL     1      27.077  44.604  50.458  1.00  0.00     0.045 C 
ENDBRANCH  12  14
ENDBRANCH   8  12
TORSDOF 2
ENDMDL
MODEL 3
REMARK VINA RESULT:      -7.4      2.902      3.538
REMARK  2 active torsions:
REMARK  status: ('A' for Active; 'I' for Inactive)
REMARK    1  A    between atoms: C_8  and  S_9 
REMARK    2  A    between atoms: S_9  and  C_10 
ROOT
HETATM    1  C   UNL     1      31.413  44.537  58.046  1.00  0.00     0.002 A 
HETATM    2  C   UNL     1      31.151  44.039  56.769  1.00  0.00     0.034 A 
HETATM    3  C   UNL     1      30.090  44.520  56.013  1.00  0.00     0.087 A 
HETATM    4  C   UNL     1      29.262  45.540  56.554  1.00  0.00     0.087 A 
HETATM    5  N   UNL     1      28.219  46.041  55.862  1.00  0.00    -0.232 NA
HETATM    6  C   UNL     1      28.026  45.547  54.623  1.00  0.00     0.164 A 
HETATM    7 CL   UNL     1      26.681  46.224  53.800  1.00  0.00    -0.059 Cl
HETATM    8  C   UNL     1      28.829  44.552  54.095  1.00  0.00     0.165 A 
HETATM    9  N   UNL     1      29.861  44.007  54.786  1.00  0.00    -0.234 NA
HETATM   10  C   UNL     1      29.533  46.024  57.827  1.00  0.00     0.034 A 
HETATM   11  C   UNL     1      30.602  45.530  58.577  1.00  0.00     0.002 A 
ENDROOT
BRANCH   8  12
HETATM   12  S   UNL     1      28.608  43.842  52.469  1.00  0.00     0.076 S 
HETATM   13  O   UNL     1      29.897  43.186  52.068  1.00  0.00    -0.251 OA
BRANCH  12  14
HETATM   14  C   UNL     1      27.434  42.487  52.878  1.00  0.00     0.089 C 
HETATM   15  C   UNL     1      28.097  41.217  53.426  1.00  0.00     0.045 C 
HETATM   16  C   UNL     1      28.891  40.444  52.382  1.00  0.00     0.233 C 
HETATM   17  N   UNL     1      28.013  40.155  51.208  1.00  0.00    -0.075 N 
HETATM   18  H   UNL     1      27.288  39.472  51.468  1.00  0.00     0.277 HD
HETATM   19  H   UNL     1      28.590  39.688  50.494  1.00  0.00     0.277 HD
HETATM   20  C   UNL     1      27.390  41.356  50.581  1.00  0.00     0.233 C 
HETATM   21  C   UNL     1      26.608  42.145  51.627  1.00  0.00     0.045 C 
ENDBRANCH  12  14
ENDBRANCH   8  12
TORSDOF 2
ENDMDL
MODEL 4
REMARK VINA RESULT:      -7.1      2.572      3.101
REMARK  2 active torsions:
REMARK  status: ('A' for Active; 'I' for Inactive)
REMARK    1  A    between atoms: C_8  and  S_9 
REMARK    2  A    between atoms: S_9  and  C_10 
ROOT
HETATM    1  C   UNL     1      30.573  43.097  54.602  1.00  0.00     0.002 A 
HETATM    2  C   UNL     1      29.876  42.871  53.415  1.00  0.00     0.034 A 
HETATM    3  C   UNL     1      28.756  43.622  53.082  1.00  0.00     0.087 A 
HETATM    4  C   UNL     1      28.319  44.641  53.970  1.00  0.00     0.087 A 
HETATM    5  N   UNL     1      27.238  45.399  53.694  1.00  0.00    -0.232 NA
HETATM    6  C   UNL     1      26.618  45.159  52.521  1.00  0.00     0.164 A 
HETATM    7 CL   UNL     1      25.249  46.153  52.236  1.00  0.00    -0.059 Cl
HETATM    8  C   UNL     1      27.040  44.165  51.657  1.00  0.00     0.165 A 
HETATM    9  N   UNL     1      28.103  43.366  51.929  1.00  0.00    -0.234 NA
HETATM   10  C   UNL     1      29.021  44.854  55.149  1.00  0.00     0.034 A 
HETATM   11  C   UNL     1      30.143  44.091  55.473  1.00  0.00     0.002 A 
ENDROOT
BRANCH   8  12
HETATM   12  S   UNL     1      26.246  43.785  50.101  1.00  0.00     0.076 S 
HETATM   13  O   UNL     1      27.280  43.211  49.177  1.00  0.00    -0.251 OA
BRANCH  12  14
HETATM   14  C   UNL     1      25.180  42.383  50.630  1.00  0.00     0.089 C 
HETATM   15  C   UNL     1      25.397  41.087  49.840  1.00  0.00     0.045 C 
HETATM   16  C   UNL     1      24.889  41.154  48.407  1.00  0.00     0.233 C 
HETATM   17  N   UNL     1      23.455  41.574  48.410  1.00  0.00    -0.075 N 
HETATM   18  H   UNL     1      22.868  40.827  48.805  1.00  0.00     0.277 HD
HETATM   19  H   UNL     1      23.156  41.671  47.428  1.00  0.00     0.277 HD
HETATM   20  C   UNL     1      23.182  42.866  49.103  1.00  0.00     0.233 C 
HETATM   21  C   UNL     1      23.706  42.811  50.535  1.00  0.00     0.045 C 
ENDBRANCH  12  14
ENDBRANCH   8  12
TORSDOF 2
ENDMDL
MODEL 5
REMARK VINA RESULT:      -7.1      4.068      7.665
REMARK  2 active torsions:
REMARK  status: ('A' for Active; 'I' for Inactive)
REMARK    1  A    between atoms: C_8  and  S_9 
REMARK    2  A    between atoms: S_9  and  C_10 
ROOT
HETATM    1  C   UNL     1      21.238  49.685  48.435  1.00  0.00     0.002 A 
HETATM    2  C   UNL     1      21.973  48.801  49.226  1.00  0.00     0.034 A 
HETATM    3  C   UNL     1      23.362  48.813  49.219  1.00  0.00     0.087 A 
HETATM    4  C   UNL     1      24.041  49.747  48.391  1.00  0.00     0.087 A 
HETATM    5  N   UNL     1      25.387  49.801  48.347  1.00  0.00    -0.232 NA
HETATM    6  C   UNL     1      26.050  48.945  49.151  1.00  0.00     0.164 A 
HETATM    7 CL   UNL     1      27.758  49.062  49.042  1.00  0.00    -0.059 Cl
HETATM    8  C   UNL     1      25.391  48.033  49.955  1.00  0.00     0.165 A 
HETATM    9  N   UNL     1      24.038  47.936  49.989  1.00  0.00    -0.234 NA
HETATM   10  C   UNL     1      23.296  50.619  47.608  1.00  0.00     0.034 A 
HETATM   11  C   UNL     1      21.901  50.595  47.623  1.00  0.00     0.002 A 
ENDROOT
BRANCH   8  12
HETATM   12  S   UNL     1      26.215  46.860  51.024  1.00  0.00     0.076 S 
HETATM   13  O   UNL     1      26.119  47.366  52.434  1.00  0.00    -0.251 OA
BRANCH  12  14
HETATM   14  C   UNL     1      25.046  45.446  50.893  1.00  0.00     0.089 C 
HETATM   15  C   UNL     1      24.992  44.550  52.136  1.00  0.00     0.045 C 
HETATM   16  C   UNL     1      26.247  43.714  52.341  1.00  0.00     0.233 C 
HETATM   17  N   UNL     1      26.527  42.931  51.100  1.00  0.00    -0.075 N 
HETATM   18  H   UNL     1      25.810  42.204  50.971  1.00  0.00     0.277 HD
HETATM   19  H   UNL     1      27.413  42.424  51.244  1.00  0.00     0.277 HD
HETATM   20  C   UNL     1      26.663  43.749  49.861  1.00  0.00     0.233 C 
HETATM   21  C   UNL     1      25.415  44.604  49.660  1.00  0.00     0.045 C 
ENDBRANCH  12  14
ENDBRANCH   8  12
TORSDOF 2
ENDMDL
MODEL 6
REMARK VINA RESULT:      -6.8     13.700     15.509
REMARK  2 active torsions:
REMARK  status: ('A' for Active; 'I' for Inactive)
REMARK    1  A    between atoms: C_8  and  S_9 
REMARK    2  A    between atoms: S_9  and  C_10 
ROOT
HETATM    1  C   UNL     1      26.726  48.812  40.643  1.00  0.00     0.002 A 
HETATM    2  C   UNL     1      27.771  49.548  41.203  1.00  0.00     0.034 A 
HETATM    3  C   UNL     1      28.852  49.964  40.436  1.00  0.00     0.087 A 
HETATM    4  C   UNL     1      28.887  49.632  39.055  1.00  0.00     0.087 A 
HETATM    5  N   UNL     1      29.912  50.011  38.266  1.00  0.00    -0.232 NA
HETATM    6  C   UNL     1      30.882  50.744  38.849  1.00  0.00     0.164 A 
HETATM    7 CL   UNL     1      32.158  51.186  37.792  1.00  0.00    -0.059 Cl
HETATM    8  C   UNL     1      30.851  51.064  40.194  1.00  0.00     0.165 A 
HETATM    9  N   UNL     1      29.848  50.664  41.016  1.00  0.00    -0.234 NA
HETATM   10  C   UNL     1      27.841  48.897  38.511  1.00  0.00     0.034 A 
HETATM   11  C   UNL     1      26.762  48.485  39.294  1.00  0.00     0.002 A 
ENDROOT
BRANCH   8  12
HETATM   12  S   UNL     1      32.118  52.013  41.028  1.00  0.00     0.076 S 
HETATM   13  O   UNL     1      31.472  53.230  41.624  1.00  0.00    -0.251 OA
BRANCH  12  14
HETATM   14  C   UNL     1      32.487  50.877  42.426  1.00  0.00     0.089 C 
HETATM   15  C   UNL     1      33.434  51.457  43.483  1.00  0.00     0.045 C 
HETATM   16  C   UNL     1      34.870  51.605  43.001  1.00  0.00     0.233 C 
HETATM   17  N   UNL     1      35.353  50.291  42.478  1.00  0.00    -0.075 N 
HETATM   18  H   UNL     1      35.460  49.621  43.251  1.00  0.00     0.277 HD
HETATM   19  H   UNL     1      36.303  50.434  42.103  1.00  0.00     0.277 HD
HETATM   20  C   UNL     1      34.515  49.701  41.395  1.00  0.00     0.233 C 
HETATM   21  C   UNL     1      33.070  49.568  41.867  1.00  0.00     0.045 C 
ENDBRANCH  12  14
ENDBRANCH   8  12
TORSDOF 2
ENDMDL
MODEL 7
REMARK VINA RESULT:      -6.7      5.917      8.255
REMARK  2 active torsions:
REMARK  status: ('A' for Active; 'I' for Inactive)
REMARK    1  A    between atoms: C_8  and  S_9 
REMARK    2  A    between atoms: S_9  and  C_10 
ROOT
HETATM    1  C   UNL     1      25.376  45.477  50.188  1.00  0.00     0.002 A 
HETATM    2  C   UNL     1      24.101  45.827  49.743  1.00  0.00     0.034 A 
HETATM    3  C   UNL     1      23.791  47.136  49.400  1.00  0.00     0.087 A 
HETATM    4  C   UNL     1      24.797  48.134  49.506  1.00  0.00     0.087 A 
HETATM    5  N   UNL     1      24.548  49.420  49.186  1.00  0.00    -0.232 NA
HETATM    6  C   UNL     1      23.309  49.700  48.734  1.00  0.00     0.164 A 
HETATM    7 CL   UNL     1      23.059  51.354  48.352  1.00  0.00    -0.059 Cl
HETATM    8  C   UNL     1      22.328  48.730  48.634  1.00  0.00     0.165 A 
HETATM    9  N   UNL     1      22.544  47.437  48.983  1.00  0.00    -0.234 NA
HETATM   10  C   UNL     1      26.061  47.773  49.953  1.00  0.00     0.034 A 
HETATM   11  C   UNL     1      26.358  46.453  50.295  1.00  0.00     0.002 A 
ENDROOT
BRANCH   8  12
HETATM   12  S   UNL     1      20.663  49.045  48.063  1.00  0.00     0.076 S 
HETATM   13  O   UNL     1      20.179  47.822  47.339  1.00  0.00    -0.251 OA
BRANCH  12  14
HETATM   14  C   UNL     1      19.783  49.080  49.678  1.00  0.00     0.089 C 
HETATM   15  C   UNL     1      18.292  48.730  49.596  1.00  0.00     0.045 C 
HETATM   16  C   UNL     1      17.450  49.803  48.921  1.00  0.00     0.233 C 
HETATM   17  N   UNL     1      17.680  51.113  49.601  1.00  0.00    -0.075 N 
HETATM   18  H   UNL     1      17.277  51.096  50.548  1.00  0.00     0.277 HD
HETATM   19  H   UNL     1      17.147  51.830  49.087  1.00  0.00     0.277 HD
HETATM   20  C   UNL     1      19.105  51.549  49.654  1.00  0.00     0.233 C 
HETATM   21  C   UNL     1      19.958  50.469  50.313  1.00  0.00     0.045 C 
ENDBRANCH  12  14
ENDBRANCH   8  12
TORSDOF 2
ENDMDL
MODEL 8
REMARK VINA RESULT:      -6.7      4.530      5.063
REMARK  2 active torsions:
REMARK  status: ('A' for Active; 'I' for Inactive)
REMARK    1  A    between atoms: C_8  and  S_9 
REMARK    2  A    between atoms: S_9  and  C_10 
ROOT
HETATM    1  C   UNL     1      30.452  43.187  54.347  1.00  0.00     0.002 A 
HETATM    2  C   UNL     1      29.987  42.484  53.235  1.00  0.00     0.034 A 
HETATM    3  C   UNL     1      28.705  42.685  52.740  1.00  0.00     0.087 A 
HETATM    4  C   UNL     1      27.857  43.628  53.381  1.00  0.00     0.087 A 
HETATM    5  N   UNL     1      26.604  43.861  52.941  1.00  0.00    -0.232 NA
HETATM    6  C   UNL     1      26.213  43.177  51.847  1.00  0.00     0.164 A 
HETATM    7 CL   UNL     1      24.608  43.516  51.344  1.00  0.00    -0.059 Cl
HETATM    8  C   UNL     1      27.036  42.256  51.224  1.00  0.00     0.165 A 
HETATM    9  N   UNL     1      28.287  41.979  51.670  1.00  0.00    -0.234 NA
HETATM   10  C   UNL     1      28.332  44.319  54.488  1.00  0.00     0.034 A 
HETATM   11  C   UNL     1      29.622  44.106  54.976  1.00  0.00     0.002 A 
ENDROOT
BRANCH   8  12
HETATM   12  S   UNL     1      26.566  41.304  49.785  1.00  0.00     0.076 S 
HETATM   13  O   UNL     1      26.281  42.261  48.665  1.00  0.00    -0.251 OA
BRANCH  12  14
HETATM   14  C   UNL     1      28.179  40.510  49.398  1.00  0.00     0.089 C 
HETATM   15  C   UNL     1      28.562  40.540  47.914  1.00  0.00     0.045 C 
HETATM   16  C   UNL     1      27.710  39.626  47.045  1.00  0.00     0.233 C 
HETATM   17  N   UNL     1      27.745  38.240  47.603  1.00  0.00    -0.075 N 
HETATM   18  H   UNL     1      28.682  37.833  47.479  1.00  0.00     0.277 HD
HETATM   19  H   UNL     1      27.113  37.658  47.034  1.00  0.00     0.277 HD
HETATM   20  C   UNL     1      27.316  38.127  49.027  1.00  0.00     0.233 C 
HETATM   21  C   UNL     1      28.155  39.056  49.900  1.00  0.00     0.045 C 
ENDBRANCH  12  14
ENDBRANCH   8  12
TORSDOF 2
ENDMDL
MODEL 9
REMARK VINA RESULT:      -6.6     13.481     14.645
REMARK  2 active torsions:
REMARK  status: ('A' for Active; 'I' for Inactive)
REMARK    1  A    between atoms: C_8  and  S_9 
REMARK    2  A    between atoms: S_9  and  C_10 
ROOT
HETATM    1  C   UNL     1      32.951  51.903  44.309  1.00  0.00     0.002 A 
HETATM    2  C   UNL     1      31.751  52.015  43.607  1.00  0.00     0.034 A 
HETATM    3  C   UNL     1      31.701  51.831  42.231  1.00  0.00     0.087 A 
HETATM    4  C   UNL     1      32.898  51.520  41.532  1.00  0.00     0.087 A 
HETATM    5  N   UNL     1      32.904  51.332  40.197  1.00  0.00    -0.232 NA
HETATM    6  C   UNL     1      31.714  51.423  39.570  1.00  0.00     0.164 A 
HETATM    7 CL   UNL     1      31.795  51.179  37.874  1.00  0.00    -0.059 Cl
HETATM    8  C   UNL     1      30.548  51.729  40.249  1.00  0.00     0.165 A 
HETATM    9  N   UNL     1      30.523  51.957  41.586  1.00  0.00    -0.234 NA
HETATM   10  C   UNL     1      34.086  51.415  42.243  1.00  0.00     0.034 A 
HETATM   11  C   UNL     1      34.122  51.604  43.625  1.00  0.00     0.002 A 
ENDROOT
BRANCH   8  12
HETATM   12  S   UNL     1      28.946  51.885  39.470  1.00  0.00     0.076 S 
HETATM   13  O   UNL     1      29.117  52.678  38.207  1.00  0.00    -0.251 OA
BRANCH  12  14
HETATM   14  C   UNL     1      28.678  50.138  38.959  1.00  0.00     0.089 C 
HETATM   15  C   UNL     1      27.326  49.874  38.285  1.00  0.00     0.045 C 
HETATM   16  C   UNL     1      26.142  49.956  39.238  1.00  0.00     0.233 C 
HETATM   17  N   UNL     1      26.376  49.043  40.396  1.00  0.00    -0.075 N 
HETATM   18  H   UNL     1      26.330  48.062  40.089  1.00  0.00     0.277 HD
HETATM   19  H   UNL     1      25.592  49.164  41.054  1.00  0.00     0.277 HD
HETATM   20  C   UNL     1      27.644  49.290  41.143  1.00  0.00     0.233 C 
HETATM   21  C   UNL     1      28.833  49.228  40.189  1.00  0.00     0.045 C 
ENDBRANCH  12  14
ENDBRANCH   8  12
TORSDOF 2
ENDMDL
MODEL 10
REMARK VINA RESULT:      -6.6     13.459     15.137
REMARK  2 active torsions:
REMARK  status: ('A' for Active; 'I' for Inactive)
REMARK    1  A    between atoms: C_8  and  S_9 
REMARK    2  A    between atoms: S_9  and  C_10 
ROOT
HETATM    1  C   UNL     1      36.432  51.437  38.979  1.00  0.00     0.002 A 
HETATM    2  C   UNL     1      35.162  52.002  39.104  1.00  0.00     0.034 A 
HETATM    3  C   UNL     1      34.394  51.804  40.244  1.00  0.00     0.087 A 
HETATM    4  C   UNL     1      34.919  51.011  41.301  1.00  0.00     0.087 A 
HETATM    5  N   UNL     1      34.215  50.787  42.429  1.00  0.00    -0.232 NA
HETATM    6  C   UNL     1      33.007  51.379  42.512  1.00  0.00     0.164 A 
HETATM    7 CL   UNL     1      32.163  51.048  43.969  1.00  0.00    -0.059 Cl
HETATM    8  C   UNL     1      32.493  52.147  41.483  1.00  0.00     0.165 A 
HETATM    9  N   UNL     1      33.167  52.358  40.325  1.00  0.00    -0.234 NA
HETATM   10  C   UNL     1      36.183  50.453  41.161  1.00  0.00     0.034 A 
HETATM   11  C   UNL     1      36.943  50.659  40.009  1.00  0.00     0.002 A 
ENDROOT
BRANCH   8  12
HETATM   12  S   UNL     1      30.889  52.938  41.526  1.00  0.00     0.076 S 
HETATM   13  O   UNL     1      31.037  54.324  40.970  1.00  0.00    -0.251 OA
BRANCH  12  14
HETATM   14  C   UNL     1      30.021  51.947  40.243  1.00  0.00     0.089 C 
HETATM   15  C   UNL     1      28.581  52.395  39.962  1.00  0.00     0.045 C 
HETATM   16  C   UNL     1      27.614  52.087  41.096  1.00  0.00     0.233 C 
HETATM   17  N   UNL     1      27.692  50.634  41.432  1.00  0.00    -0.075 N 
HETATM   18  H   UNL     1      27.300  50.072  40.665  1.00  0.00     0.277 HD
HETATM   19  H   UNL     1      27.076  50.466  42.241  1.00  0.00     0.277 HD
HETATM   20  C   UNL     1      29.056  50.145  41.785  1.00  0.00     0.233 C 
HETATM   21  C   UNL     1      30.034  50.467  40.659  1.00  0.00     0.045 C 
ENDBRANCH  12  14
ENDBRANCH   8  12
TORSDOF 2
ENDMDL
