MODEL 1
REMARK VINA RESULT:      -9.1      0.000      0.000
REMARK  9 active torsions:
REMARK  status: ('A' for Active; 'I' for Inactive)
REMARK    1  A    between atoms: O_2  and  C_3 
REMARK    2  A    between atoms: C_3  and  C_4 
REMARK    3  A    between atoms: C_4  and  O_5 
REMARK    4  A    between atoms: O_5  and  C_6 
REMARK       I    between atoms: C_6  and  N_8 
REMARK    5  A    between atoms: N_15  and  C_28 
REMARK    6  A    between atoms: N_18  and  C_19 
REMARK    7  A    between atoms: C_19  and  C_20 
REMARK    8  A    between atoms: C_24  and  O_25 
REMARK    9  A    between atoms: C_31  and  C_34 
ROOT
HETATM    1  C   UNL     1      21.867  44.316  47.674  1.00  0.00     0.362 C 
HETATM    2  O   UNL     1      22.023  44.676  46.512  1.00  0.00    -0.238 OA
HETATM    3  N   UNL     1      22.918  44.155  48.587  1.00  0.00    -0.328 N 
HETATM    4  C   UNL     1      22.608  44.074  50.010  1.00  0.00     0.130 C 
HETATM    5  C   UNL     1      23.808  43.775  50.898  1.00  0.00     0.053 C 
HETATM    6  C   UNL     1      25.050  44.630  50.582  1.00  0.00     0.057 C 
HETATM    7  C   UNL     1      25.359  44.530  49.082  1.00  0.00     0.053 C 
HETATM    8  C   UNL     1      24.168  44.773  48.171  1.00  0.00     0.130 C 
HETATM    9  C   UNL     1      26.260  44.055  51.375  1.00  0.00     0.165 C 
HETATM   10  N   UNL     1      26.489  44.965  52.477  1.00  0.00    -0.297 N 
HETATM   11  C   UNL     1      25.713  46.124  52.318  1.00  0.00     0.326 C 
HETATM   12  O   UNL     1      25.687  47.122  53.022  1.00  0.00    -0.247 OA
HETATM   13  N   UNL     1      24.962  45.987  51.141  1.00  0.00    -0.318 N 
ENDROOT
BRANCH  13  14
HETATM   14  C   UNL     1      24.178  47.109  50.636  1.00  0.00     0.167 C 
BRANCH  14  15
HETATM   15  C   UNL     1      24.947  48.056  49.738  1.00  0.00    -0.037 A 
HETATM   16  C   UNL     1      26.346  48.036  49.674  1.00  0.00     0.009 A 
HETATM   17  C   UNL     1      27.032  48.946  48.869  1.00  0.00     0.003 A 
HETATM   18  C   UNL     1      26.326  49.885  48.120  1.00  0.00     0.037 A 
HETATM   19  C   UNL     1      24.934  49.931  48.175  1.00  0.00     0.068 A 
HETATM   20  C   UNL     1      24.253  49.038  49.005  1.00  0.00     0.045 A 
BRANCH  19  21
HETATM   21  O   UNL     1      24.355  50.892  47.393  1.00  0.00    -0.356 OA
HETATM   22  C   UNL     1      23.023  51.267  47.726  1.00  0.00     0.210 C 
ENDBRANCH  19  21
ENDBRANCH  14  15
ENDBRANCH  13  14
BRANCH  10  23
HETATM   23  C   UNL     1      27.567  44.793  53.395  1.00  0.00     0.039 A 
HETATM   24  C   UNL     1      28.503  43.763  53.256  1.00  0.00     0.030 A 
HETATM   25  C   UNL     1      29.504  43.547  54.215  1.00  0.00     0.014 A 
HETATM   26  C   UNL     1      29.608  44.369  55.337  1.00  0.00    -0.023 A 
HETATM   27  C   UNL     1      28.709  45.431  55.465  1.00  0.00     0.014 A 
HETATM   28  C   UNL     1      27.702  45.636  54.508  1.00  0.00     0.030 A 
BRANCH  26  29
HETATM   29  C   UNL     1      30.612  44.125  56.355  1.00  0.00     0.010 A 
HETATM   30  C   UNL     1      30.909  44.815  57.552  1.00  0.00     0.152 A 
HETATM   31  N   UNL     1      31.899  44.246  58.246  1.00  0.00    -0.187 NA
HETATM   32  N   UNL     1      32.239  43.187  57.494  1.00  0.00    -0.289 N 
HETATM   33  H   UNL     1      32.982  42.580  57.825  1.00  0.00     0.188 HD
HETATM   34  C   UNL     1      31.498  43.067  56.355  1.00  0.00     0.123 A 
ENDBRANCH  26  29
ENDBRANCH  10  23
BRANCH   1  35
HETATM   35  O   UNL     1      20.646  44.106  48.237  1.00  0.00    -0.302 OA
BRANCH  35  36
HETATM   36  C   UNL     1      19.569  44.864  47.668  1.00  0.00     0.207 C 
BRANCH  36  37
HETATM   37  C   UNL     1      19.254  46.118  48.474  1.00  0.00     0.193 C 
BRANCH  37  38
HETATM   38  O   UNL     1      19.817  47.245  47.800  1.00  0.00    -0.394 OA
HETATM   39  C   UNL     1      20.870  47.836  48.547  1.00  0.00     0.201 C 
ENDBRANCH  37  38
ENDBRANCH  36  37
ENDBRANCH  35  36
ENDBRANCH   1  35
TORSDOF 9
ENDMDL
MODEL 2
REMARK VINA RESULT:      -8.4      2.792      5.077
REMARK  9 active torsions:
REMARK  status: ('A' for Active; 'I' for Inactive)
REMARK    1  A    between atoms: O_2  and  C_3 
REMARK    2  A    between atoms: C_3  and  C_4 
REMARK    3  A    between atoms: C_4  and  O_5 
REMARK    4  A    between atoms: O_5  and  C_6 
REMARK       I    between atoms: C_6  and  N_8 
REMARK    5  A    between atoms: N_15  and  C_28 
REMARK    6  A    between atoms: N_18  and  C_19 
REMARK    7  A    between atoms: C_19  and  C_20 
REMARK    8  A    between atoms: C_24  and  O_25 
REMARK    9  A    between atoms: C_31  and  C_34 
ROOT
HETATM    1  C   UNL     1      21.812  44.850  47.856  1.00  0.00     0.362 C 
HETATM    2  O   UNL     1      21.056  43.917  47.606  1.00  0.00    -0.238 OA
HETATM    3  N   UNL     1      22.611  44.917  49.004  1.00  0.00    -0.328 N 
HETATM    4  C   UNL     1      23.716  45.870  49.037  1.00  0.00     0.130 C 
HETATM    5  C   UNL     1      24.440  45.946  50.375  1.00  0.00     0.053 C 
HETATM    6  C   UNL     1      24.787  44.572  50.978  1.00  0.00     0.057 C 
HETATM    7  C   UNL     1      23.521  43.706  51.017  1.00  0.00     0.053 C 
HETATM    8  C   UNL     1      22.750  43.652  49.710  1.00  0.00     0.130 C 
HETATM    9  C   UNL     1      25.284  44.785  52.438  1.00  0.00     0.165 C 
HETATM   10  N   UNL     1      26.721  44.615  52.405  1.00  0.00    -0.297 N 
HETATM   11  C   UNL     1      27.120  44.110  51.157  1.00  0.00     0.326 C 
HETATM   12  O   UNL     1      28.242  43.797  50.789  1.00  0.00    -0.247 OA
HETATM   13  N   UNL     1      25.975  43.964  50.360  1.00  0.00    -0.318 N 
ENDROOT
BRANCH  13  14
HETATM   14  C   UNL     1      26.065  43.310  49.059  1.00  0.00     0.167 C 
BRANCH  14  15
HETATM   15  C   UNL     1      26.398  41.833  49.124  1.00  0.00    -0.037 A 
HETATM   16  C   UNL     1      25.875  41.003  50.123  1.00  0.00     0.009 A 
HETATM   17  C   UNL     1      26.230  39.656  50.184  1.00  0.00     0.003 A 
HETATM   18  C   UNL     1      27.113  39.124  49.246  1.00  0.00     0.037 A 
HETATM   19  C   UNL     1      27.655  39.932  48.248  1.00  0.00     0.068 A 
HETATM   20  C   UNL     1      27.320  41.287  48.210  1.00  0.00     0.045 A 
BRANCH  19  21
HETATM   21  O   UNL     1      28.504  39.296  47.386  1.00  0.00    -0.356 OA
HETATM   22  C   UNL     1      27.941  38.831  46.164  1.00  0.00     0.210 C 
ENDBRANCH  19  21
ENDBRANCH  14  15
ENDBRANCH  13  14
BRANCH  10  23
HETATM   23  C   UNL     1      27.523  44.678  53.582  1.00  0.00     0.039 A 
HETATM   24  C   UNL     1      27.482  45.775  54.450  1.00  0.00     0.030 A 
HETATM   25  C   UNL     1      28.342  45.870  55.554  1.00  0.00     0.014 A 
HETATM   26  C   UNL     1      29.261  44.858  55.833  1.00  0.00    -0.023 A 
HETATM   27  C   UNL     1      29.280  43.734  55.002  1.00  0.00     0.014 A 
HETATM   28  C   UNL     1      28.426  43.650  53.891  1.00  0.00     0.030 A 
BRANCH  26  29
HETATM   29  C   UNL     1      30.184  44.968  56.947  1.00  0.00     0.010 A 
HETATM   30  C   UNL     1      31.318  44.200  57.294  1.00  0.00     0.152 A 
HETATM   31  N   UNL     1      31.931  44.651  58.392  1.00  0.00    -0.187 NA
HETATM   32  N   UNL     1      31.193  45.713  58.750  1.00  0.00    -0.289 N 
HETATM   33  H   UNL     1      31.472  46.240  59.571  1.00  0.00     0.188 HD
HETATM   34  C   UNL     1      30.138  45.948  57.917  1.00  0.00     0.123 A 
ENDBRANCH  26  29
ENDBRANCH  10  23
BRANCH   1  35
HETATM   35  O   UNL     1      22.020  45.894  47.009  1.00  0.00    -0.302 OA
BRANCH  35  36
HETATM   36  C   UNL     1      20.911  46.792  46.855  1.00  0.00     0.207 C 
BRANCH  36  37
HETATM   37  C   UNL     1      21.060  48.049  47.703  1.00  0.00     0.193 C 
BRANCH  37  38
HETATM   38  O   UNL     1      22.333  48.636  47.425  1.00  0.00    -0.394 OA
HETATM   39  C   UNL     1      22.352  50.023  47.726  1.00  0.00     0.201 C 
ENDBRANCH  37  38
ENDBRANCH  36  37
ENDBRANCH  35  36
ENDBRANCH   1  35
TORSDOF 9
ENDMDL
MODEL 3
REMARK VINA RESULT:      -8.3      2.688      4.462
REMARK  9 active torsions:
REMARK  status: ('A' for Active; 'I' for Inactive)
REMARK    1  A    between atoms: O_2  and  C_3 
REMARK    2  A    between atoms: C_3  and  C_4 
REMARK    3  A    between atoms: C_4  and  O_5 
REMARK    4  A    between atoms: O_5  and  C_6 
REMARK       I    between atoms: C_6  and  N_8 
REMARK    5  A    between atoms: N_15  and  C_28 
REMARK    6  A    between atoms: N_18  and  C_19 
REMARK    7  A    between atoms: C_19  and  C_20 
REMARK    8  A    between atoms: C_24  and  O_25 
REMARK    9  A    between atoms: C_31  and  C_34 
ROOT
HETATM    1  C   UNL     1      18.121  45.448  46.064  1.00  0.00     0.362 C 
HETATM    2  O   UNL     1      18.088  45.334  44.844  1.00  0.00    -0.238 OA
HETATM    3  N   UNL     1      19.246  45.150  46.844  1.00  0.00    -0.328 N 
HETATM    4  C   UNL     1      19.304  45.647  48.214  1.00  0.00     0.130 C 
HETATM    5  C   UNL     1      20.509  45.161  49.008  1.00  0.00     0.053 C 
HETATM    6  C   UNL     1      21.845  45.274  48.250  1.00  0.00     0.057 C 
HETATM    7  C   UNL     1      21.703  44.600  46.879  1.00  0.00     0.053 C 
HETATM    8  C   UNL     1      20.481  45.027  46.085  1.00  0.00     0.130 C 
HETATM    9  C   UNL     1      22.939  44.519  49.061  1.00  0.00     0.165 C 
HETATM   10  N   UNL     1      23.747  45.538  49.696  1.00  0.00    -0.297 N 
HETATM   11  C   UNL     1      23.411  46.806  49.192  1.00  0.00     0.326 C 
HETATM   12  O   UNL     1      23.918  47.886  49.457  1.00  0.00    -0.247 OA
HETATM   13  N   UNL     1      22.384  46.642  48.251  1.00  0.00    -0.318 N 
ENDROOT
BRANCH  13  14
HETATM   14  C   UNL     1      21.940  47.775  47.446  1.00  0.00     0.167 C 
BRANCH  14  15
HETATM   15  C   UNL     1      21.427  48.952  48.250  1.00  0.00    -0.037 A 
HETATM   16  C   UNL     1      21.953  50.240  48.086  1.00  0.00     0.009 A 
HETATM   17  C   UNL     1      21.491  51.299  48.867  1.00  0.00     0.003 A 
HETATM   18  C   UNL     1      20.499  51.081  49.822  1.00  0.00     0.037 A 
HETATM   19  C   UNL     1      19.968  49.807  50.010  1.00  0.00     0.068 A 
HETATM   20  C   UNL     1      20.455  48.744  49.246  1.00  0.00     0.045 A 
BRANCH  19  21
HETATM   21  O   UNL     1      18.999  49.720  50.971  1.00  0.00    -0.356 OA
HETATM   22  C   UNL     1      18.499  48.418  51.256  1.00  0.00     0.210 C 
ENDBRANCH  19  21
ENDBRANCH  14  15
ENDBRANCH  13  14
BRANCH  10  23
HETATM   23  C   UNL     1      24.894  45.222  50.481  1.00  0.00     0.039 A 
HETATM   24  C   UNL     1      26.152  45.012  49.906  1.00  0.00     0.030 A 
HETATM   25  C   UNL     1      27.253  44.610  50.677  1.00  0.00     0.014 A 
HETATM   26  C   UNL     1      27.131  44.421  52.053  1.00  0.00    -0.023 A 
HETATM   27  C   UNL     1      25.892  44.672  52.649  1.00  0.00     0.014 A 
HETATM   28  C   UNL     1      24.790  45.063  51.871  1.00  0.00     0.030 A 
BRANCH  26  29
HETATM   29  C   UNL     1      28.253  43.963  52.851  1.00  0.00     0.010 A 
HETATM   30  C   UNL     1      29.348  43.131  52.524  1.00  0.00     0.152 A 
HETATM   31  N   UNL     1      30.200  42.974  53.541  1.00  0.00    -0.187 NA
HETATM   32  N   UNL     1      29.654  43.708  54.523  1.00  0.00    -0.289 N 
HETATM   33  H   UNL     1      30.134  43.752  55.416  1.00  0.00     0.188 HD
HETATM   34  C   UNL     1      28.490  44.323  54.161  1.00  0.00     0.123 A 
ENDBRANCH  26  29
ENDBRANCH  10  23
BRANCH   1  35
HETATM   35  O   UNL     1      17.092  45.953  46.798  1.00  0.00    -0.302 OA
BRANCH  35  36
HETATM   36  C   UNL     1      16.706  47.296  46.474  1.00  0.00     0.207 C 
BRANCH  36  37
HETATM   37  C   UNL     1      16.446  48.140  47.715  1.00  0.00     0.193 C 
BRANCH  37  38
HETATM   38  O   UNL     1      17.315  49.274  47.684  1.00  0.00    -0.394 OA
HETATM   39  C   UNL     1      18.108  49.300  46.506  1.00  0.00     0.201 C 
ENDBRANCH  37  38
ENDBRANCH  36  37
ENDBRANCH  35  36
ENDBRANCH   1  35
TORSDOF 9
ENDMDL
MODEL 4
REMARK VINA RESULT:      -8.2      3.225      5.053
REMARK  9 active torsions:
REMARK  status: ('A' for Active; 'I' for Inactive)
REMARK    1  A    between atoms: O_2  and  C_3 
REMARK    2  A    between atoms: C_3  and  C_4 
REMARK    3  A    between atoms: C_4  and  O_5 
REMARK    4  A    between atoms: O_5  and  C_6 
REMARK       I    between atoms: C_6  and  N_8 
REMARK    5  A    between atoms: N_15  and  C_28 
REMARK    6  A    between atoms: N_18  and  C_19 
REMARK    7  A    between atoms: C_19  and  C_20 
REMARK    8  A    between atoms: C_24  and  O_25 
REMARK    9  A    between atoms: C_31  and  C_34 
ROOT
HETATM    1  C   UNL     1      18.368  47.695  46.067  1.00  0.00     0.362 C 
HETATM    2  O   UNL     1      18.314  47.755  44.844  1.00  0.00    -0.238 OA
HETATM    3  N   UNL     1      19.431  47.116  46.772  1.00  0.00    -0.328 N 
HETATM    4  C   UNL     1      19.573  47.407  48.195  1.00  0.00     0.130 C 
HETATM    5  C   UNL     1      20.685  46.629  48.886  1.00  0.00     0.053 C 
HETATM    6  C   UNL     1      22.020  46.627  48.117  1.00  0.00     0.057 C 
HETATM    7  C   UNL     1      21.766  46.177  46.673  1.00  0.00     0.053 C 
HETATM    8  C   UNL     1      20.628  46.899  45.973  1.00  0.00     0.130 C 
HETATM    9  C   UNL     1      22.977  45.602  48.793  1.00  0.00     0.165 C 
HETATM   10  N   UNL     1      23.943  46.381  49.539  1.00  0.00    -0.297 N 
HETATM   11  C   UNL     1      23.818  47.743  49.217  1.00  0.00     0.326 C 
HETATM   12  O   UNL     1      24.495  48.681  49.611  1.00  0.00    -0.247 OA
HETATM   13  N   UNL     1      22.775  47.877  48.288  1.00  0.00    -0.318 N 
ENDROOT
BRANCH  13  14
HETATM   14  C   UNL     1      22.520  49.165  47.652  1.00  0.00     0.167 C 
BRANCH  14  15
HETATM   15  C   UNL     1      21.500  50.026  48.369  1.00  0.00    -0.037 A 
HETATM   16  C   UNL     1      21.561  50.242  49.752  1.00  0.00     0.009 A 
HETATM   17  C   UNL     1      20.587  51.006  50.394  1.00  0.00     0.003 A 
HETATM   18  C   UNL     1      19.540  51.561  49.660  1.00  0.00     0.037 A 
HETATM   19  C   UNL     1      19.452  51.352  48.285  1.00  0.00     0.068 A 
HETATM   20  C   UNL     1      20.414  50.562  47.651  1.00  0.00     0.045 A 
BRANCH  19  21
HETATM   21  O   UNL     1      18.385  51.950  47.675  1.00  0.00    -0.356 OA
HETATM   22  C   UNL     1      17.275  52.275  48.507  1.00  0.00     0.210 C 
ENDBRANCH  19  21
ENDBRANCH  14  15
ENDBRANCH  13  14
BRANCH  10  23
HETATM   23  C   UNL     1      25.024  45.780  50.246  1.00  0.00     0.039 A 
HETATM   24  C   UNL     1      26.235  45.462  49.620  1.00  0.00     0.030 A 
HETATM   25  C   UNL     1      27.258  44.786  50.301  1.00  0.00     0.014 A 
HETATM   26  C   UNL     1      27.106  44.422  51.639  1.00  0.00    -0.023 A 
HETATM   27  C   UNL     1      25.921  44.775  52.291  1.00  0.00     0.014 A 
HETATM   28  C   UNL     1      24.895  45.441  51.601  1.00  0.00     0.030 A 
BRANCH  26  29
HETATM   29  C   UNL     1      28.141  43.684  52.339  1.00  0.00     0.010 A 
HETATM   30  C   UNL     1      28.798  43.939  53.564  1.00  0.00     0.152 A 
HETATM   31  N   UNL     1      29.678  42.987  53.886  1.00  0.00    -0.187 NA
HETATM   32  N   UNL     1      29.586  42.117  52.868  1.00  0.00    -0.289 N 
HETATM   33  H   UNL     1      30.168  41.286  52.890  1.00  0.00     0.188 HD
HETATM   34  C   UNL     1      28.679  42.486  51.917  1.00  0.00     0.123 A 
ENDBRANCH  26  29
ENDBRANCH  10  23
BRANCH   1  35
HETATM   35  O   UNL     1      17.437  48.255  46.887  1.00  0.00    -0.302 OA
BRANCH  35  36
HETATM   36  C   UNL     1      16.597  49.246  46.277  1.00  0.00     0.207 C 
BRANCH  36  37
HETATM   37  C   UNL     1      15.305  49.467  47.053  1.00  0.00     0.193 C 
BRANCH  37  38
HETATM   38  O   UNL     1      14.509  48.285  46.956  1.00  0.00    -0.394 OA
HETATM   39  C   UNL     1      13.830  48.205  45.711  1.00  0.00     0.201 C 
ENDBRANCH  37  38
ENDBRANCH  36  37
ENDBRANCH  35  36
ENDBRANCH   1  35
TORSDOF 9
ENDMDL
MODEL 5
REMARK VINA RESULT:      -8.1      2.010      3.427
REMARK  9 active torsions:
REMARK  status: ('A' for Active; 'I' for Inactive)
REMARK    1  A    between atoms: O_2  and  C_3 
REMARK    2  A    between atoms: C_3  and  C_4 
REMARK    3  A    between atoms: C_4  and  O_5 
REMARK    4  A    between atoms: O_5  and  C_6 
REMARK       I    between atoms: C_6  and  N_8 
REMARK    5  A    between atoms: N_15  and  C_28 
REMARK    6  A    between atoms: N_18  and  C_19 
REMARK    7  A    between atoms: C_19  and  C_20 
REMARK    8  A    between atoms: C_24  and  O_25 
REMARK    9  A    between atoms: C_31  and  C_34 
ROOT
HETATM    1  C   UNL     1      20.120  44.584  46.117  1.00  0.00     0.362 C 
HETATM    2  O   UNL     1      20.403  44.409  44.936  1.00  0.00    -0.238 OA
HETATM    3  N   UNL     1      21.046  44.479  47.163  1.00  0.00    -0.328 N 
HETATM    4  C   UNL     1      20.702  45.043  48.464  1.00  0.00     0.130 C 
HETATM    5  C   UNL     1      21.724  44.764  49.558  1.00  0.00     0.053 C 
HETATM    6  C   UNL     1      23.183  45.024  49.134  1.00  0.00     0.057 C 
HETATM    7  C   UNL     1      23.466  44.273  47.827  1.00  0.00     0.053 C 
HETATM    8  C   UNL     1      22.436  44.491  46.733  1.00  0.00     0.130 C 
HETATM    9  C   UNL     1      24.125  44.465  50.240  1.00  0.00     0.165 C 
HETATM   10  N   UNL     1      24.622  45.614  50.967  1.00  0.00    -0.297 N 
HETATM   11  C   UNL     1      24.269  46.798  50.299  1.00  0.00     0.326 C 
HETATM   12  O   UNL     1      24.560  47.948  50.592  1.00  0.00    -0.247 OA
HETATM   13  N   UNL     1      23.534  46.451  49.156  1.00  0.00    -0.318 N 
ENDROOT
BRANCH  13  14
HETATM   14  C   UNL     1      23.168  47.474  48.182  1.00  0.00     0.167 C 
BRANCH  14  15
HETATM   15  C   UNL     1      22.324  48.600  48.742  1.00  0.00    -0.037 A 
HETATM   16  C   UNL     1      22.857  49.876  48.971  1.00  0.00     0.009 A 
HETATM   17  C   UNL     1      22.070  50.884  49.526  1.00  0.00     0.003 A 
HETATM   18  C   UNL     1      20.741  50.628  49.859  1.00  0.00     0.037 A 
HETATM   19  C   UNL     1      20.191  49.364  49.650  1.00  0.00     0.068 A 
HETATM   20  C   UNL     1      20.992  48.349  49.122  1.00  0.00     0.045 A 
BRANCH  19  21
HETATM   21  O   UNL     1      18.878  49.237  50.011  1.00  0.00    -0.356 OA
HETATM   22  C   UNL     1      18.620  48.621  51.269  1.00  0.00     0.210 C 
ENDBRANCH  19  21
ENDBRANCH  14  15
ENDBRANCH  13  14
BRANCH  10  23
HETATM   23  C   UNL     1      25.569  45.494  52.025  1.00  0.00     0.039 A 
HETATM   24  C   UNL     1      25.585  46.378  53.110  1.00  0.00     0.030 A 
HETATM   25  C   UNL     1      26.579  46.309  54.098  1.00  0.00     0.014 A 
HETATM   26  C   UNL     1      27.579  45.339  54.038  1.00  0.00    -0.023 A 
HETATM   27  C   UNL     1      27.548  44.419  52.987  1.00  0.00     0.014 A 
HETATM   28  C   UNL     1      26.559  44.500  51.993  1.00  0.00     0.030 A 
BRANCH  26  29
HETATM   29  C   UNL     1      28.636  45.288  55.032  1.00  0.00     0.010 A 
HETATM   30  C   UNL     1      29.701  44.377  55.210  1.00  0.00     0.152 A 
HETATM   31  N   UNL     1      30.492  44.701  56.237  1.00  0.00    -0.187 NA
HETATM   32  N   UNL     1      29.936  45.824  56.719  1.00  0.00    -0.289 N 
HETATM   33  H   UNL     1      30.373  46.275  57.516  1.00  0.00     0.188 HD
HETATM   34  C   UNL     1      28.825  46.220  56.031  1.00  0.00     0.123 A 
ENDBRANCH  26  29
ENDBRANCH  10  23
BRANCH   1  35
HETATM   35  O   UNL     1      18.888  44.976  46.541  1.00  0.00    -0.302 OA
BRANCH  35  36
HETATM   36  C   UNL     1      18.326  46.096  45.843  1.00  0.00     0.207 C 
BRANCH  36  37
HETATM   37  C   UNL     1      18.390  47.381  46.661  1.00  0.00     0.193 C 
BRANCH  37  38
HETATM   38  O   UNL     1      17.070  47.706  47.101  1.00  0.00    -0.394 OA
HETATM   39  C   UNL     1      16.744  47.057  48.321  1.00  0.00     0.201 C 
ENDBRANCH  37  38
ENDBRANCH  36  37
ENDBRANCH  35  36
ENDBRANCH   1  35
TORSDOF 9
ENDMDL
MODEL 6
REMARK VINA RESULT:      -8.1      4.097      9.737
REMARK  9 active torsions:
REMARK  status: ('A' for Active; 'I' for Inactive)
REMARK    1  A    between atoms: O_2  and  C_3 
REMARK    2  A    between atoms: C_3  and  C_4 
REMARK    3  A    between atoms: C_4  and  O_5 
REMARK    4  A    between atoms: O_5  and  C_6 
REMARK       I    between atoms: C_6  and  N_8 
REMARK    5  A    between atoms: N_15  and  C_28 
REMARK    6  A    between atoms: N_18  and  C_19 
REMARK    7  A    between atoms: C_19  and  C_20 
REMARK    8  A    between atoms: C_24  and  O_25 
REMARK    9  A    between atoms: C_31  and  C_34 
ROOT
HETATM    1  C   UNL     1      25.975  40.917  49.977  1.00  0.00     0.362 C 
HETATM    2  O   UNL     1      26.111  40.400  51.081  1.00  0.00    -0.238 OA
HETATM    3  N   UNL     1      25.105  41.984  49.719  1.00  0.00    -0.328 N 
HETATM    4  C   UNL     1      25.274  42.748  48.488  1.00  0.00     0.130 C 
HETATM    5  C   UNL     1      24.200  43.801  48.250  1.00  0.00     0.053 C 
HETATM    6  C   UNL     1      23.893  44.672  49.483  1.00  0.00     0.057 C 
HETATM    7  C   UNL     1      23.600  43.760  50.681  1.00  0.00     0.053 C 
HETATM    8  C   UNL     1      24.628  42.666  50.913  1.00  0.00     0.130 C 
HETATM    9  C   UNL     1      22.622  45.519  49.185  1.00  0.00     0.165 C 
HETATM   10  N   UNL     1      23.085  46.866  48.927  1.00  0.00    -0.297 N 
HETATM   11  C   UNL     1      24.447  46.980  49.250  1.00  0.00     0.326 C 
HETATM   12  O   UNL     1      25.156  47.974  49.209  1.00  0.00    -0.247 OA
HETATM   13  N   UNL     1      24.895  45.727  49.696  1.00  0.00    -0.318 N 
ENDROOT
BRANCH  13  14
HETATM   14  C   UNL     1      26.236  45.583  50.250  1.00  0.00     0.167 C 
BRANCH  14  15
HETATM   15  C   UNL     1      26.322  45.803  51.747  1.00  0.00    -0.037 A 
HETATM   16  C   UNL     1      25.717  46.905  52.365  1.00  0.00     0.009 A 
HETATM   17  C   UNL     1      25.846  47.107  53.739  1.00  0.00     0.003 A 
HETATM   18  C   UNL     1      26.580  46.208  54.510  1.00  0.00     0.037 A 
HETATM   19  C   UNL     1      27.199  45.109  53.917  1.00  0.00     0.068 A 
HETATM   20  C   UNL     1      27.093  44.928  52.536  1.00  0.00     0.045 A 
BRANCH  19  21
HETATM   21  O   UNL     1      27.886  44.298  54.777  1.00  0.00    -0.356 OA
HETATM   22  C   UNL     1      29.175  44.746  55.183  1.00  0.00     0.210 C 
ENDBRANCH  19  21
ENDBRANCH  14  15
ENDBRANCH  13  14
BRANCH  10  23
HETATM   23  C   UNL     1      22.188  47.945  48.673  1.00  0.00     0.039 A 
HETATM   24  C   UNL     1      22.170  49.098  49.466  1.00  0.00     0.030 A 
HETATM   25  C   UNL     1      21.222  50.112  49.265  1.00  0.00     0.014 A 
HETATM   26  C   UNL     1      20.270  50.009  48.250  1.00  0.00    -0.023 A 
HETATM   27  C   UNL     1      20.306  48.886  47.420  1.00  0.00     0.014 A 
HETATM   28  C   UNL     1      21.249  47.867  47.633  1.00  0.00     0.030 A 
BRANCH  26  29
HETATM   29  C   UNL     1      19.259  51.032  48.063  1.00  0.00     0.010 A 
HETATM   30  C   UNL     1      17.972  50.973  47.483  1.00  0.00     0.152 A 
HETATM   31  N   UNL     1      17.326  52.141  47.536  1.00  0.00    -0.187 NA
HETATM   32  N   UNL     1      18.198  52.953  48.154  1.00  0.00    -0.289 N 
HETATM   33  H   UNL     1      17.924  53.916  48.320  1.00  0.00     0.188 HD
HETATM   34  C   UNL     1      19.368  52.339  48.494  1.00  0.00     0.123 A 
ENDBRANCH  26  29
ENDBRANCH  10  23
BRANCH   1  35
HETATM   35  O   UNL     1      26.713  40.566  48.889  1.00  0.00    -0.302 OA
BRANCH  35  36
HETATM   36  C   UNL     1      27.138  39.196  48.850  1.00  0.00     0.207 C 
BRANCH  36  37
HETATM   37  C   UNL     1      28.651  39.055  48.961  1.00  0.00     0.193 C 
BRANCH  37  38
HETATM   38  O   UNL     1      28.995  38.923  50.341  1.00  0.00    -0.394 OA
HETATM   39  C   UNL     1      29.979  37.919  50.547  1.00  0.00     0.201 C 
ENDBRANCH  37  38
ENDBRANCH  36  37
ENDBRANCH  35  36
ENDBRANCH   1  35
TORSDOF 9
ENDMDL
MODEL 7
REMARK VINA RESULT:      -7.8     11.880     13.844
REMARK  9 active torsions:
REMARK  status: ('A' for Active; 'I' for Inactive)
REMARK    1  A    between atoms: O_2  and  C_3 
REMARK    2  A    between atoms: C_3  and  C_4 
REMARK    3  A    between atoms: C_4  and  O_5 
REMARK    4  A    between atoms: O_5  and  C_6 
REMARK       I    between atoms: C_6  and  N_8 
REMARK    5  A    between atoms: N_15  and  C_28 
REMARK    6  A    between atoms: N_18  and  C_19 
REMARK    7  A    between atoms: C_19  and  C_20 
REMARK    8  A    between atoms: C_24  and  O_25 
REMARK    9  A    between atoms: C_31  and  C_34 
ROOT
HETATM    1  C   UNL     1      30.729  47.968  39.306  1.00  0.00     0.362 C 
HETATM    2  O   UNL     1      29.974  48.422  38.453  1.00  0.00    -0.238 OA
HETATM    3  N   UNL     1      31.836  48.661  39.814  1.00  0.00    -0.328 N 
HETATM    4  C   UNL     1      32.449  48.195  41.053  1.00  0.00     0.130 C 
HETATM    5  C   UNL     1      33.717  48.943  41.446  1.00  0.00     0.053 C 
HETATM    6  C   UNL     1      33.594  50.476  41.351  1.00  0.00     0.057 C 
HETATM    7  C   UNL     1      33.068  50.852  39.960  1.00  0.00     0.053 C 
HETATM    8  C   UNL     1      31.833  50.086  39.519  1.00  0.00     0.130 C 
HETATM    9  C   UNL     1      35.011  51.096  41.528  1.00  0.00     0.165 C 
HETATM   10  N   UNL     1      35.047  51.647  42.866  1.00  0.00    -0.297 N 
HETATM   11  C   UNL     1      33.761  51.630  43.431  1.00  0.00     0.326 C 
HETATM   12  O   UNL     1      33.405  52.059  44.519  1.00  0.00    -0.247 OA
HETATM   13  N   UNL     1      32.883  51.060  42.498  1.00  0.00    -0.318 N 
ENDROOT
BRANCH  13  14
HETATM   14  C   UNL     1      31.446  51.056  42.750  1.00  0.00     0.167 C 
BRANCH  14  15
HETATM   15  C   UNL     1      30.636  51.880  41.770  1.00  0.00    -0.037 A 
HETATM   16  C   UNL     1      31.001  53.189  41.431  1.00  0.00     0.009 A 
HETATM   17  C   UNL     1      30.216  53.941  40.557  1.00  0.00     0.003 A 
HETATM   18  C   UNL     1      29.056  53.391  40.014  1.00  0.00     0.037 A 
HETATM   19  C   UNL     1      28.667  52.094  40.344  1.00  0.00     0.068 A 
HETATM   20  C   UNL     1      29.440  51.357  41.242  1.00  0.00     0.045 A 
BRANCH  19  21
HETATM   21  O   UNL     1      27.515  51.666  39.744  1.00  0.00    -0.356 OA
HETATM   22  C   UNL     1      27.637  51.154  38.421  1.00  0.00     0.210 C 
ENDBRANCH  19  21
ENDBRANCH  14  15
ENDBRANCH  13  14
BRANCH  10  23
HETATM   23  C   UNL     1      36.177  52.356  43.368  1.00  0.00     0.039 A 
HETATM   24  C   UNL     1      36.649  52.173  44.672  1.00  0.00     0.030 A 
HETATM   25  C   UNL     1      37.703  52.943  45.186  1.00  0.00     0.014 A 
HETATM   26  C   UNL     1      38.329  53.911  44.402  1.00  0.00    -0.023 A 
HETATM   27  C   UNL     1      37.899  54.073  43.082  1.00  0.00     0.014 A 
HETATM   28  C   UNL     1      36.836  53.308  42.576  1.00  0.00     0.030 A 
BRANCH  26  29
HETATM   29  C   UNL     1      39.390  54.742  44.939  1.00  0.00     0.010 A 
HETATM   30  C   UNL     1      40.206  55.720  44.327  1.00  0.00     0.152 A 
HETATM   31  N   UNL     1      41.054  56.296  45.184  1.00  0.00    -0.187 NA
HETATM   32  N   UNL     1      40.781  55.690  46.350  1.00  0.00    -0.289 N 
HETATM   33  H   UNL     1      41.305  55.970  47.173  1.00  0.00     0.188 HD
HETATM   34  C   UNL     1      39.792  54.754  46.259  1.00  0.00     0.123 A 
ENDBRANCH  26  29
ENDBRANCH  10  23
BRANCH   1  35
HETATM   35  O   UNL     1      30.535  46.767  39.917  1.00  0.00    -0.302 OA
BRANCH  35  36
HETATM   36  C   UNL     1      29.438  45.992  39.415  1.00  0.00     0.207 C 
BRANCH  36  37
HETATM   37  C   UNL     1      28.224  46.043  40.334  1.00  0.00     0.193 C 
BRANCH  37  38
HETATM   38  O   UNL     1      27.308  47.015  39.825  1.00  0.00    -0.394 OA
HETATM   39  C   UNL     1      27.199  48.139  40.685  1.00  0.00     0.201 C 
ENDBRANCH  37  38
ENDBRANCH  36  37
ENDBRANCH  35  36
ENDBRANCH   1  35
TORSDOF 9
ENDMDL
MODEL 8
REMARK VINA RESULT:      -7.7      7.089     12.711
REMARK  9 active torsions:
REMARK  status: ('A' for Active; 'I' for Inactive)
REMARK    1  A    between atoms: O_2  and  C_3 
REMARK    2  A    between atoms: C_3  and  C_4 
REMARK    3  A    between atoms: C_4  and  O_5 
REMARK    4  A    between atoms: O_5  and  C_6 
REMARK       I    between atoms: C_6  and  N_8 
REMARK    5  A    between atoms: N_15  and  C_28 
REMARK    6  A    between atoms: N_18  and  C_19 
REMARK    7  A    between atoms: C_19  and  C_20 
REMARK    8  A    between atoms: C_24  and  O_25 
REMARK    9  A    between atoms: C_31  and  C_34 
ROOT
HETATM    1  C   UNL     1      19.149  45.643  47.128  1.00  0.00     0.362 C 
HETATM    2  O   UNL     1      19.013  44.577  47.718  1.00  0.00    -0.238 OA
HETATM    3  N   UNL     1      18.286  46.735  47.285  1.00  0.00    -0.328 N 
HETATM    4  C   UNL     1      18.724  48.049  46.825  1.00  0.00     0.130 C 
HETATM    5  C   UNL     1      17.663  49.136  46.931  1.00  0.00     0.053 C 
HETATM    6  C   UNL     1      16.928  49.165  48.285  1.00  0.00     0.057 C 
HETATM    7  C   UNL     1      16.397  47.760  48.598  1.00  0.00     0.053 C 
HETATM    8  C   UNL     1      17.420  46.648  48.451  1.00  0.00     0.130 C 
HETATM    9  C   UNL     1      15.717  50.137  48.168  1.00  0.00     0.165 C 
HETATM   10  N   UNL     1      16.096  51.342  48.875  1.00  0.00    -0.297 N 
HETATM   11  C   UNL     1      17.290  51.131  49.585  1.00  0.00     0.326 C 
HETATM   12  O   UNL     1      17.876  51.903  50.329  1.00  0.00    -0.247 OA
HETATM   13  N   UNL     1      17.714  49.816  49.343  1.00  0.00    -0.318 N 
ENDROOT
BRANCH  13  14
HETATM   14  C   UNL     1      18.848  49.265  50.077  1.00  0.00     0.167 C 
BRANCH  14  15
HETATM   15  C   UNL     1      20.198  49.553  49.454  1.00  0.00    -0.037 A 
HETATM   16  C   UNL     1      20.559  50.843  49.043  1.00  0.00     0.009 A 
HETATM   17  C   UNL     1      21.793  51.074  48.435  1.00  0.00     0.003 A 
HETATM   18  C   UNL     1      22.678  50.018  48.230  1.00  0.00     0.037 A 
HETATM   19  C   UNL     1      22.338  48.724  48.620  1.00  0.00     0.068 A 
HETATM   20  C   UNL     1      21.089  48.492  49.202  1.00  0.00     0.045 A 
BRANCH  19  21
HETATM   21  O   UNL     1      23.289  47.775  48.371  1.00  0.00    -0.356 OA
HETATM   22  C   UNL     1      24.009  47.281  49.496  1.00  0.00     0.210 C 
ENDBRANCH  19  21
ENDBRANCH  14  15
ENDBRANCH  13  14
BRANCH  10  23
HETATM   23  C   UNL     1      15.206  52.443  49.034  1.00  0.00     0.039 A 
HETATM   24  C   UNL     1      14.908  53.315  47.981  1.00  0.00     0.030 A 
HETATM   25  C   UNL     1      14.105  54.449  48.172  1.00  0.00     0.014 A 
HETATM   26  C   UNL     1      13.561  54.737  49.423  1.00  0.00    -0.023 A 
HETATM   27  C   UNL     1      13.811  53.850  50.474  1.00  0.00     0.014 A 
HETATM   28  C   UNL     1      14.625  52.722  50.281  1.00  0.00     0.030 A 
BRANCH  26  29
HETATM   29  C   UNL     1      12.766  55.931  49.640  1.00  0.00     0.010 A 
HETATM   30  C   UNL     1      12.132  56.429  50.801  1.00  0.00     0.152 A 
HETATM   31  N   UNL     1      11.518  57.597  50.594  1.00  0.00    -0.187 NA
HETATM   32  N   UNL     1      11.758  57.853  49.299  1.00  0.00    -0.289 N 
HETATM   33  H   UNL     1      11.390  58.710  48.901  1.00  0.00     0.188 HD
HETATM   34  C   UNL     1      12.503  56.889  48.683  1.00  0.00     0.123 A 
ENDBRANCH  26  29
ENDBRANCH  10  23
BRANCH   1  35
HETATM   35  O   UNL     1      20.200  45.917  46.308  1.00  0.00    -0.302 OA
BRANCH  35  36
HETATM   36  C   UNL     1      20.393  44.993  45.227  1.00  0.00     0.207 C 
BRANCH  36  37
HETATM   37  C   UNL     1      21.571  44.057  45.467  1.00  0.00     0.193 C 
BRANCH  37  38
HETATM   38  O   UNL     1      22.626  44.802  46.078  1.00  0.00    -0.394 OA
HETATM   39  C   UNL     1      23.061  44.204  47.290  1.00  0.00     0.201 C 
ENDBRANCH  37  38
ENDBRANCH  36  37
ENDBRANCH  35  36
ENDBRANCH   1  35
TORSDOF 9
ENDMDL
MODEL 9
REMARK VINA RESULT:      -7.6      3.579     10.418
REMARK  9 active torsions:
REMARK  status: ('A' for Active; 'I' for Inactive)
REMARK    1  A    between atoms: O_2  and  C_3 
REMARK    2  A    between atoms: C_3  and  C_4 
REMARK    3  A    between atoms: C_4  and  O_5 
REMARK    4  A    between atoms: O_5  and  C_6 
REMARK       I    between atoms: C_6  and  N_8 
REMARK    5  A    between atoms: N_15  and  C_28 
REMARK    6  A    between atoms: N_18  and  C_19 
REMARK    7  A    between atoms: C_19  and  C_20 
REMARK    8  A    between atoms: C_24  and  O_25 
REMARK    9  A    between atoms: C_31  and  C_34 
ROOT
HETATM    1  C   UNL     1      28.597  43.809  53.063  1.00  0.00     0.362 C 
HETATM    2  O   UNL     1      29.546  43.144  52.662  1.00  0.00    -0.238 OA
HETATM    3  N   UNL     1      27.666  44.425  52.217  1.00  0.00    -0.328 N 
HETATM    4  C   UNL     1      26.399  44.882  52.780  1.00  0.00     0.130 C 
HETATM    5  C   UNL     1      25.517  45.646  51.801  1.00  0.00     0.053 C 
HETATM    6  C   UNL     1      25.376  44.969  50.425  1.00  0.00     0.057 C 
HETATM    7  C   UNL     1      26.773  44.657  49.873  1.00  0.00     0.053 C 
HETATM    8  C   UNL     1      27.694  43.940  50.845  1.00  0.00     0.130 C 
HETATM    9  C   UNL     1      24.673  45.963  49.455  1.00  0.00     0.165 C 
HETATM   10  N   UNL     1      23.312  45.491  49.309  1.00  0.00    -0.297 N 
HETATM   11  C   UNL     1      23.175  44.220  49.892  1.00  0.00     0.326 C 
HETATM   12  O   UNL     1      22.190  43.498  49.914  1.00  0.00    -0.247 OA
HETATM   13  N   UNL     1      24.415  43.856  50.437  1.00  0.00    -0.318 N 
ENDROOT
BRANCH  13  14
HETATM   14  C   UNL     1      24.615  42.513  50.971  1.00  0.00     0.167 C 
BRANCH  14  15
HETATM   15  C   UNL     1      25.199  41.526  49.982  1.00  0.00    -0.037 A 
HETATM   16  C   UNL     1      24.725  41.434  48.667  1.00  0.00     0.009 A 
HETATM   17  C   UNL     1      25.252  40.488  47.787  1.00  0.00     0.003 A 
HETATM   18  C   UNL     1      26.259  39.624  48.213  1.00  0.00     0.037 A 
HETATM   19  C   UNL     1      26.740  39.690  49.520  1.00  0.00     0.068 A 
HETATM   20  C   UNL     1      26.188  40.618  50.405  1.00  0.00     0.045 A 
BRANCH  19  21
HETATM   21  O   UNL     1      27.730  38.794  49.817  1.00  0.00    -0.356 OA
HETATM   22  C   UNL     1      28.878  38.810  48.976  1.00  0.00     0.210 C 
ENDBRANCH  19  21
ENDBRANCH  14  15
ENDBRANCH  13  14
BRANCH  10  23
HETATM   23  C   UNL     1      22.376  46.122  48.439  1.00  0.00     0.039 A 
HETATM   24  C   UNL     1      21.886  47.410  48.685  1.00  0.00     0.030 A 
HETATM   25  C   UNL     1      20.896  47.985  47.875  1.00  0.00     0.014 A 
HETATM   26  C   UNL     1      20.376  47.293  46.781  1.00  0.00    -0.023 A 
HETATM   27  C   UNL     1      20.890  46.025  46.495  1.00  0.00     0.014 A 
HETATM   28  C   UNL     1      21.872  45.449  47.316  1.00  0.00     0.030 A 
BRANCH  26  29
HETATM   29  C   UNL     1      19.321  47.863  45.964  1.00  0.00     0.010 A 
HETATM   30  C   UNL     1      18.634  47.349  44.842  1.00  0.00     0.152 A 
HETATM   31  N   UNL     1      17.690  48.179  44.388  1.00  0.00    -0.187 NA
HETATM   32  N   UNL     1      17.769  49.228  45.222  1.00  0.00    -0.289 N 
HETATM   33  H   UNL     1      17.131  50.004  45.081  1.00  0.00     0.188 HD
HETATM   34  C   UNL     1      18.726  49.088  46.185  1.00  0.00     0.123 A 
ENDBRANCH  26  29
ENDBRANCH  10  23
BRANCH   1  35
HETATM   35  O   UNL     1      28.293  43.962  54.381  1.00  0.00    -0.302 OA
BRANCH  35  36
HETATM   36  C   UNL     1      29.273  44.662  55.160  1.00  0.00     0.207 C 
BRANCH  36  37
HETATM   37  C   UNL     1      28.674  45.834  55.928  1.00  0.00     0.193 C 
BRANCH  37  38
HETATM   38  O   UNL     1      28.673  46.982  55.077  1.00  0.00    -0.394 OA
HETATM   39  C   UNL     1      27.392  47.590  55.011  1.00  0.00     0.201 C 
ENDBRANCH  37  38
ENDBRANCH  36  37
ENDBRANCH  35  36
ENDBRANCH   1  35
TORSDOF 9
ENDMDL
MODEL 10
REMARK VINA RESULT:      -7.5      6.078     10.055
REMARK  9 active torsions:
REMARK  status: ('A' for Active; 'I' for Inactive)
REMARK    1  A    between atoms: O_2  and  C_3 
REMARK    2  A    between atoms: C_3  and  C_4 
REMARK    3  A    between atoms: C_4  and  O_5 
REMARK    4  A    between atoms: O_5  and  C_6 
REMARK       I    between atoms: C_6  and  N_8 
REMARK    5  A    between atoms: N_15  and  C_28 
REMARK    6  A    between atoms: N_18  and  C_19 
REMARK    7  A    between atoms: C_19  and  C_20 
REMARK    8  A    between atoms: C_24  and  O_25 
REMARK    9  A    between atoms: C_31  and  C_34 
ROOT
HETATM    1  C   UNL     1      13.935  50.038  44.805  1.00  0.00     0.362 C 
HETATM    2  O   UNL     1      13.290  51.075  44.699  1.00  0.00    -0.238 OA
HETATM    3  N   UNL     1      15.298  49.998  45.125  1.00  0.00    -0.328 N 
HETATM    4  C   UNL     1      15.879  48.736  45.571  1.00  0.00     0.130 C 
HETATM    5  C   UNL     1      17.389  48.776  45.771  1.00  0.00     0.053 C 
HETATM    6  C   UNL     1      17.883  50.002  46.564  1.00  0.00     0.057 C 
HETATM    7  C   UNL     1      17.317  51.276  45.923  1.00  0.00     0.053 C 
HETATM    8  C   UNL     1      15.821  51.245  45.663  1.00  0.00     0.130 C 
HETATM    9  C   UNL     1      19.436  50.053  46.476  1.00  0.00     0.165 C 
HETATM   10  N   UNL     1      19.929  49.605  47.761  1.00  0.00    -0.297 N 
HETATM   11  C   UNL     1      18.869  49.504  48.677  1.00  0.00     0.326 C 
HETATM   12  O   UNL     1      18.915  49.207  49.862  1.00  0.00    -0.247 OA
HETATM   13  N   UNL     1      17.684  49.857  48.013  1.00  0.00    -0.318 N 
ENDROOT
BRANCH  13  14
HETATM   14  C   UNL     1      16.439  49.996  48.760  1.00  0.00     0.167 C 
BRANCH  14  15
HETATM   15  C   UNL     1      16.184  51.389  49.300  1.00  0.00    -0.037 A 
HETATM   16  C   UNL     1      17.213  52.332  49.416  1.00  0.00     0.009 A 
HETATM   17  C   UNL     1      16.960  53.594  49.954  1.00  0.00     0.003 A 
HETATM   18  C   UNL     1      15.676  53.925  50.382  1.00  0.00     0.037 A 
HETATM   19  C   UNL     1      14.638  53.000  50.286  1.00  0.00     0.068 A 
HETATM   20  C   UNL     1      14.903  51.728  49.774  1.00  0.00     0.045 A 
BRANCH  19  21
HETATM   21  O   UNL     1      13.425  53.443  50.734  1.00  0.00    -0.356 OA
HETATM   22  C   UNL     1      12.947  54.664  50.179  1.00  0.00     0.210 C 
ENDBRANCH  19  21
ENDBRANCH  14  15
ENDBRANCH  13  14
BRANCH  10  23
HETATM   23  C   UNL     1      21.318  49.576  48.077  1.00  0.00     0.039 A 
HETATM   24  C   UNL     1      22.138  50.700  47.924  1.00  0.00     0.030 A 
HETATM   25  C   UNL     1      23.521  50.636  48.148  1.00  0.00     0.014 A 
HETATM   26  C   UNL     1      24.125  49.444  48.549  1.00  0.00    -0.023 A 
HETATM   27  C   UNL     1      23.313  48.325  48.752  1.00  0.00     0.014 A 
HETATM   28  C   UNL     1      21.930  48.392  48.515  1.00  0.00     0.030 A 
BRANCH  26  29
HETATM   29  C   UNL     1      25.561  49.357  48.741  1.00  0.00     0.010 A 
HETATM   30  C   UNL     1      26.351  48.416  49.437  1.00  0.00     0.152 A 
HETATM   31  N   UNL     1      27.659  48.670  49.346  1.00  0.00    -0.187 NA
HETATM   32  N   UNL     1      27.711  49.776  48.587  1.00  0.00    -0.289 N 
HETATM   33  H   UNL     1      28.622  50.166  48.367  1.00  0.00     0.188 HD
HETATM   34  C   UNL     1      26.484  50.226  48.196  1.00  0.00     0.123 A 
ENDBRANCH  26  29
ENDBRANCH  10  23
BRANCH   1  35
HETATM   35  O   UNL     1      13.383  48.798  44.701  1.00  0.00    -0.302 OA
BRANCH  35  36
HETATM   36  C   UNL     1      12.573  48.582  43.537  1.00  0.00     0.207 C 
BRANCH  36  37
HETATM   37  C   UNL     1      12.829  47.223  42.896  1.00  0.00     0.193 C 
BRANCH  37  38
HETATM   38  O   UNL     1      12.822  46.229  43.922  1.00  0.00    -0.394 OA
HETATM   39  C   UNL     1      13.145  44.943  43.414  1.00  0.00     0.201 C 
ENDBRANCH  37  38
ENDBRANCH  36  37
ENDBRANCH  35  36
ENDBRANCH   1  35
TORSDOF 9
ENDMDL
