MODEL 1
REMARK VINA RESULT:      -9.3      0.000      0.000
REMARK  5 active torsions:
REMARK  status: ('A' for Active; 'I' for Inactive)
REMARK    1  A    between atoms: C_3  and  O_4 
REMARK    2  A    between atoms: O_4  and  C_5 
REMARK    3  A    between atoms: C_5  and  C_6 
REMARK       I    between atoms: C_6  and  N_7 
REMARK    4  A    between atoms: N_7  and  N_8 
REMARK    5  A    between atoms: C_9  and  C_10 
ROOT
HETATM    1  C   UNL     1      25.637  45.350  52.382  1.00  0.00     0.261 C 
HETATM    2  N   UNL     1      26.285  46.504  51.941  1.00  0.00    -0.246 N 
HETATM    3  O   UNL     1      24.468  45.060  52.144  1.00  0.00    -0.269 OA
HETATM    4  H   UNL     1      27.261  46.665  52.164  1.00  0.00     0.192 HD
ENDROOT
BRANCH   2   5
HETATM    5  N   UNL     1      25.610  47.426  51.194  1.00  0.00    -0.184 NA
HETATM    6  C   UNL     1      26.149  47.731  50.058  1.00  0.00     0.152 C 
BRANCH   6   7
HETATM    7  C   UNL     1      25.515  48.701  49.192  1.00  0.00     0.011 A 
HETATM    8  C   UNL     1      24.116  48.833  48.917  1.00  0.00     0.004 A 
HETATM    9  C   UNL     1      23.965  49.903  48.031  1.00  0.00     0.043 A 
HETATM   10  C   UNL     1      22.957  48.147  49.339  1.00  0.00     0.014 A 
HETATM   11  C   UNL     1      22.718  50.319  47.549  1.00  0.00     0.030 A 
HETATM   12  N   UNL     1      25.222  50.400  47.777  1.00  0.00    -0.364 N 
HETATM   13  C   UNL     1      21.588  49.622  47.984  1.00  0.00     0.002 A 
HETATM   14  C   UNL     1      21.703  48.551  48.866  1.00  0.00     0.001 A 
HETATM   15  H   UNL     1      25.420  51.182  47.167  1.00  0.00     0.165 HD
HETATM   16  C   UNL     1      26.160  49.688  48.470  1.00  0.00     0.102 A 
ENDBRANCH   6   7
ENDBRANCH   2   5
BRANCH   1  17
HETATM   17  C   UNL     1      26.580  44.464  53.200  1.00  0.00     0.280 C 
BRANCH  17  18
HETATM   18  O   UNL     1      27.937  44.555  52.773  1.00  0.00    -0.341 OA
BRANCH  18  19
HETATM   19  C   UNL     1      28.791  44.312  53.819  1.00  0.00     0.081 A 
HETATM   20  C   UNL     1      28.915  45.246  54.861  1.00  0.00    -0.027 A 
HETATM   21  C   UNL     1      28.131  46.526  54.877  1.00  0.00     0.051 C 
HETATM   22  C   UNL     1      29.825  44.981  55.894  1.00  0.00     0.028 A 
HETATM   23  C   UNL     1      30.555  43.794  55.901  1.00  0.00     0.012 A 
HETATM   24  C   UNL     1      30.389  42.850  54.888  1.00  0.00     0.028 A 
HETATM   25 BR   UNL     1      31.780  43.456  57.302  1.00  0.00    -0.051 Br
HETATM   26  C   UNL     1      29.490  43.093  53.842  1.00  0.00    -0.027 A 
HETATM   27  C   UNL     1      29.313  42.077  52.748  1.00  0.00     0.051 C 
ENDBRANCH  18  19
ENDBRANCH  17  18
ENDBRANCH   1  17
TORSDOF 5
ENDMDL
MODEL 2
REMARK VINA RESULT:      -9.3      1.521      2.325
REMARK  5 active torsions:
REMARK  status: ('A' for Active; 'I' for Inactive)
REMARK    1  A    between atoms: C_3  and  O_4 
REMARK    2  A    between atoms: O_4  and  C_5 
REMARK    3  A    between atoms: C_5  and  C_6 
REMARK       I    between atoms: C_6  and  N_7 
REMARK    4  A    between atoms: N_7  and  N_8 
REMARK    5  A    between atoms: C_9  and  C_10 
ROOT
HETATM    1  C   UNL     1      26.595  44.050  50.166  1.00  0.00     0.261 C 
HETATM    2  N   UNL     1      27.371  45.207  50.084  1.00  0.00    -0.246 N 
HETATM    3  O   UNL     1      25.534  43.868  49.577  1.00  0.00    -0.269 OA
HETATM    4  H   UNL     1      28.249  45.276  50.587  1.00  0.00     0.192 HD
ENDROOT
BRANCH   2   5
HETATM    5  N   UNL     1      26.959  46.257  49.316  1.00  0.00    -0.184 NA
HETATM    6  C   UNL     1      26.481  47.271  49.963  1.00  0.00     0.152 C 
BRANCH   6   7
HETATM    7  C   UNL     1      26.012  48.435  49.240  1.00  0.00     0.011 A 
HETATM    8  C   UNL     1      24.654  48.840  49.036  1.00  0.00     0.004 A 
HETATM    9  C   UNL     1      24.679  50.018  48.287  1.00  0.00     0.043 A 
HETATM   10  C   UNL     1      23.400  48.318  49.420  1.00  0.00     0.014 A 
HETATM   11  C   UNL     1      23.517  50.699  47.904  1.00  0.00     0.030 A 
HETATM   12  N   UNL     1      26.000  50.317  48.044  1.00  0.00    -0.364 N 
HETATM   13  C   UNL     1      22.289  50.161  48.299  1.00  0.00     0.002 A 
HETATM   14  C   UNL     1      22.228  48.987  49.046  1.00  0.00     0.001 A 
HETATM   15  H   UNL     1      26.322  51.121  47.522  1.00  0.00     0.165 HD
HETATM   16  C   UNL     1      26.809  49.374  48.613  1.00  0.00     0.102 A 
ENDBRANCH   6   7
ENDBRANCH   2   5
BRANCH   1  17
HETATM   17  C   UNL     1      27.247  43.010  51.081  1.00  0.00     0.280 C 
BRANCH  17  18
HETATM   18  O   UNL     1      26.732  43.039  52.410  1.00  0.00    -0.341 OA
BRANCH  18  19
HETATM   19  C   UNL     1      27.725  43.341  53.307  1.00  0.00     0.081 A 
HETATM   20  C   UNL     1      28.704  42.385  53.625  1.00  0.00    -0.027 A 
HETATM   21  C   UNL     1      28.709  41.017  53.006  1.00  0.00     0.051 C 
HETATM   22  C   UNL     1      29.681  42.716  54.574  1.00  0.00     0.028 A 
HETATM   23  C   UNL     1      29.698  43.984  55.153  1.00  0.00     0.012 A 
HETATM   24  C   UNL     1      28.751  44.944  54.794  1.00  0.00     0.028 A 
HETATM   25 BR   UNL     1      31.023  44.411  56.433  1.00  0.00    -0.051 Br
HETATM   26  C   UNL     1      27.761  44.635  53.852  1.00  0.00    -0.027 A 
HETATM   27  C   UNL     1      26.739  45.668  53.468  1.00  0.00     0.051 C 
ENDBRANCH  18  19
ENDBRANCH  17  18
ENDBRANCH   1  17
TORSDOF 5
ENDMDL
MODEL 3
REMARK VINA RESULT:      -9.1      4.239      9.859
REMARK  5 active torsions:
REMARK  status: ('A' for Active; 'I' for Inactive)
REMARK    1  A    between atoms: C_3  and  O_4 
REMARK    2  A    between atoms: O_4  and  C_5 
REMARK    3  A    between atoms: C_5  and  C_6 
REMARK       I    between atoms: C_6  and  N_7 
REMARK    4  A    between atoms: N_7  and  N_8 
REMARK    5  A    between atoms: C_9  and  C_10 
ROOT
HETATM    1  C   UNL     1      24.412  47.858  49.915  1.00  0.00     0.261 C 
HETATM    2  N   UNL     1      24.409  47.122  51.101  1.00  0.00    -0.246 N 
HETATM    3  O   UNL     1      25.296  48.635  49.566  1.00  0.00    -0.269 OA
HETATM    4  H   UNL     1      23.649  46.485  51.310  1.00  0.00     0.192 HD
ENDROOT
BRANCH   2   5
HETATM    5  N   UNL     1      25.438  47.248  51.988  1.00  0.00    -0.184 NA
HETATM    6  C   UNL     1      25.604  46.253  52.799  1.00  0.00     0.152 C 
BRANCH   6   7
HETATM    7  C   UNL     1      26.667  46.290  53.781  1.00  0.00     0.011 A 
HETATM    8  C   UNL     1      27.644  45.275  54.039  1.00  0.00     0.004 A 
HETATM    9  C   UNL     1      28.467  45.742  55.067  1.00  0.00     0.043 A 
HETATM   10  C   UNL     1      27.913  44.002  53.493  1.00  0.00     0.014 A 
HETATM   11  C   UNL     1      29.542  45.001  55.574  1.00  0.00     0.030 A 
HETATM   12  N   UNL     1      28.007  46.989  55.422  1.00  0.00    -0.364 N 
HETATM   13  C   UNL     1      29.786  43.744  55.014  1.00  0.00     0.002 A 
HETATM   14  C   UNL     1      28.985  43.249  53.989  1.00  0.00     0.001 A 
HETATM   15  H   UNL     1      28.413  47.569  56.143  1.00  0.00     0.165 HD
HETATM   16  C   UNL     1      26.927  47.329  54.655  1.00  0.00     0.102 A 
ENDBRANCH   6   7
ENDBRANCH   2   5
BRANCH   1  17
HETATM   17  C   UNL     1      23.165  47.563  49.077  1.00  0.00     0.280 C 
BRANCH  17  18
HETATM   18  O   UNL     1      23.061  48.395  47.924  1.00  0.00    -0.341 OA
BRANCH  18  19
HETATM   19  C   UNL     1      21.944  49.188  47.998  1.00  0.00     0.081 A 
HETATM   20  C   UNL     1      22.062  50.543  48.348  1.00  0.00    -0.027 A 
HETATM   21  C   UNL     1      23.392  51.172  48.648  1.00  0.00     0.051 C 
HETATM   22  C   UNL     1      20.896  51.314  48.450  1.00  0.00     0.028 A 
HETATM   23  C   UNL     1      19.653  50.749  48.167  1.00  0.00     0.012 A 
HETATM   24  C   UNL     1      19.550  49.416  47.772  1.00  0.00     0.028 A 
HETATM   25 BR   UNL     1      18.090  51.804  48.313  1.00  0.00    -0.051 Br
HETATM   26  C   UNL     1      20.700  48.623  47.667  1.00  0.00    -0.027 A 
HETATM   27  C   UNL     1      20.589  47.185  47.244  1.00  0.00     0.051 C 
ENDBRANCH  18  19
ENDBRANCH  17  18
ENDBRANCH   1  17
TORSDOF 5
ENDMDL
MODEL 4
REMARK VINA RESULT:      -8.8      1.559      2.675
REMARK  5 active torsions:
REMARK  status: ('A' for Active; 'I' for Inactive)
REMARK    1  A    between atoms: C_3  and  O_4 
REMARK    2  A    between atoms: O_4  and  C_5 
REMARK    3  A    between atoms: C_5  and  C_6 
REMARK       I    between atoms: C_6  and  N_7 
REMARK    4  A    between atoms: N_7  and  N_8 
REMARK    5  A    between atoms: C_9  and  C_10 
ROOT
HETATM    1  C   UNL     1      25.624  43.914  52.296  1.00  0.00     0.261 C 
HETATM    2  N   UNL     1      25.891  44.337  50.993  1.00  0.00    -0.246 N 
HETATM    3  O   UNL     1      24.517  43.915  52.828  1.00  0.00    -0.269 OA
HETATM    4  H   UNL     1      26.831  44.288  50.617  1.00  0.00     0.192 HD
ENDROOT
BRANCH   2   5
HETATM    5  N   UNL     1      24.882  44.815  50.207  1.00  0.00    -0.184 NA
HETATM    6  C   UNL     1      24.756  46.102  50.179  1.00  0.00     0.152 C 
BRANCH   6   7
HETATM    7  C   UNL     1      23.714  46.710  49.378  1.00  0.00     0.011 A 
HETATM    8  C   UNL     1      23.641  48.070  48.936  1.00  0.00     0.004 A 
HETATM    9  C   UNL     1      22.467  48.204  48.192  1.00  0.00     0.043 A 
HETATM   10  C   UNL     1      24.466  49.204  49.094  1.00  0.00     0.014 A 
HETATM   11  C   UNL     1      22.077  49.412  47.600  1.00  0.00     0.030 A 
HETATM   12  N   UNL     1      21.848  46.975  48.184  1.00  0.00    -0.364 N 
HETATM   13  C   UNL     1      22.914  50.518  47.771  1.00  0.00     0.002 A 
HETATM   14  C   UNL     1      24.091  50.419  48.507  1.00  0.00     0.001 A 
HETATM   15  H   UNL     1      20.974  46.773  47.718  1.00  0.00     0.165 HD
HETATM   16  C   UNL     1      22.589  46.070  48.891  1.00  0.00     0.102 A 
ENDBRANCH   6   7
ENDBRANCH   2   5
BRANCH   1  17
HETATM   17  C   UNL     1      26.897  43.422  52.990  1.00  0.00     0.280 C 
BRANCH  17  18
HETATM   18  O   UNL     1      28.007  44.295  52.797  1.00  0.00    -0.341 OA
BRANCH  18  19
HETATM   19  C   UNL     1      28.811  44.309  53.909  1.00  0.00     0.081 A 
HETATM   20  C   UNL     1      29.822  43.347  54.061  1.00  0.00    -0.027 A 
HETATM   21  C   UNL     1      30.065  42.280  53.033  1.00  0.00     0.051 C 
HETATM   22  C   UNL     1      30.599  43.370  55.228  1.00  0.00     0.028 A 
HETATM   23  C   UNL     1      30.394  44.358  56.190  1.00  0.00     0.012 A 
HETATM   24  C   UNL     1      29.421  45.340  56.006  1.00  0.00     0.028 A 
HETATM   25 BR   UNL     1      31.451  44.371  57.758  1.00  0.00    -0.051 Br
HETATM   26  C   UNL     1      28.628  45.335  54.852  1.00  0.00    -0.027 A 
HETATM   27  C   UNL     1      27.577  46.391  54.655  1.00  0.00     0.051 C 
ENDBRANCH  18  19
ENDBRANCH  17  18
ENDBRANCH   1  17
TORSDOF 5
ENDMDL
MODEL 5
REMARK VINA RESULT:      -8.6      3.929      9.739
REMARK  5 active torsions:
REMARK  status: ('A' for Active; 'I' for Inactive)
REMARK    1  A    between atoms: C_3  and  O_4 
REMARK    2  A    between atoms: O_4  and  C_5 
REMARK    3  A    between atoms: C_5  and  C_6 
REMARK       I    between atoms: C_6  and  N_7 
REMARK    4  A    between atoms: N_7  and  N_8 
REMARK    5  A    between atoms: C_9  and  C_10 
ROOT
HETATM    1  C   UNL     1      25.257  46.317  50.127  1.00  0.00     0.261 C 
HETATM    2  N   UNL     1      25.465  45.995  51.469  1.00  0.00    -0.246 N 
HETATM    3  O   UNL     1      26.027  46.053  49.208  1.00  0.00    -0.269 OA
HETATM    4  H   UNL     1      24.772  46.231  52.170  1.00  0.00     0.192 HD
ENDROOT
BRANCH   2   5
HETATM    5  N   UNL     1      26.605  45.348  51.850  1.00  0.00    -0.184 NA
HETATM    6  C   UNL     1      26.474  44.506  52.824  1.00  0.00     0.152 C 
BRANCH   6   7
HETATM    7  C   UNL     1      27.624  43.770  53.305  1.00  0.00     0.011 A 
HETATM    8  C   UNL     1      28.585  44.201  54.275  1.00  0.00     0.004 A 
HETATM    9  C   UNL     1      29.513  43.169  54.429  1.00  0.00     0.043 A 
HETATM   10  C   UNL     1      28.755  45.372  55.043  1.00  0.00     0.014 A 
HETATM   11  C   UNL     1      30.599  43.249  55.309  1.00  0.00     0.030 A 
HETATM   12  N   UNL     1      29.132  42.151  53.584  1.00  0.00    -0.364 N 
HETATM   13  C   UNL     1      30.742  44.419  56.059  1.00  0.00     0.002 A 
HETATM   14  C   UNL     1      29.835  45.468  55.930  1.00  0.00     0.001 A 
HETATM   15  H   UNL     1      29.622  41.272  53.484  1.00  0.00     0.165 HD
HETATM   16  C   UNL     1      27.998  42.501  52.906  1.00  0.00     0.102 A 
ENDBRANCH   6   7
ENDBRANCH   2   5
BRANCH   1  17
HETATM   17  C   UNL     1      23.920  47.039  49.933  1.00  0.00     0.280 C 
BRANCH  17  18
HETATM   18  O   UNL     1      23.685  47.415  48.578  1.00  0.00    -0.341 OA
BRANCH  18  19
HETATM   19  C   UNL     1      22.802  48.463  48.513  1.00  0.00     0.081 A 
HETATM   20  C   UNL     1      23.278  49.783  48.441  1.00  0.00    -0.027 A 
HETATM   21  C   UNL     1      24.745  50.098  48.431  1.00  0.00     0.051 C 
HETATM   22  C   UNL     1      22.346  50.830  48.414  1.00  0.00     0.028 A 
HETATM   23  C   UNL     1      20.979  50.556  48.414  1.00  0.00     0.012 A 
HETATM   24  C   UNL     1      20.517  49.241  48.435  1.00  0.00     0.028 A 
HETATM   25 BR   UNL     1      19.739  51.983  48.379  1.00  0.00    -0.051 Br
HETATM   26  C   UNL     1      21.427  48.177  48.468  1.00  0.00    -0.027 A 
HETATM   27  C   UNL     1      20.929  46.759  48.493  1.00  0.00     0.051 C 
ENDBRANCH  18  19
ENDBRANCH  17  18
ENDBRANCH   1  17
TORSDOF 5
ENDMDL
MODEL 6
REMARK VINA RESULT:      -8.6      3.669      9.388
REMARK  5 active torsions:
REMARK  status: ('A' for Active; 'I' for Inactive)
REMARK    1  A    between atoms: C_3  and  O_4 
REMARK    2  A    between atoms: O_4  and  C_5 
REMARK    3  A    between atoms: C_5  and  C_6 
REMARK       I    between atoms: C_6  and  N_7 
REMARK    4  A    between atoms: N_7  and  N_8 
REMARK    5  A    between atoms: C_9  and  C_10 
ROOT
HETATM    1  C   UNL     1      25.499  44.328  51.565  1.00  0.00     0.261 C 
HETATM    2  N   UNL     1      26.488  45.088  52.191  1.00  0.00    -0.246 N 
HETATM    3  O   UNL     1      25.489  43.103  51.492  1.00  0.00    -0.269 OA
HETATM    4  H   UNL     1      26.417  46.098  52.227  1.00  0.00     0.192 HD
ENDROOT
BRANCH   2   5
HETATM    5  N   UNL     1      27.561  44.474  52.771  1.00  0.00    -0.184 NA
HETATM    6  C   UNL     1      27.904  44.925  53.934  1.00  0.00     0.152 C 
BRANCH   6   7
HETATM    7  C   UNL     1      29.030  44.344  54.632  1.00  0.00     0.011 A 
HETATM    8  C   UNL     1      29.590  44.768  55.880  1.00  0.00     0.004 A 
HETATM    9  C   UNL     1      30.659  43.917  56.169  1.00  0.00     0.043 A 
HETATM   10  C   UNL     1      29.288  45.796  56.798  1.00  0.00     0.014 A 
HETATM   11  C   UNL     1      31.438  44.041  57.325  1.00  0.00     0.030 A 
HETATM   12  N   UNL     1      30.747  43.011  55.136  1.00  0.00    -0.364 N 
HETATM   13  C   UNL     1      31.115  45.067  58.218  1.00  0.00     0.002 A 
HETATM   14  C   UNL     1      30.057  45.934  57.961  1.00  0.00     0.001 A 
HETATM   15  H   UNL     1      31.433  42.271  55.077  1.00  0.00     0.165 HD
HETATM   16  C   UNL     1      29.773  43.257  54.209  1.00  0.00     0.102 A 
ENDBRANCH   6   7
ENDBRANCH   2   5
BRANCH   1  17
HETATM   17  C   UNL     1      24.399  45.221  50.985  1.00  0.00     0.280 C 
BRANCH  17  18
HETATM   18  O   UNL     1      24.622  45.560  49.618  1.00  0.00    -0.341 OA
BRANCH  18  19
HETATM   19  C   UNL     1      24.029  46.759  49.314  1.00  0.00     0.081 A 
HETATM   20  C   UNL     1      24.748  47.958  49.451  1.00  0.00    -0.027 A 
HETATM   21  C   UNL     1      26.172  47.979  49.926  1.00  0.00     0.051 C 
HETATM   22  C   UNL     1      24.097  49.167  49.167  1.00  0.00     0.028 A 
HETATM   23  C   UNL     1      22.778  49.166  48.716  1.00  0.00     0.012 A 
HETATM   24  C   UNL     1      22.088  47.968  48.535  1.00  0.00     0.028 A 
HETATM   25 BR   UNL     1      21.917  50.807  48.339  1.00  0.00    -0.051 Br
HETATM   26  C   UNL     1      22.714  46.747  48.817  1.00  0.00    -0.027 A 
HETATM   27  C   UNL     1      21.970  45.456  48.625  1.00  0.00     0.051 C 
ENDBRANCH  18  19
ENDBRANCH  17  18
ENDBRANCH   1  17
TORSDOF 5
ENDMDL
MODEL 7
REMARK VINA RESULT:      -8.5      2.142      3.301
REMARK  5 active torsions:
REMARK  status: ('A' for Active; 'I' for Inactive)
REMARK    1  A    between atoms: C_3  and  O_4 
REMARK    2  A    between atoms: O_4  and  C_5 
REMARK    3  A    between atoms: C_5  and  C_6 
REMARK       I    between atoms: C_6  and  N_7 
REMARK    4  A    between atoms: N_7  and  N_8 
REMARK    5  A    between atoms: C_9  and  C_10 
ROOT
HETATM    1  C   UNL     1      24.895  46.598  50.774  1.00  0.00     0.261 C 
HETATM    2  N   UNL     1      24.506  47.825  50.235  1.00  0.00    -0.246 N 
HETATM    3  O   UNL     1      24.425  45.508  50.464  1.00  0.00    -0.269 OA
HETATM    4  H   UNL     1      24.956  48.684  50.529  1.00  0.00     0.192 HD
ENDROOT
BRANCH   2   5
HETATM    5  N   UNL     1      23.518  47.878  49.294  1.00  0.00    -0.184 NA
HETATM    6  C   UNL     1      22.644  48.819  49.452  1.00  0.00     0.152 C 
BRANCH   6   7
HETATM    7  C   UNL     1      21.554  48.958  48.510  1.00  0.00     0.011 A 
HETATM    8  C   UNL     1      20.681  50.083  48.355  1.00  0.00     0.004 A 
HETATM    9  C   UNL     1      19.785  49.776  47.329  1.00  0.00     0.043 A 
HETATM   10  C   UNL     1      20.568  51.339  48.988  1.00  0.00     0.014 A 
HETATM   11  C   UNL     1      18.784  50.660  46.905  1.00  0.00     0.030 A 
HETATM   12  N   UNL     1      20.098  48.514  46.879  1.00  0.00    -0.364 N 
HETATM   13  C   UNL     1      18.696  51.897  47.548  1.00  0.00     0.002 A 
HETATM   14  C   UNL     1      19.573  52.235  48.575  1.00  0.00     0.001 A 
HETATM   15  H   UNL     1      19.614  48.031  46.135  1.00  0.00     0.165 HD
HETATM   16  C   UNL     1      21.160  48.015  47.580  1.00  0.00     0.102 A 
ENDBRANCH   6   7
ENDBRANCH   2   5
BRANCH   1  17
HETATM   17  C   UNL     1      26.012  46.777  51.807  1.00  0.00     0.280 C 
BRANCH  17  18
HETATM   18  O   UNL     1      25.679  46.237  53.084  1.00  0.00    -0.341 OA
BRANCH  18  19
HETATM   19  C   UNL     1      26.804  45.786  53.727  1.00  0.00     0.081 A 
HETATM   20  C   UNL     1      27.475  46.614  54.641  1.00  0.00    -0.027 A 
HETATM   21  C   UNL     1      27.000  48.004  54.950  1.00  0.00     0.051 C 
HETATM   22  C   UNL     1      28.642  46.133  55.250  1.00  0.00     0.028 A 
HETATM   23  C   UNL     1      29.094  44.841  54.982  1.00  0.00     0.012 A 
HETATM   24  C   UNL     1      28.392  44.008  54.112  1.00  0.00     0.028 A 
HETATM   25 BR   UNL     1      30.671  44.210  55.813  1.00  0.00    -0.051 Br
HETATM   26  C   UNL     1      27.227  44.468  53.486  1.00  0.00    -0.027 A 
HETATM   27  C   UNL     1      26.472  43.570  52.545  1.00  0.00     0.051 C 
ENDBRANCH  18  19
ENDBRANCH  17  18
ENDBRANCH   1  17
TORSDOF 5
ENDMDL
MODEL 8
REMARK VINA RESULT:      -8.4      1.840      2.321
REMARK  5 active torsions:
REMARK  status: ('A' for Active; 'I' for Inactive)
REMARK    1  A    between atoms: C_3  and  O_4 
REMARK    2  A    between atoms: O_4  and  C_5 
REMARK    3  A    between atoms: C_5  and  C_6 
REMARK       I    between atoms: C_6  and  N_7 
REMARK    4  A    between atoms: N_7  and  N_8 
REMARK    5  A    between atoms: C_9  and  C_10 
ROOT
HETATM    1  C   UNL     1      25.754  44.739  50.691  1.00  0.00     0.261 C 
HETATM    2  N   UNL     1      25.107  45.974  50.742  1.00  0.00    -0.246 N 
HETATM    3  O   UNL     1      25.445  43.808  49.953  1.00  0.00    -0.269 OA
HETATM    4  H   UNL     1      25.434  46.703  51.366  1.00  0.00     0.192 HD
ENDROOT
BRANCH   2   5
HETATM    5  N   UNL     1      24.028  46.217  49.941  1.00  0.00    -0.184 NA
HETATM    6  C   UNL     1      23.834  47.456  49.622  1.00  0.00     0.152 C 
BRANCH   6   7
HETATM    7  C   UNL     1      22.715  47.819  48.779  1.00  0.00     0.011 A 
HETATM    8  C   UNL     1      22.023  49.072  48.749  1.00  0.00     0.004 A 
HETATM    9  C   UNL     1      21.018  48.970  47.784  1.00  0.00     0.043 A 
HETATM   10  C   UNL     1      22.156  50.290  49.449  1.00  0.00     0.014 A 
HETATM   11  C   UNL     1      20.143  50.022  47.485  1.00  0.00     0.030 A 
HETATM   12  N   UNL     1      21.094  47.704  47.250  1.00  0.00    -0.364 N 
HETATM   13  C   UNL     1      20.298  51.217  48.192  1.00  0.00     0.002 A 
HETATM   14  C   UNL     1      21.289  51.352  49.161  1.00  0.00     0.001 A 
HETATM   15  H   UNL     1      20.487  47.348  46.525  1.00  0.00     0.165 HD
HETATM   16  C   UNL     1      22.111  47.005  47.838  1.00  0.00     0.102 A 
ENDBRANCH   6   7
ENDBRANCH   2   5
BRANCH   1  17
HETATM   17  C   UNL     1      26.929  44.690  51.671  1.00  0.00     0.280 C 
BRANCH  17  18
HETATM   18  O   UNL     1      26.592  44.071  52.911  1.00  0.00    -0.341 OA
BRANCH  18  19
HETATM   19  C   UNL     1      27.682  44.030  53.744  1.00  0.00     0.081 A 
HETATM   20  C   UNL     1      28.006  45.144  54.536  1.00  0.00    -0.027 A 
HETATM   21  C   UNL     1      27.188  46.403  54.509  1.00  0.00     0.051 C 
HETATM   22  C   UNL     1      29.147  45.080  55.347  1.00  0.00     0.028 A 
HETATM   23  C   UNL     1      29.914  43.916  55.393  1.00  0.00     0.012 A 
HETATM   24  C   UNL     1      29.556  42.798  54.640  1.00  0.00     0.028 A 
HETATM   25 BR   UNL     1      31.452  43.850  56.491  1.00  0.00    -0.051 Br
HETATM   26  C   UNL     1      28.423  42.839  53.818  1.00  0.00    -0.027 A 
HETATM   27  C   UNL     1      28.038  41.635  53.004  1.00  0.00     0.051 C 
ENDBRANCH  18  19
ENDBRANCH  17  18
ENDBRANCH   1  17
TORSDOF 5
ENDMDL
MODEL 9
REMARK VINA RESULT:      -8.2      5.182      7.513
REMARK  5 active torsions:
REMARK  status: ('A' for Active; 'I' for Inactive)
REMARK    1  A    between atoms: C_3  and  O_4 
REMARK    2  A    between atoms: O_4  and  C_5 
REMARK    3  A    between atoms: C_5  and  C_6 
REMARK       I    between atoms: C_6  and  N_7 
REMARK    4  A    between atoms: N_7  and  N_8 
REMARK    5  A    between atoms: C_9  and  C_10 
ROOT
HETATM    1  C   UNL     1      26.750  42.439  51.792  1.00  0.00     0.261 C 
HETATM    2  N   UNL     1      27.640  41.403  51.505  1.00  0.00    -0.246 N 
HETATM    3  O   UNL     1      25.778  42.747  51.107  1.00  0.00    -0.269 OA
HETATM    4  H   UNL     1      28.410  41.196  52.131  1.00  0.00     0.192 HD
ENDROOT
BRANCH   2   5
HETATM    5  N   UNL     1      27.474  40.648  50.380  1.00  0.00    -0.184 NA
HETATM    6  C   UNL     1      28.478  39.901  50.053  1.00  0.00     0.152 C 
BRANCH   6   7
HETATM    7  C   UNL     1      28.405  39.065  48.874  1.00  0.00     0.011 A 
HETATM    8  C   UNL     1      28.276  39.493  47.513  1.00  0.00     0.004 A 
HETATM    9  C   UNL     1      28.248  38.347  46.717  1.00  0.00     0.043 A 
HETATM   10  C   UNL     1      28.186  40.750  46.879  1.00  0.00     0.014 A 
HETATM   11  C   UNL     1      28.133  38.394  45.322  1.00  0.00     0.030 A 
HETATM   12  N   UNL     1      28.352  37.263  47.559  1.00  0.00    -0.364 N 
HETATM   13  C   UNL     1      28.046  39.652  44.720  1.00  0.00     0.002 A 
HETATM   14  C   UNL     1      28.071  40.815  45.485  1.00  0.00     0.001 A 
HETATM   15  H   UNL     1      28.359  36.299  47.258  1.00  0.00     0.165 HD
HETATM   16  C   UNL     1      28.449  37.683  48.856  1.00  0.00     0.102 A 
ENDBRANCH   6   7
ENDBRANCH   2   5
BRANCH   1  17
HETATM   17  C   UNL     1      27.127  43.148  53.095  1.00  0.00     0.280 C 
BRANCH  17  18
HETATM   18  O   UNL     1      28.048  44.219  52.898  1.00  0.00    -0.341 OA
BRANCH  18  19
HETATM   19  C   UNL     1      28.604  44.606  54.091  1.00  0.00     0.081 A 
HETATM   20  C   UNL     1      28.005  45.622  54.853  1.00  0.00    -0.027 A 
HETATM   21  C   UNL     1      26.752  46.317  54.405  1.00  0.00     0.051 C 
HETATM   22  C   UNL     1      28.622  46.016  56.048  1.00  0.00     0.028 A 
HETATM   23  C   UNL     1      29.781  45.377  56.486  1.00  0.00     0.012 A 
HETATM   24  C   UNL     1      30.341  44.334  55.747  1.00  0.00     0.028 A 
HETATM   25 BR   UNL     1      30.600  45.924  58.100  1.00  0.00    -0.051 Br
HETATM   26  C   UNL     1      29.746  43.926  54.547  1.00  0.00    -0.027 A 
HETATM   27  C   UNL     1      30.351  42.804  53.750  1.00  0.00     0.051 C 
ENDBRANCH  18  19
ENDBRANCH  17  18
ENDBRANCH   1  17
TORSDOF 5
ENDMDL
MODEL 10
REMARK VINA RESULT:      -8.2      4.322     10.054
REMARK  5 active torsions:
REMARK  status: ('A' for Active; 'I' for Inactive)
REMARK    1  A    between atoms: C_3  and  O_4 
REMARK    2  A    between atoms: O_4  and  C_5 
REMARK    3  A    between atoms: C_5  and  C_6 
REMARK       I    between atoms: C_6  and  N_7 
REMARK    4  A    between atoms: N_7  and  N_8 
REMARK    5  A    between atoms: C_9  and  C_10 
ROOT
HETATM    1  C   UNL     1      23.636  46.758  49.324  1.00  0.00     0.261 C 
HETATM    2  N   UNL     1      24.849  46.691  50.011  1.00  0.00    -0.246 N 
HETATM    3  O   UNL     1      23.048  45.799  48.832  1.00  0.00    -0.269 OA
HETATM    4  H   UNL     1      25.264  47.527  50.408  1.00  0.00     0.192 HD
ENDROOT
BRANCH   2   5
HETATM    5  N   UNL     1      25.485  45.493  50.165  1.00  0.00    -0.184 NA
HETATM    6  C   UNL     1      26.359  45.440  51.117  1.00  0.00     0.152 C 
BRANCH   6   7
HETATM    7  C   UNL     1      27.091  44.216  51.360  1.00  0.00     0.011 A 
HETATM    8  C   UNL     1      27.900  43.901  52.499  1.00  0.00     0.004 A 
HETATM    9  C   UNL     1      28.408  42.614  52.307  1.00  0.00     0.043 A 
HETATM   10  C   UNL     1      28.248  44.586  53.683  1.00  0.00     0.014 A 
HETATM   11  C   UNL     1      29.244  41.981  53.235  1.00  0.00     0.030 A 
HETATM   12  N   UNL     1      27.930  42.165  51.097  1.00  0.00    -0.364 N 
HETATM   13  C   UNL     1      29.571  42.682  54.398  1.00  0.00     0.002 A 
HETATM   14  C   UNL     1      29.082  43.966  54.622  1.00  0.00     0.001 A 
HETATM   15  H   UNL     1      28.134  41.260  50.697  1.00  0.00     0.165 HD
HETATM   16  C   UNL     1      27.136  43.118  50.521  1.00  0.00     0.102 A 
ENDBRANCH   6   7
ENDBRANCH   2   5
BRANCH   1  17
HETATM   17  C   UNL     1      23.108  48.194  49.273  1.00  0.00     0.280 C 
BRANCH  17  18
HETATM   18  O   UNL     1      22.271  48.438  48.144  1.00  0.00    -0.341 OA
BRANCH  18  19
HETATM   19  C   UNL     1      21.270  49.319  48.465  1.00  0.00     0.081 A 
HETATM   20  C   UNL     1      20.001  48.843  48.835  1.00  0.00    -0.027 A 
HETATM   21  C   UNL     1      19.691  47.376  48.895  1.00  0.00     0.051 C 
HETATM   22  C   UNL     1      18.992  49.774  49.119  1.00  0.00     0.028 A 
HETATM   23  C   UNL     1      19.264  51.141  49.077  1.00  0.00     0.012 A 
HETATM   24  C   UNL     1      20.541  51.603  48.758  1.00  0.00     0.028 A 
HETATM   25 BR   UNL     1      17.890  52.381  49.462  1.00  0.00    -0.051 Br
HETATM   26  C   UNL     1      21.564  50.693  48.464  1.00  0.00    -0.027 A 
HETATM   27  C   UNL     1      22.939  51.192  48.117  1.00  0.00     0.051 C 
ENDBRANCH  18  19
ENDBRANCH  17  18
ENDBRANCH   1  17
TORSDOF 5
ENDMDL
