MODEL 1
REMARK VINA RESULT:      -9.8      0.000      0.000
REMARK  5 active torsions:
REMARK  status: ('A' for Active; 'I' for Inactive)
REMARK    1  A    between atoms: C_4  and  C_5 
REMARK    2  A    between atoms: C_9  and  C_10 
REMARK       I    between atoms: C_10  and  N_11 
REMARK    3  A    between atoms: N_11  and  C_12 
REMARK    4  A    between atoms: C_14  and  C_15 
REMARK       I    between atoms: C_15  and  N_16 
REMARK    5  A    between atoms: N_16  and  C_17 
ROOT
HETATM    1  C   UNL     1      25.847  44.908  52.314  1.00  0.00     0.276 C 
HETATM    2  N   UNL     1      25.976  45.674  51.168  1.00  0.00    -0.322 N 
HETATM    3  O   UNL     1      24.797  44.507  52.804  1.00  0.00    -0.266 OA
HETATM    4  H   UNL     1      26.943  45.839  50.893  1.00  0.00     0.169 HD
ENDROOT
BRANCH   2   5
HETATM    5  C   UNL     1      24.943  46.149  50.340  1.00  0.00     0.036 A 
HETATM    6  C   UNL     1      24.596  47.500  50.258  1.00  0.00     0.046 A 
HETATM    7  C   UNL     1      23.518  47.919  49.468  1.00  0.00     0.034 A 
HETATM    8  C   UNL     1      22.817  46.983  48.703  1.00  0.00     0.017 A 
HETATM    9  C   UNL     1      23.178  45.636  48.752  1.00  0.00     0.003 A 
HETATM   10  C   UNL     1      24.234  45.221  49.571  1.00  0.00     0.029 A 
BRANCH   7  11
HETATM   11  C   UNL     1      23.116  49.355  49.410  1.00  0.00     0.252 C 
HETATM   12  N   UNL     1      21.783  49.619  49.675  1.00  0.00    -0.352 N 
HETATM   13  H   UNL     1      21.137  48.846  49.783  1.00  0.00     0.163 HD
HETATM   14  O   UNL     1      23.945  50.210  49.122  1.00  0.00    -0.268 OA
BRANCH  12  15
HETATM   15  C   UNL     1      21.234  50.937  49.715  1.00  0.00     0.084 A 
HETATM   16  C   UNL     1      20.484  51.484  48.532  1.00  0.00     0.027 A 
HETATM   17  C   UNL     1      19.740  51.120  49.782  1.00  0.00     0.027 A 
ENDBRANCH  12  15
ENDBRANCH   7  11
ENDBRANCH   2   5
BRANCH   1  18
HETATM   18  C   UNL     1      27.144  44.562  52.918  1.00  0.00     0.147 A 
HETATM   19  N   UNL     1      28.097  43.870  52.263  1.00  0.00    -0.169 NA
HETATM   20  N   UNL     1      29.093  43.767  53.168  1.00  0.00    -0.277 N 
HETATM   21  C   UNL     1      28.827  44.360  54.376  1.00  0.00     0.063 A 
HETATM   22  H   UNL     1      29.930  43.259  52.905  1.00  0.00     0.189 HD
HETATM   23  C   UNL     1      27.558  44.880  54.233  1.00  0.00     0.071 A 
BRANCH  21  24
HETATM   24  C   UNL     1      29.737  44.365  55.518  1.00  0.00    -0.008 A 
HETATM   25  C   UNL     1      29.689  45.373  56.489  1.00  0.00     0.014 A 
HETATM   26  C   UNL     1      30.555  45.344  57.586  1.00  0.00     0.001 A 
HETATM   27  C   UNL     1      31.478  44.309  57.724  1.00  0.00     0.000 A 
HETATM   28  C   UNL     1      31.536  43.300  56.766  1.00  0.00     0.001 A 
HETATM   29  C   UNL     1      30.669  43.328  55.672  1.00  0.00     0.014 A 
ENDBRANCH  21  24
ENDBRANCH   1  18
TORSDOF 5
ENDMDL
MODEL 2
REMARK VINA RESULT:      -9.5      2.059      3.219
REMARK  5 active torsions:
REMARK  status: ('A' for Active; 'I' for Inactive)
REMARK    1  A    between atoms: C_4  and  C_5 
REMARK    2  A    between atoms: C_9  and  C_10 
REMARK       I    between atoms: C_10  and  N_11 
REMARK    3  A    between atoms: N_11  and  C_12 
REMARK    4  A    between atoms: C_14  and  C_15 
REMARK       I    between atoms: C_15  and  N_16 
REMARK    5  A    between atoms: N_16  and  C_17 
ROOT
HETATM    1  C   UNL     1      24.436  45.938  50.277  1.00  0.00     0.276 C 
HETATM    2  N   UNL     1      24.758  47.283  50.332  1.00  0.00    -0.322 N 
HETATM    3  O   UNL     1      23.658  45.410  49.489  1.00  0.00    -0.266 OA
HETATM    4  H   UNL     1      25.481  47.503  51.015  1.00  0.00     0.169 HD
ENDROOT
BRANCH   2   5
HETATM    5  C   UNL     1      24.264  48.311  49.509  1.00  0.00     0.036 A 
HETATM    6  C   UNL     1      22.900  48.548  49.325  1.00  0.00     0.046 A 
HETATM    7  C   UNL     1      22.453  49.543  48.445  1.00  0.00     0.034 A 
HETATM    8  C   UNL     1      23.384  50.353  47.790  1.00  0.00     0.017 A 
HETATM    9  C   UNL     1      24.750  50.147  47.993  1.00  0.00     0.003 A 
HETATM   10  C   UNL     1      25.187  49.127  48.846  1.00  0.00     0.029 A 
BRANCH   7  11
HETATM   11  C   UNL     1      20.998  49.771  48.212  1.00  0.00     0.252 C 
HETATM   12  N   UNL     1      20.407  50.746  48.997  1.00  0.00    -0.352 N 
HETATM   13  H   UNL     1      20.941  51.170  49.745  1.00  0.00     0.163 HD
HETATM   14  O   UNL     1      20.399  49.096  47.381  1.00  0.00    -0.268 OA
BRANCH  12  15
HETATM   15  C   UNL     1      19.037  51.132  48.874  1.00  0.00     0.084 A 
HETATM   16  C   UNL     1      18.460  52.183  49.781  1.00  0.00     0.027 A 
HETATM   17  C   UNL     1      18.693  52.495  48.333  1.00  0.00     0.027 A 
ENDBRANCH  12  15
ENDBRANCH   7  11
ENDBRANCH   2   5
BRANCH   1  18
HETATM   18  C   UNL     1      25.165  45.135  51.272  1.00  0.00     0.147 A 
HETATM   19  N   UNL     1      24.554  44.278  52.114  1.00  0.00    -0.169 NA
HETATM   20  N   UNL     1      25.571  43.773  52.844  1.00  0.00    -0.277 N 
HETATM   21  C   UNL     1      26.808  44.264  52.514  1.00  0.00     0.063 A 
HETATM   22  H   UNL     1      25.351  43.103  53.573  1.00  0.00     0.189 HD
HETATM   23  C   UNL     1      26.562  45.158  51.493  1.00  0.00     0.071 A 
BRANCH  21  24
HETATM   24  C   UNL     1      28.055  43.888  53.174  1.00  0.00    -0.008 A 
HETATM   25  C   UNL     1      28.982  43.038  52.557  1.00  0.00     0.014 A 
HETATM   26  C   UNL     1      30.179  42.709  53.199  1.00  0.00     0.001 A 
HETATM   27  C   UNL     1      30.463  43.226  54.462  1.00  0.00     0.000 A 
HETATM   28  C   UNL     1      29.551  44.072  55.086  1.00  0.00     0.001 A 
HETATM   29  C   UNL     1      28.355  44.402  54.443  1.00  0.00     0.014 A 
ENDBRANCH  21  24
ENDBRANCH   1  18
TORSDOF 5
ENDMDL
MODEL 3
REMARK VINA RESULT:      -9.2      1.463      1.885
REMARK  5 active torsions:
REMARK  status: ('A' for Active; 'I' for Inactive)
REMARK    1  A    between atoms: C_4  and  C_5 
REMARK    2  A    between atoms: C_9  and  C_10 
REMARK       I    between atoms: C_10  and  N_11 
REMARK    3  A    between atoms: N_11  and  C_12 
REMARK    4  A    between atoms: C_14  and  C_15 
REMARK       I    between atoms: C_15  and  N_16 
REMARK    5  A    between atoms: N_16  and  C_17 
ROOT
HETATM    1  C   UNL     1      25.618  45.301  52.863  1.00  0.00     0.276 C 
HETATM    2  N   UNL     1      25.808  45.839  51.601  1.00  0.00    -0.322 N 
HETATM    3  O   UNL     1      24.667  44.615  53.223  1.00  0.00    -0.266 OA
HETATM    4  H   UNL     1      26.701  46.317  51.490  1.00  0.00     0.169 HD
ENDROOT
BRANCH   2   5
HETATM    5  C   UNL     1      24.958  45.718  50.487  1.00  0.00     0.036 A 
HETATM    6  C   UNL     1      24.167  46.770  50.018  1.00  0.00     0.046 A 
HETATM    7  C   UNL     1      23.287  46.585  48.942  1.00  0.00     0.034 A 
HETATM    8  C   UNL     1      23.245  45.350  48.290  1.00  0.00     0.017 A 
HETATM    9  C   UNL     1      24.057  44.303  48.730  1.00  0.00     0.003 A 
HETATM   10  C   UNL     1      24.906  44.486  49.827  1.00  0.00     0.029 A 
BRANCH   7  11
HETATM   11  C   UNL     1      22.408  47.691  48.465  1.00  0.00     0.252 C 
HETATM   12  N   UNL     1      21.915  48.535  49.446  1.00  0.00    -0.352 N 
HETATM   13  H   UNL     1      22.075  48.308  50.420  1.00  0.00     0.163 HD
HETATM   14  O   UNL     1      22.150  47.795  47.271  1.00  0.00    -0.268 OA
BRANCH  12  15
HETATM   15  C   UNL     1      21.102  49.676  49.167  1.00  0.00     0.084 A 
HETATM   16  C   UNL     1      21.110  50.859  50.095  1.00  0.00     0.027 A 
HETATM   17  C   UNL     1      21.751  50.968  48.744  1.00  0.00     0.027 A 
ENDBRANCH  12  15
ENDBRANCH   7  11
ENDBRANCH   2   5
BRANCH   1  18
HETATM   18  C   UNL     1      26.726  45.601  53.783  1.00  0.00     0.147 A 
HETATM   19  N   UNL     1      27.082  46.857  54.118  1.00  0.00    -0.169 NA
HETATM   20  N   UNL     1      28.125  46.678  54.957  1.00  0.00    -0.277 N 
HETATM   21  C   UNL     1      28.458  45.366  55.178  1.00  0.00     0.063 A 
HETATM   22  H   UNL     1      28.584  47.499  55.334  1.00  0.00     0.189 HD
HETATM   23  C   UNL     1      27.559  44.649  54.417  1.00  0.00     0.071 A 
BRANCH  21  24
HETATM   24  C   UNL     1      29.559  44.919  56.026  1.00  0.00    -0.008 A 
HETATM   25  C   UNL     1      30.362  43.828  55.671  1.00  0.00     0.014 A 
HETATM   26  C   UNL     1      31.425  43.433  56.487  1.00  0.00     0.001 A 
HETATM   27  C   UNL     1      31.698  44.122  57.668  1.00  0.00     0.000 A 
HETATM   28  C   UNL     1      30.908  45.209  58.033  1.00  0.00     0.001 A 
HETATM   29  C   UNL     1      29.847  45.605  57.216  1.00  0.00     0.014 A 
ENDBRANCH  21  24
ENDBRANCH   1  18
TORSDOF 5
ENDMDL
MODEL 4
REMARK VINA RESULT:      -8.8      1.345      1.546
REMARK  5 active torsions:
REMARK  status: ('A' for Active; 'I' for Inactive)
REMARK    1  A    between atoms: C_4  and  C_5 
REMARK    2  A    between atoms: C_9  and  C_10 
REMARK       I    between atoms: C_10  and  N_11 
REMARK    3  A    between atoms: N_11  and  C_12 
REMARK    4  A    between atoms: C_14  and  C_15 
REMARK       I    between atoms: C_15  and  N_16 
REMARK    5  A    between atoms: N_16  and  C_17 
ROOT
HETATM    1  C   UNL     1      25.281  44.093  51.319  1.00  0.00     0.276 C 
HETATM    2  N   UNL     1      25.391  44.883  50.187  1.00  0.00    -0.322 N 
HETATM    3  O   UNL     1      24.251  43.592  51.756  1.00  0.00    -0.266 OA
HETATM    4  H   UNL     1      26.350  45.139  49.958  1.00  0.00     0.169 HD
ENDROOT
BRANCH   2   5
HETATM    5  C   UNL     1      24.357  45.274  49.318  1.00  0.00     0.036 A 
HETATM    6  C   UNL     1      23.743  46.528  49.383  1.00  0.00     0.046 A 
HETATM    7  C   UNL     1      22.673  46.851  48.538  1.00  0.00     0.034 A 
HETATM    8  C   UNL     1      22.253  45.931  47.574  1.00  0.00     0.017 A 
HETATM    9  C   UNL     1      22.882  44.688  47.478  1.00  0.00     0.003 A 
HETATM   10  C   UNL     1      23.927  44.361  48.350  1.00  0.00     0.029 A 
BRANCH   7  11
HETATM   11  C   UNL     1      21.986  48.171  48.633  1.00  0.00     0.252 C 
HETATM   12  N   UNL     1      20.876  48.215  49.458  1.00  0.00    -0.352 N 
HETATM   13  H   UNL     1      20.523  47.355  49.860  1.00  0.00     0.163 HD
HETATM   14  O   UNL     1      22.404  49.126  47.986  1.00  0.00    -0.268 OA
BRANCH  12  15
HETATM   15  C   UNL     1      20.127  49.406  49.708  1.00  0.00     0.084 A 
HETATM   16  C   UNL     1      18.787  49.612  49.058  1.00  0.00     0.027 A 
HETATM   17  C   UNL     1      18.866  49.334  50.529  1.00  0.00     0.027 A 
ENDBRANCH  12  15
ENDBRANCH   7  11
ENDBRANCH   2   5
BRANCH   1  18
HETATM   18  C   UNL     1      26.576  43.857  51.977  1.00  0.00     0.147 A 
HETATM   19  N   UNL     1      27.526  43.052  51.461  1.00  0.00    -0.169 NA
HETATM   20  N   UNL     1      28.521  43.112  52.371  1.00  0.00    -0.277 N 
HETATM   21  C   UNL     1      28.257  43.917  53.450  1.00  0.00     0.063 A 
HETATM   22  H   UNL     1      29.355  42.560  52.206  1.00  0.00     0.189 HD
HETATM   23  C   UNL     1      26.991  44.408  53.212  1.00  0.00     0.071 A 
BRANCH  21  24
HETATM   24  C   UNL     1      29.167  44.126  54.573  1.00  0.00    -0.008 A 
HETATM   25  C   UNL     1      29.085  45.269  55.379  1.00  0.00     0.014 A 
HETATM   26  C   UNL     1      29.952  45.436  56.462  1.00  0.00     0.001 A 
HETATM   27  C   UNL     1      30.909  44.466  56.752  1.00  0.00     0.000 A 
HETATM   28  C   UNL     1      31.001  43.325  55.959  1.00  0.00     0.001 A 
HETATM   29  C   UNL     1      30.134  43.157  54.878  1.00  0.00     0.014 A 
ENDBRANCH  21  24
ENDBRANCH   1  18
TORSDOF 5
ENDMDL
MODEL 5
REMARK VINA RESULT:      -8.6      2.484      3.038
REMARK  5 active torsions:
REMARK  status: ('A' for Active; 'I' for Inactive)
REMARK    1  A    between atoms: C_4  and  C_5 
REMARK    2  A    between atoms: C_9  and  C_10 
REMARK       I    between atoms: C_10  and  N_11 
REMARK    3  A    between atoms: N_11  and  C_12 
REMARK    4  A    between atoms: C_14  and  C_15 
REMARK       I    between atoms: C_15  and  N_16 
REMARK    5  A    between atoms: N_16  and  C_17 
ROOT
HETATM    1  C   UNL     1      26.753  44.345  51.609  1.00  0.00     0.276 C 
HETATM    2  N   UNL     1      25.413  44.010  51.700  1.00  0.00    -0.322 N 
HETATM    3  O   UNL     1      27.436  44.338  50.590  1.00  0.00    -0.266 OA
HETATM    4  H   UNL     1      25.017  44.152  52.628  1.00  0.00     0.169 HD
ENDROOT
BRANCH   2   5
HETATM    5  C   UNL     1      24.568  43.592  50.657  1.00  0.00     0.036 A 
HETATM    6  C   UNL     1      23.553  44.397  50.133  1.00  0.00     0.046 A 
HETATM    7  C   UNL     1      22.693  43.915  49.137  1.00  0.00     0.034 A 
HETATM    8  C   UNL     1      22.890  42.634  48.615  1.00  0.00     0.017 A 
HETATM    9  C   UNL     1      23.923  41.834  49.108  1.00  0.00     0.003 A 
HETATM   10  C   UNL     1      24.755  42.310  50.128  1.00  0.00     0.029 A 
BRANCH   7  11
HETATM   11  C   UNL     1      21.581  44.755  48.605  1.00  0.00     0.252 C 
HETATM   12  N   UNL     1      21.673  46.111  48.865  1.00  0.00    -0.352 N 
HETATM   13  H   UNL     1      22.405  46.449  49.477  1.00  0.00     0.163 HD
HETATM   14  O   UNL     1      20.654  44.229  47.999  1.00  0.00    -0.268 OA
BRANCH  12  15
HETATM   15  C   UNL     1      20.727  47.070  48.389  1.00  0.00     0.084 A 
HETATM   16  C   UNL     1      19.699  47.650  49.320  1.00  0.00     0.027 A 
HETATM   17  C   UNL     1      20.832  48.505  48.835  1.00  0.00     0.027 A 
ENDBRANCH  12  15
ENDBRANCH   7  11
ENDBRANCH   2   5
BRANCH   1  18
HETATM   18  C   UNL     1      27.323  44.769  52.898  1.00  0.00     0.147 A 
HETATM   19  N   UNL     1      26.855  45.822  53.597  1.00  0.00    -0.169 NA
HETATM   20  N   UNL     1      27.654  45.862  54.685  1.00  0.00    -0.277 N 
HETATM   21  C   UNL     1      28.615  44.884  54.720  1.00  0.00     0.063 A 
HETATM   22  H   UNL     1      27.502  46.598  55.364  1.00  0.00     0.189 HD
HETATM   23  C   UNL     1      28.418  44.165  53.560  1.00  0.00     0.071 A 
BRANCH  21  24
HETATM   24  C   UNL     1      29.608  44.734  55.779  1.00  0.00    -0.008 A 
HETATM   25  C   UNL     1      29.655  45.612  56.869  1.00  0.00     0.014 A 
HETATM   26  C   UNL     1      30.601  45.434  57.883  1.00  0.00     0.001 A 
HETATM   27  C   UNL     1      31.509  44.380  57.819  1.00  0.00     0.000 A 
HETATM   28  C   UNL     1      31.473  43.499  56.741  1.00  0.00     0.001 A 
HETATM   29  C   UNL     1      30.527  43.675  55.729  1.00  0.00     0.014 A 
ENDBRANCH  21  24
ENDBRANCH   1  18
TORSDOF 5
ENDMDL
MODEL 6
REMARK VINA RESULT:      -8.5      1.966      2.742
REMARK  5 active torsions:
REMARK  status: ('A' for Active; 'I' for Inactive)
REMARK    1  A    between atoms: C_4  and  C_5 
REMARK    2  A    between atoms: C_9  and  C_10 
REMARK       I    between atoms: C_10  and  N_11 
REMARK    3  A    between atoms: N_11  and  C_12 
REMARK    4  A    between atoms: C_14  and  C_15 
REMARK       I    between atoms: C_15  and  N_16 
REMARK    5  A    between atoms: N_16  and  C_17 
ROOT
HETATM    1  C   UNL     1      23.704  44.195  50.365  1.00  0.00     0.276 C 
HETATM    2  N   UNL     1      24.026  45.245  49.522  1.00  0.00    -0.322 N 
HETATM    3  O   UNL     1      22.576  43.781  50.609  1.00  0.00    -0.266 OA
HETATM    4  H   UNL     1      25.029  45.381  49.402  1.00  0.00     0.169 HD
ENDROOT
BRANCH   2   5
HETATM    5  C   UNL     1      23.138  46.047  48.782  1.00  0.00     0.036 A 
HETATM    6  C   UNL     1      23.009  47.423  48.985  1.00  0.00     0.046 A 
HETATM    7  C   UNL     1      22.066  48.171  48.268  1.00  0.00     0.034 A 
HETATM    8  C   UNL     1      21.285  47.545  47.294  1.00  0.00     0.017 A 
HETATM    9  C   UNL     1      21.430  46.177  47.060  1.00  0.00     0.003 A 
HETATM   10  C   UNL     1      22.350  45.431  47.805  1.00  0.00     0.029 A 
BRANCH   7  11
HETATM   11  C   UNL     1      21.894  49.633  48.512  1.00  0.00     0.252 C 
HETATM   12  N   UNL     1      20.654  50.023  48.985  1.00  0.00    -0.352 N 
HETATM   13  H   UNL     1      19.907  49.342  49.039  1.00  0.00     0.163 HD
HETATM   14  O   UNL     1      22.817  50.405  48.272  1.00  0.00    -0.268 OA
BRANCH  12  15
HETATM   15  C   UNL     1      20.329  51.373  49.322  1.00  0.00     0.084 A 
HETATM   16  C   UNL     1      19.369  52.159  48.471  1.00  0.00     0.027 A 
HETATM   17  C   UNL     1      18.952  51.701  49.837  1.00  0.00     0.027 A 
ENDBRANCH  12  15
ENDBRANCH   7  11
ENDBRANCH   2   5
BRANCH   1  18
HETATM   18  C   UNL     1      24.890  43.554  50.956  1.00  0.00     0.147 A 
HETATM   19  N   UNL     1      25.162  42.242  50.812  1.00  0.00    -0.169 NA
HETATM   20  N   UNL     1      26.309  42.078  51.505  1.00  0.00    -0.277 N 
HETATM   21  C   UNL     1      26.788  43.222  52.090  1.00  0.00     0.063 A 
HETATM   22  H   UNL     1      26.708  41.148  51.558  1.00  0.00     0.189 HD
HETATM   23  C   UNL     1      25.873  44.194  51.746  1.00  0.00     0.071 A 
BRANCH  21  24
HETATM   24  C   UNL     1      27.997  43.295  52.906  1.00  0.00    -0.008 A 
HETATM   25  C   UNL     1      28.045  44.064  54.076  1.00  0.00     0.014 A 
HETATM   26  C   UNL     1      29.205  44.101  54.853  1.00  0.00     0.001 A 
HETATM   27  C   UNL     1      30.330  43.371  54.471  1.00  0.00     0.000 A 
HETATM   28  C   UNL     1      30.295  42.602  53.311  1.00  0.00     0.001 A 
HETATM   29  C   UNL     1      29.135  42.564  52.535  1.00  0.00     0.014 A 
ENDBRANCH  21  24
ENDBRANCH   1  18
TORSDOF 5
ENDMDL
MODEL 7
REMARK VINA RESULT:      -8.3      4.321      6.885
REMARK  5 active torsions:
REMARK  status: ('A' for Active; 'I' for Inactive)
REMARK    1  A    between atoms: C_4  and  C_5 
REMARK    2  A    between atoms: C_9  and  C_10 
REMARK       I    between atoms: C_10  and  N_11 
REMARK    3  A    between atoms: N_11  and  C_12 
REMARK    4  A    between atoms: C_14  and  C_15 
REMARK       I    between atoms: C_15  and  N_16 
REMARK    5  A    between atoms: N_16  and  C_17 
ROOT
HETATM    1  C   UNL     1      26.987  44.072  51.684  1.00  0.00     0.276 C 
HETATM    2  N   UNL     1      25.832  43.320  51.816  1.00  0.00    -0.322 N 
HETATM    3  O   UNL     1      27.531  44.387  50.631  1.00  0.00    -0.266 OA
HETATM    4  H   UNL     1      25.508  43.233  52.778  1.00  0.00     0.169 HD
ENDROOT
BRANCH   2   5
HETATM    5  C   UNL     1      25.055  42.765  50.784  1.00  0.00     0.036 A 
HETATM    6  C   UNL     1      25.462  41.656  50.038  1.00  0.00     0.046 A 
HETATM    7  C   UNL     1      24.683  41.177  48.977  1.00  0.00     0.034 A 
HETATM    8  C   UNL     1      23.452  41.776  48.698  1.00  0.00     0.017 A 
HETATM    9  C   UNL     1      23.020  42.863  49.459  1.00  0.00     0.003 A 
HETATM   10  C   UNL     1      23.821  43.358  50.495  1.00  0.00     0.029 A 
BRANCH   7  11
HETATM   11  C   UNL     1      25.134  40.020  48.150  1.00  0.00     0.252 C 
HETATM   12  N   UNL     1      26.121  39.228  48.709  1.00  0.00    -0.352 N 
HETATM   13  H   UNL     1      26.558  39.519  49.575  1.00  0.00     0.163 HD
HETATM   14  O   UNL     1      24.646  39.835  47.040  1.00  0.00    -0.268 OA
BRANCH  12  15
HETATM   15  C   UNL     1      26.636  38.051  48.083  1.00  0.00     0.084 A 
HETATM   16  C   UNL     1      28.016  37.555  48.417  1.00  0.00     0.027 A 
HETATM   17  C   UNL     1      26.815  36.794  48.894  1.00  0.00     0.027 A 
ENDBRANCH  12  15
ENDBRANCH   7  11
ENDBRANCH   2   5
BRANCH   1  18
HETATM   18  C   UNL     1      27.528  44.520  52.977  1.00  0.00     0.147 A 
HETATM   19  N   UNL     1      27.026  45.569  53.658  1.00  0.00    -0.169 NA
HETATM   20  N   UNL     1      27.806  45.635  54.758  1.00  0.00    -0.277 N 
HETATM   21  C   UNL     1      28.787  44.679  54.818  1.00  0.00     0.063 A 
HETATM   22  H   UNL     1      27.627  46.375  55.428  1.00  0.00     0.189 HD
HETATM   23  C   UNL     1      28.624  43.945  53.662  1.00  0.00     0.071 A 
BRANCH  21  24
HETATM   24  C   UNL     1      29.766  44.559  55.895  1.00  0.00    -0.008 A 
HETATM   25  C   UNL     1      30.734  43.547  55.895  1.00  0.00     0.014 A 
HETATM   26  C   UNL     1      31.675  43.465  56.925  1.00  0.00     0.001 A 
HETATM   27  C   UNL     1      31.659  44.392  57.966  1.00  0.00     0.000 A 
HETATM   28  C   UNL     1      30.702  45.403  57.978  1.00  0.00     0.001 A 
HETATM   29  C   UNL     1      29.763  45.486  56.947  1.00  0.00     0.014 A 
ENDBRANCH  21  24
ENDBRANCH   1  18
TORSDOF 5
ENDMDL
MODEL 8
REMARK VINA RESULT:      -8.0      2.590      4.803
REMARK  5 active torsions:
REMARK  status: ('A' for Active; 'I' for Inactive)
REMARK    1  A    between atoms: C_4  and  C_5 
REMARK    2  A    between atoms: C_9  and  C_10 
REMARK       I    between atoms: C_10  and  N_11 
REMARK    3  A    between atoms: N_11  and  C_12 
REMARK    4  A    between atoms: C_14  and  C_15 
REMARK       I    between atoms: C_15  and  N_16 
REMARK    5  A    between atoms: N_16  and  C_17 
ROOT
HETATM    1  C   UNL     1      23.332  46.847  49.092  1.00  0.00     0.276 C 
HETATM    2  N   UNL     1      23.166  48.072  49.714  1.00  0.00    -0.322 N 
HETATM    3  O   UNL     1      22.733  46.451  48.098  1.00  0.00    -0.266 OA
HETATM    4  H   UNL     1      23.814  48.232  50.484  1.00  0.00     0.169 HD
ENDROOT
BRANCH   2   5
HETATM    5  C   UNL     1      22.284  49.103  49.344  1.00  0.00     0.036 A 
HETATM    6  C   UNL     1      20.906  49.041  49.566  1.00  0.00     0.046 A 
HETATM    7  C   UNL     1      20.057  50.064  49.122  1.00  0.00     0.034 A 
HETATM    8  C   UNL     1      20.602  51.192  48.503  1.00  0.00     0.017 A 
HETATM    9  C   UNL     1      21.981  51.279  48.307  1.00  0.00     0.003 A 
HETATM   10  C   UNL     1      22.817  50.237  48.722  1.00  0.00     0.029 A 
BRANCH   7  11
HETATM   11  C   UNL     1      18.581  49.981  49.319  1.00  0.00     0.252 C 
HETATM   12  N   UNL     1      17.876  49.326  48.324  1.00  0.00    -0.352 N 
HETATM   13  H   UNL     1      18.360  49.038  47.483  1.00  0.00     0.163 HD
HETATM   14  O   UNL     1      18.066  50.496  50.306  1.00  0.00    -0.268 OA
BRANCH  12  15
HETATM   15  C   UNL     1      16.465  49.108  48.372  1.00  0.00     0.084 A 
HETATM   16  C   UNL     1      15.534  49.979  47.575  1.00  0.00     0.027 A 
HETATM   17  C   UNL     1      15.756  48.554  47.164  1.00  0.00     0.027 A 
ENDBRANCH  12  15
ENDBRANCH   7  11
ENDBRANCH   2   5
BRANCH   1  18
HETATM   18  C   UNL     1      24.368  46.019  49.730  1.00  0.00     0.147 A 
HETATM   19  N   UNL     1      24.826  44.872  49.190  1.00  0.00    -0.169 NA
HETATM   20  N   UNL     1      25.738  44.441  50.088  1.00  0.00    -0.277 N 
HETATM   21  C   UNL     1      25.888  45.256  51.181  1.00  0.00     0.063 A 
HETATM   22  H   UNL     1      26.215  43.566  49.904  1.00  0.00     0.189 HD
HETATM   23  C   UNL     1      24.999  46.288  50.968  1.00  0.00     0.071 A 
BRANCH  21  24
HETATM   24  C   UNL     1      26.795  44.993  52.295  1.00  0.00    -0.008 A 
HETATM   25  C   UNL     1      27.829  44.054  52.192  1.00  0.00     0.014 A 
HETATM   26  C   UNL     1      28.699  43.835  53.263  1.00  0.00     0.001 A 
HETATM   27  C   UNL     1      28.545  44.550  54.450  1.00  0.00     0.000 A 
HETATM   28  C   UNL     1      27.521  45.486  54.566  1.00  0.00     0.001 A 
HETATM   29  C   UNL     1      26.654  45.707  53.494  1.00  0.00     0.014 A 
ENDBRANCH  21  24
ENDBRANCH   1  18
TORSDOF 5
ENDMDL
MODEL 9
REMARK VINA RESULT:      -8.0      5.520      8.336
REMARK  5 active torsions:
REMARK  status: ('A' for Active; 'I' for Inactive)
REMARK    1  A    between atoms: C_4  and  C_5 
REMARK    2  A    between atoms: C_9  and  C_10 
REMARK       I    between atoms: C_10  and  N_11 
REMARK    3  A    between atoms: N_11  and  C_12 
REMARK    4  A    between atoms: C_14  and  C_15 
REMARK       I    between atoms: C_15  and  N_16 
REMARK    5  A    between atoms: N_16  and  C_17 
ROOT
HETATM    1  C   UNL     1      27.626  43.287  51.086  1.00  0.00     0.276 C 
HETATM    2  N   UNL     1      27.469  41.912  51.140  1.00  0.00    -0.322 N 
HETATM    3  O   UNL     1      27.489  43.994  50.094  1.00  0.00    -0.266 OA
HETATM    4  H   UNL     1      27.558  41.526  52.079  1.00  0.00     0.169 HD
ENDROOT
BRANCH   2   5
HETATM    5  C   UNL     1      27.128  41.052  50.081  1.00  0.00     0.036 A 
HETATM    6  C   UNL     1      27.991  40.068  49.594  1.00  0.00     0.046 A 
HETATM    7  C   UNL     1      27.633  39.275  48.495  1.00  0.00     0.034 A 
HETATM    8  C   UNL     1      26.371  39.429  47.915  1.00  0.00     0.017 A 
HETATM    9  C   UNL     1      25.488  40.387  48.416  1.00  0.00     0.003 A 
HETATM   10  C   UNL     1      25.867  41.197  49.492  1.00  0.00     0.029 A 
BRANCH   7  11
HETATM   11  C   UNL     1      28.569  38.253  47.944  1.00  0.00     0.252 C 
HETATM   12  N   UNL     1      28.171  37.643  46.767  1.00  0.00    -0.352 N 
HETATM   13  H   UNL     1      27.244  37.829  46.402  1.00  0.00     0.163 HD
HETATM   14  O   UNL     1      29.605  37.987  48.543  1.00  0.00    -0.268 OA
BRANCH  12  15
HETATM   15  C   UNL     1      28.964  36.680  46.071  1.00  0.00     0.084 A 
HETATM   16  C   UNL     1      28.443  36.029  44.820  1.00  0.00     0.027 A 
HETATM   17  C   UNL     1      29.555  37.031  44.731  1.00  0.00     0.027 A 
ENDBRANCH  12  15
ENDBRANCH   7  11
ENDBRANCH   2   5
BRANCH   1  18
HETATM   18  C   UNL     1      27.957  43.875  52.394  1.00  0.00     0.147 A 
HETATM   19  N   UNL     1      27.265  44.897  52.935  1.00  0.00    -0.169 NA
HETATM   20  N   UNL     1      27.897  45.123  54.106  1.00  0.00    -0.277 N 
HETATM   21  C   UNL     1      28.964  44.295  54.346  1.00  0.00     0.063 A 
HETATM   22  H   UNL     1      27.560  45.877  54.695  1.00  0.00     0.189 HD
HETATM   23  C   UNL     1      29.021  43.477  53.238  1.00  0.00     0.071 A 
BRANCH  21  24
HETATM   24  C   UNL     1      29.816  44.359  55.530  1.00  0.00    -0.008 A 
HETATM   25  C   UNL     1      29.702  45.401  56.459  1.00  0.00     0.014 A 
HETATM   26  C   UNL     1      30.513  45.430  57.597  1.00  0.00     0.001 A 
HETATM   27  C   UNL     1      31.445  44.418  57.820  1.00  0.00     0.000 A 
HETATM   28  C   UNL     1      31.568  43.375  56.905  1.00  0.00     0.001 A 
HETATM   29  C   UNL     1      30.756  43.346  55.769  1.00  0.00     0.014 A 
ENDBRANCH  21  24
ENDBRANCH   1  18
TORSDOF 5
ENDMDL
MODEL 10
REMARK VINA RESULT:      -8.0      2.874      3.749
REMARK  5 active torsions:
REMARK  status: ('A' for Active; 'I' for Inactive)
REMARK    1  A    between atoms: C_4  and  C_5 
REMARK    2  A    between atoms: C_9  and  C_10 
REMARK       I    between atoms: C_10  and  N_11 
REMARK    3  A    between atoms: N_11  and  C_12 
REMARK    4  A    between atoms: C_14  and  C_15 
REMARK       I    between atoms: C_15  and  N_16 
REMARK    5  A    between atoms: N_16  and  C_17 
ROOT
HETATM    1  C   UNL     1      26.755  42.467  50.193  1.00  0.00     0.276 C 
HETATM    2  N   UNL     1      25.388  42.372  50.389  1.00  0.00    -0.322 N 
HETATM    3  O   UNL     1      27.326  42.594  49.115  1.00  0.00    -0.266 OA
HETATM    4  H   UNL     1      25.116  42.344  51.371  1.00  0.00     0.169 HD
ENDROOT
BRANCH   2   5
HETATM    5  C   UNL     1      24.383  42.398  49.406  1.00  0.00     0.036 A 
HETATM    6  C   UNL     1      23.567  43.510  49.182  1.00  0.00     0.046 A 
HETATM    7  C   UNL     1      22.536  43.467  48.234  1.00  0.00     0.034 A 
HETATM    8  C   UNL     1      22.359  42.319  47.458  1.00  0.00     0.017 A 
HETATM    9  C   UNL     1      23.190  41.215  47.651  1.00  0.00     0.003 A 
HETATM   10  C   UNL     1      24.195  41.253  48.624  1.00  0.00     0.029 A 
BRANCH   7  11
HETATM   11  C   UNL     1      21.635  44.637  48.021  1.00  0.00     0.252 C 
HETATM   12  N   UNL     1      22.263  45.861  47.868  1.00  0.00    -0.352 N 
HETATM   13  H   UNL     1      23.263  45.926  48.012  1.00  0.00     0.163 HD
HETATM   14  O   UNL     1      20.419  44.478  48.012  1.00  0.00    -0.268 OA
BRANCH  12  15
HETATM   15  C   UNL     1      21.562  47.078  47.605  1.00  0.00     0.084 A 
HETATM   16  C   UNL     1      21.021  47.904  48.739  1.00  0.00     0.027 A 
HETATM   17  C   UNL     1      22.201  48.396  47.955  1.00  0.00     0.027 A 
ENDBRANCH  12  15
ENDBRANCH   7  11
ENDBRANCH   2   5
BRANCH   1  18
HETATM   18  C   UNL     1      27.516  42.436  51.453  1.00  0.00     0.147 A 
HETATM   19  N   UNL     1      27.857  41.291  52.076  1.00  0.00    -0.169 NA
HETATM   20  N   UNL     1      28.521  41.713  53.173  1.00  0.00    -0.277 N 
HETATM   21  C   UNL     1      28.625  43.076  53.286  1.00  0.00     0.063 A 
HETATM   22  H   UNL     1      28.868  41.015  53.822  1.00  0.00     0.189 HD
HETATM   23  C   UNL     1      27.970  43.564  52.175  1.00  0.00     0.071 A 
BRANCH  21  24
HETATM   24  C   UNL     1      29.277  43.771  54.392  1.00  0.00    -0.008 A 
HETATM   25  C   UNL     1      30.430  43.259  55.001  1.00  0.00     0.014 A 
HETATM   26  C   UNL     1      31.050  43.953  56.043  1.00  0.00     0.001 A 
HETATM   27  C   UNL     1      30.525  45.164  56.490  1.00  0.00     0.000 A 
HETATM   28  C   UNL     1      29.380  45.685  55.894  1.00  0.00     0.001 A 
HETATM   29  C   UNL     1      28.761  44.992  54.850  1.00  0.00     0.014 A 
ENDBRANCH  21  24
ENDBRANCH   1  18
TORSDOF 5
ENDMDL
