MODEL 1
REMARK VINA RESULT:      -9.1      0.000      0.000
REMARK  5 active torsions:
REMARK  status: ('A' for Active; 'I' for Inactive)
REMARK    1  A    between atoms: C_3  and  O_4 
REMARK    2  A    between atoms: O_4  and  C_5 
REMARK    3  A    between atoms: C_5  and  C_6 
REMARK       I    between atoms: C_6  and  N_7 
REMARK    4  A    between atoms: N_7  and  N_8 
REMARK    5  A    between atoms: C_9  and  C_10 
ROOT
HETATM    1  C   UNL     1      25.840  45.332  52.714  1.00  0.00     0.261 C 
HETATM    2  N   UNL     1      26.416  46.479  52.177  1.00  0.00    -0.246 N 
HETATM    3  O   UNL     1      24.658  45.004  52.612  1.00  0.00    -0.269 OA
HETATM    4  H   UNL     1      27.433  46.483  52.104  1.00  0.00     0.192 HD
ENDROOT
BRANCH   2   5
HETATM    5  N   UNL     1      25.779  47.375  51.346  1.00  0.00    -0.184 NA
HETATM    6  C   UNL     1      26.325  47.625  50.197  1.00  0.00     0.152 C 
BRANCH   6   7
HETATM    7  C   UNL     1      25.727  48.596  49.301  1.00  0.00     0.011 A 
HETATM    8  C   UNL     1      24.331  48.745  49.018  1.00  0.00     0.004 A 
HETATM    9  C   UNL     1      24.197  49.800  48.113  1.00  0.00     0.043 A 
HETATM   10  C   UNL     1      23.163  48.075  49.444  1.00  0.00     0.014 A 
HETATM   11  C   UNL     1      22.956  50.223  47.621  1.00  0.00     0.030 A 
HETATM   12  N   UNL     1      25.463  50.270  47.852  1.00  0.00    -0.364 N 
HETATM   13  C   UNL     1      21.816  49.543  48.062  1.00  0.00     0.002 A 
HETATM   14  C   UNL     1      21.916  48.484  48.959  1.00  0.00     0.001 A 
HETATM   15  H   UNL     1      25.672  51.033  47.223  1.00  0.00     0.165 HD
HETATM   16  C   UNL     1      26.391  49.551  48.556  1.00  0.00     0.102 A 
ENDBRANCH   6   7
ENDBRANCH   2   5
BRANCH   1  17
HETATM   17  C   UNL     1      26.813  44.498  53.540  1.00  0.00     0.280 C 
BRANCH  17  18
HETATM   18  O   UNL     1      28.172  44.691  53.136  1.00  0.00    -0.341 OA
BRANCH  18  19
HETATM   19  C   UNL     1      28.995  44.531  54.226  1.00  0.00     0.081 A 
HETATM   20  C   UNL     1      29.075  45.536  55.205  1.00  0.00    -0.028 A 
HETATM   21  C   UNL     1      28.301  46.818  55.101  1.00  0.00     0.051 C 
HETATM   22  C   UNL     1      29.874  45.311  56.334  1.00  0.00     0.009 A 
HETATM   23  C   UNL     1      30.621  44.139  56.453  1.00  0.00     0.001 A 
HETATM   24  C   UNL     1      30.584  43.179  55.443  1.00  0.00     0.009 A 
HETATM   25  C   UNL     1      29.770  43.361  54.317  1.00  0.00    -0.028 A 
HETATM   26  C   UNL     1      29.786  42.339  53.216  1.00  0.00     0.051 C 
ENDBRANCH  18  19
ENDBRANCH  17  18
ENDBRANCH   1  17
TORSDOF 5
ENDMDL
MODEL 2
REMARK VINA RESULT:      -9.0      1.256      2.198
REMARK  5 active torsions:
REMARK  status: ('A' for Active; 'I' for Inactive)
REMARK    1  A    between atoms: C_3  and  O_4 
REMARK    2  A    between atoms: O_4  and  C_5 
REMARK    3  A    between atoms: C_5  and  C_6 
REMARK       I    between atoms: C_6  and  N_7 
REMARK    4  A    between atoms: N_7  and  N_8 
REMARK    5  A    between atoms: C_9  and  C_10 
ROOT
HETATM    1  C   UNL     1      26.105  44.466  51.171  1.00  0.00     0.261 C 
HETATM    2  N   UNL     1      26.882  45.233  50.310  1.00  0.00    -0.246 N 
HETATM    3  O   UNL     1      24.912  44.646  51.419  1.00  0.00    -0.269 OA
HETATM    4  H   UNL     1      27.756  44.813  49.995  1.00  0.00     0.192 HD
ENDROOT
BRANCH   2   5
HETATM    5  N   UNL     1      26.412  46.249  49.505  1.00  0.00    -0.184 NA
HETATM    6  C   UNL     1      26.485  47.460  49.960  1.00  0.00     0.152 C 
BRANCH   6   7
HETATM    7  C   UNL     1      25.961  48.565  49.179  1.00  0.00     0.011 A 
HETATM    8  C   UNL     1      24.579  48.885  48.980  1.00  0.00     0.004 A 
HETATM    9  C   UNL     1      24.525  50.024  48.174  1.00  0.00     0.043 A 
HETATM   10  C   UNL     1      23.363  48.307  49.406  1.00  0.00     0.014 A 
HETATM   11  C   UNL     1      23.318  50.617  47.781  1.00  0.00     0.030 A 
HETATM   12  N   UNL     1      25.823  50.379  47.890  1.00  0.00    -0.364 N 
HETATM   13  C   UNL     1      22.130  50.025  48.220  1.00  0.00     0.002 A 
HETATM   14  C   UNL     1      22.149  48.886  49.019  1.00  0.00     0.001 A 
HETATM   15  H   UNL     1      26.089  51.169  47.318  1.00  0.00     0.165 HD
HETATM   16  C   UNL     1      26.695  49.507  48.485  1.00  0.00     0.102 A 
ENDBRANCH   6   7
ENDBRANCH   2   5
BRANCH   1  17
HETATM   17  C   UNL     1      26.891  43.368  51.878  1.00  0.00     0.280 C 
BRANCH  17  18
HETATM   18  O   UNL     1      26.625  43.328  53.283  1.00  0.00    -0.341 OA
BRANCH  18  19
HETATM   19  C   UNL     1      27.793  43.553  53.973  1.00  0.00     0.081 A 
HETATM   20  C   UNL     1      28.746  42.529  54.100  1.00  0.00    -0.028 A 
HETATM   21  C   UNL     1      28.532  41.159  53.525  1.00  0.00     0.051 C 
HETATM   22  C   UNL     1      29.953  42.814  54.754  1.00  0.00     0.009 A 
HETATM   23  C   UNL     1      30.177  44.070  55.317  1.00  0.00     0.001 A 
HETATM   24  C   UNL     1      29.195  45.057  55.240  1.00  0.00     0.009 A 
HETATM   25  C   UNL     1      27.991  44.812  54.567  1.00  0.00    -0.028 A 
HETATM   26  C   UNL     1      26.925  45.871  54.542  1.00  0.00     0.051 C 
ENDBRANCH  18  19
ENDBRANCH  17  18
ENDBRANCH   1  17
TORSDOF 5
ENDMDL
MODEL 3
REMARK VINA RESULT:      -8.8      1.714      2.767
REMARK  5 active torsions:
REMARK  status: ('A' for Active; 'I' for Inactive)
REMARK    1  A    between atoms: C_3  and  O_4 
REMARK    2  A    between atoms: O_4  and  C_5 
REMARK    3  A    between atoms: C_5  and  C_6 
REMARK       I    between atoms: C_6  and  N_7 
REMARK    4  A    between atoms: N_7  and  N_8 
REMARK    5  A    between atoms: C_9  and  C_10 
ROOT
HETATM    1  C   UNL     1      26.463  47.424  54.098  1.00  0.00     0.261 C 
HETATM    2  N   UNL     1      26.350  47.058  52.761  1.00  0.00    -0.246 N 
HETATM    3  O   UNL     1      25.628  48.054  54.746  1.00  0.00    -0.269 OA
HETATM    4  H   UNL     1      26.974  46.319  52.440  1.00  0.00     0.192 HD
ENDROOT
BRANCH   2   5
HETATM    5  N   UNL     1      25.231  47.243  51.978  1.00  0.00    -0.184 NA
HETATM    6  C   UNL     1      25.259  46.780  50.767  1.00  0.00     0.152 C 
BRANCH   6   7
HETATM    7  C   UNL     1      24.131  46.988  49.880  1.00  0.00     0.011 A 
HETATM    8  C   UNL     1      23.783  48.210  49.218  1.00  0.00     0.004 A 
HETATM    9  C   UNL     1      22.637  47.964  48.460  1.00  0.00     0.043 A 
HETATM   10  C   UNL     1      24.335  49.509  49.198  1.00  0.00     0.014 A 
HETATM   11  C   UNL     1      22.021  48.949  47.677  1.00  0.00     0.030 A 
HETATM   12  N   UNL     1      22.298  46.645  48.658  1.00  0.00    -0.364 N 
HETATM   13  C   UNL     1      22.591  50.226  47.673  1.00  0.00     0.002 A 
HETATM   14  C   UNL     1      23.730  50.505  48.422  1.00  0.00     0.001 A 
HETATM   15  H   UNL     1      21.501  46.189  48.234  1.00  0.00     0.165 HD
HETATM   16  C   UNL     1      23.185  46.050  49.513  1.00  0.00     0.102 A 
ENDBRANCH   6   7
ENDBRANCH   2   5
BRANCH   1  17
HETATM   17  C   UNL     1      27.797  47.027  54.722  1.00  0.00     0.280 C 
BRANCH  17  18
HETATM   18  O   UNL     1      27.668  45.925  55.624  1.00  0.00    -0.341 OA
BRANCH  18  19
HETATM   19  C   UNL     1      28.665  45.013  55.371  1.00  0.00     0.081 A 
HETATM   20  C   UNL     1      28.482  44.020  54.394  1.00  0.00    -0.028 A 
HETATM   21  C   UNL     1      27.208  43.891  53.611  1.00  0.00     0.051 C 
HETATM   22  C   UNL     1      29.545  43.148  54.118  1.00  0.00     0.009 A 
HETATM   23  C   UNL     1      30.736  43.227  54.840  1.00  0.00     0.001 A 
HETATM   24  C   UNL     1      30.879  44.175  55.852  1.00  0.00     0.009 A 
HETATM   25  C   UNL     1      29.847  45.081  56.131  1.00  0.00    -0.028 A 
HETATM   26  C   UNL     1      30.002  46.059  57.261  1.00  0.00     0.051 C 
ENDBRANCH  18  19
ENDBRANCH  17  18
ENDBRANCH   1  17
TORSDOF 5
ENDMDL
MODEL 4
REMARK VINA RESULT:      -8.8      1.497      2.053
REMARK  5 active torsions:
REMARK  status: ('A' for Active; 'I' for Inactive)
REMARK    1  A    between atoms: C_3  and  O_4 
REMARK    2  A    between atoms: O_4  and  C_5 
REMARK    3  A    between atoms: C_5  and  C_6 
REMARK       I    between atoms: C_6  and  N_7 
REMARK    4  A    between atoms: N_7  and  N_8 
REMARK    5  A    between atoms: C_9  and  C_10 
ROOT
HETATM    1  C   UNL     1      25.554  44.276  53.276  1.00  0.00     0.261 C 
HETATM    2  N   UNL     1      25.634  44.744  51.969  1.00  0.00    -0.246 N 
HETATM    3  O   UNL     1      24.560  44.329  54.000  1.00  0.00    -0.269 OA
HETATM    4  H   UNL     1      26.411  44.392  51.410  1.00  0.00     0.192 HD
ENDROOT
BRANCH   2   5
HETATM    5  N   UNL     1      24.578  45.239  51.234  1.00  0.00    -0.184 NA
HETATM    6  C   UNL     1      24.853  46.017  50.234  1.00  0.00     0.152 C 
BRANCH   6   7
HETATM    7  C   UNL     1      23.781  46.608  49.455  1.00  0.00     0.011 A 
HETATM    8  C   UNL     1      23.716  47.960  48.984  1.00  0.00     0.004 A 
HETATM    9  C   UNL     1      22.523  48.099  48.274  1.00  0.00     0.043 A 
HETATM   10  C   UNL     1      24.562  49.084  49.103  1.00  0.00     0.014 A 
HETATM   11  C   UNL     1      22.138  49.303  47.669  1.00  0.00     0.030 A 
HETATM   12  N   UNL     1      21.885  46.882  48.315  1.00  0.00    -0.364 N 
HETATM   13  C   UNL     1      22.996  50.399  47.800  1.00  0.00     0.002 A 
HETATM   14  C   UNL     1      24.191  50.294  48.507  1.00  0.00     0.001 A 
HETATM   15  H   UNL     1      20.990  46.689  47.884  1.00  0.00     0.165 HD
HETATM   16  C   UNL     1      22.629  45.979  49.025  1.00  0.00     0.102 A 
ENDBRANCH   6   7
ENDBRANCH   2   5
BRANCH   1  17
HETATM   17  C   UNL     1      26.873  43.723  53.802  1.00  0.00     0.280 C 
BRANCH  17  18
HETATM   18  O   UNL     1      27.995  44.508  53.387  1.00  0.00    -0.341 OA
BRANCH  18  19
HETATM   19  C   UNL     1      28.962  44.469  54.365  1.00  0.00     0.081 A 
HETATM   20  C   UNL     1      29.024  45.480  55.338  1.00  0.00    -0.028 A 
HETATM   21  C   UNL     1      28.074  46.643  55.346  1.00  0.00     0.051 C 
HETATM   22  C   UNL     1      29.981  45.373  56.356  1.00  0.00     0.009 A 
HETATM   23  C   UNL     1      30.891  44.316  56.368  1.00  0.00     0.001 A 
HETATM   24  C   UNL     1      30.860  43.354  55.359  1.00  0.00     0.009 A 
HETATM   25  C   UNL     1      29.896  43.418  54.344  1.00  0.00    -0.028 A 
HETATM   26  C   UNL     1      29.914  42.402  53.237  1.00  0.00     0.051 C 
ENDBRANCH  18  19
ENDBRANCH  17  18
ENDBRANCH   1  17
TORSDOF 5
ENDMDL
MODEL 5
REMARK VINA RESULT:      -8.8      2.230      9.532
REMARK  5 active torsions:
REMARK  status: ('A' for Active; 'I' for Inactive)
REMARK    1  A    between atoms: C_3  and  O_4 
REMARK    2  A    between atoms: O_4  and  C_5 
REMARK    3  A    between atoms: C_5  and  C_6 
REMARK       I    between atoms: C_6  and  N_7 
REMARK    4  A    between atoms: N_7  and  N_8 
REMARK    5  A    between atoms: C_9  and  C_10 
ROOT
HETATM    1  C   UNL     1      24.450  47.893  49.869  1.00  0.00     0.261 C 
HETATM    2  N   UNL     1      24.379  47.298  51.124  1.00  0.00    -0.246 N 
HETATM    3  O   UNL     1      25.344  48.643  49.477  1.00  0.00    -0.269 OA
HETATM    4  H   UNL     1      23.747  46.502  51.212  1.00  0.00     0.192 HD
ENDROOT
BRANCH   2   5
HETATM    5  N   UNL     1      25.359  47.359  52.091  1.00  0.00    -0.184 NA
HETATM    6  C   UNL     1      25.691  46.255  52.684  1.00  0.00     0.152 C 
BRANCH   6   7
HETATM    7  C   UNL     1      26.681  46.266  53.744  1.00  0.00     0.011 A 
HETATM    8  C   UNL     1      27.699  45.283  53.968  1.00  0.00     0.004 A 
HETATM    9  C   UNL     1      28.433  45.687  55.084  1.00  0.00     0.043 A 
HETATM   10  C   UNL     1      28.061  44.079  53.326  1.00  0.00     0.014 A 
HETATM   11  C   UNL     1      29.516  44.952  55.585  1.00  0.00     0.030 A 
HETATM   12  N   UNL     1      27.880  46.867  55.525  1.00  0.00    -0.364 N 
HETATM   13  C   UNL     1      29.855  43.765  54.928  1.00  0.00     0.002 A 
HETATM   14  C   UNL     1      29.139  43.332  53.816  1.00  0.00     0.001 A 
HETATM   15  H   UNL     1      28.208  47.389  56.327  1.00  0.00     0.165 HD
HETATM   16  C   UNL     1      26.824  47.223  54.730  1.00  0.00     0.102 A 
ENDBRANCH   6   7
ENDBRANCH   2   5
BRANCH   1  17
HETATM   17  C   UNL     1      23.243  47.591  48.988  1.00  0.00     0.280 C 
BRANCH  17  18
HETATM   18  O   UNL     1      23.163  48.464  47.858  1.00  0.00    -0.341 OA
BRANCH  18  19
HETATM   19  C   UNL     1      21.974  49.154  47.901  1.00  0.00     0.081 A 
HETATM   20  C   UNL     1      20.781  48.529  47.501  1.00  0.00    -0.028 A 
HETATM   21  C   UNL     1      20.746  47.116  46.995  1.00  0.00     0.051 C 
HETATM   22  C   UNL     1      19.579  49.241  47.620  1.00  0.00     0.009 A 
HETATM   23  C   UNL     1      19.577  50.562  48.069  1.00  0.00     0.001 A 
HETATM   24  C   UNL     1      20.776  51.191  48.399  1.00  0.00     0.009 A 
HETATM   25  C   UNL     1      21.990  50.495  48.321  1.00  0.00    -0.028 A 
HETATM   26  C   UNL     1      23.276  51.208  48.631  1.00  0.00     0.051 C 
ENDBRANCH  18  19
ENDBRANCH  17  18
ENDBRANCH   1  17
TORSDOF 5
ENDMDL
MODEL 6
REMARK VINA RESULT:      -8.5      1.705      2.786
REMARK  5 active torsions:
REMARK  status: ('A' for Active; 'I' for Inactive)
REMARK    1  A    between atoms: C_3  and  O_4 
REMARK    2  A    between atoms: O_4  and  C_5 
REMARK    3  A    between atoms: C_5  and  C_6 
REMARK       I    between atoms: C_6  and  N_7 
REMARK    4  A    between atoms: N_7  and  N_8 
REMARK    5  A    between atoms: C_9  and  C_10 
ROOT
HETATM    1  C   UNL     1      25.602  45.197  52.327  1.00  0.00     0.261 C 
HETATM    2  N   UNL     1      25.544  46.043  51.224  1.00  0.00    -0.246 N 
HETATM    3  O   UNL     1      24.664  44.544  52.784  1.00  0.00    -0.269 OA
HETATM    4  H   UNL     1      26.436  46.296  50.801  1.00  0.00     0.192 HD
ENDROOT
BRANCH   2   5
HETATM    5  N   UNL     1      24.453  46.195  50.394  1.00  0.00    -0.184 NA
HETATM    6  C   UNL     1      24.252  47.365  49.873  1.00  0.00     0.152 C 
BRANCH   6   7
HETATM    7  C   UNL     1      23.093  47.598  49.032  1.00  0.00     0.011 A 
HETATM    8  C   UNL     1      22.418  48.847  48.841  1.00  0.00     0.004 A 
HETATM    9  C   UNL     1      21.367  48.623  47.950  1.00  0.00     0.043 A 
HETATM   10  C   UNL     1      22.600  50.152  49.350  1.00  0.00     0.014 A 
HETATM   11  C   UNL     1      20.495  49.639  47.537  1.00  0.00     0.030 A 
HETATM   12  N   UNL     1      21.398  47.289  47.617  1.00  0.00    -0.364 N 
HETATM   13  C   UNL     1      20.701  50.922  48.055  1.00  0.00     0.002 A 
HETATM   14  C   UNL     1      21.736  51.177  48.949  1.00  0.00     0.001 A 
HETATM   15  H   UNL     1      20.745  46.841  46.988  1.00  0.00     0.165 HD
HETATM   16  C   UNL     1      22.428  46.662  48.264  1.00  0.00     0.102 A 
ENDBRANCH   6   7
ENDBRANCH   2   5
BRANCH   1  17
HETATM   17  C   UNL     1      26.965  45.188  53.009  1.00  0.00     0.280 C 
BRANCH  17  18
HETATM   18  O   UNL     1      26.930  44.541  54.285  1.00  0.00    -0.341 OA
BRANCH  18  19
HETATM   19  C   UNL     1      28.215  44.371  54.742  1.00  0.00     0.081 A 
HETATM   20  C   UNL     1      28.908  43.178  54.473  1.00  0.00    -0.028 A 
HETATM   21  C   UNL     1      28.287  42.045  53.709  1.00  0.00     0.051 C 
HETATM   22  C   UNL     1      30.239  43.066  54.899  1.00  0.00     0.009 A 
HETATM   23  C   UNL     1      30.842  44.092  55.627  1.00  0.00     0.001 A 
HETATM   24  C   UNL     1      30.120  45.242  55.944  1.00  0.00     0.009 A 
HETATM   25  C   UNL     1      28.798  45.397  55.506  1.00  0.00    -0.028 A 
HETATM   26  C   UNL     1      28.022  46.621  55.904  1.00  0.00     0.051 C 
ENDBRANCH  18  19
ENDBRANCH  17  18
ENDBRANCH   1  17
TORSDOF 5
ENDMDL
MODEL 7
REMARK VINA RESULT:      -8.5      1.923      9.364
REMARK  5 active torsions:
REMARK  status: ('A' for Active; 'I' for Inactive)
REMARK    1  A    between atoms: C_3  and  O_4 
REMARK    2  A    between atoms: O_4  and  C_5 
REMARK    3  A    between atoms: C_5  and  C_6 
REMARK       I    between atoms: C_6  and  N_7 
REMARK    4  A    between atoms: N_7  and  N_8 
REMARK    5  A    between atoms: C_9  and  C_10 
ROOT
HETATM    1  C   UNL     1      25.512  46.550  50.568  1.00  0.00     0.261 C 
HETATM    2  N   UNL     1      25.300  45.635  51.595  1.00  0.00    -0.246 N 
HETATM    3  O   UNL     1      26.579  46.743  49.985  1.00  0.00    -0.269 OA
HETATM    4  H   UNL     1      24.329  45.391  51.789  1.00  0.00     0.192 HD
ENDROOT
BRANCH   2   5
HETATM    5  N   UNL     1      26.222  44.715  52.045  1.00  0.00    -0.184 NA
HETATM    6  C   UNL     1      26.984  45.061  53.036  1.00  0.00     0.152 C 
BRANCH   6   7
HETATM    7  C   UNL     1      28.006  44.154  53.520  1.00  0.00     0.011 A 
HETATM    8  C   UNL     1      28.943  44.412  54.574  1.00  0.00     0.004 A 
HETATM    9  C   UNL     1      29.735  43.272  54.717  1.00  0.00     0.043 A 
HETATM   10  C   UNL     1      29.194  45.515  55.418  1.00  0.00     0.014 A 
HETATM   11  C   UNL     1      30.761  43.177  55.667  1.00  0.00     0.030 A 
HETATM   12  N   UNL     1      29.303  42.359  53.784  1.00  0.00    -0.364 N 
HETATM   13  C   UNL     1      30.986  44.284  56.492  1.00  0.00     0.002 A 
HETATM   14  C   UNL     1      30.217  45.437  56.371  1.00  0.00     0.001 A 
HETATM   15  H   UNL     1      29.701  41.439  53.655  1.00  0.00     0.165 HD
HETATM   16  C   UNL     1      28.267  42.879  53.056  1.00  0.00     0.102 A 
ENDBRANCH   6   7
ENDBRANCH   2   5
BRANCH   1  17
HETATM   17  C   UNL     1      24.282  47.390  50.244  1.00  0.00     0.280 C 
BRANCH  17  18
HETATM   18  O   UNL     1      24.018  47.447  48.840  1.00  0.00    -0.341 OA
BRANCH  18  19
HETATM   19  C   UNL     1      23.311  48.592  48.557  1.00  0.00     0.081 A 
HETATM   20  C   UNL     1      21.913  48.545  48.428  1.00  0.00    -0.028 A 
HETATM   21  C   UNL     1      21.138  47.267  48.565  1.00  0.00     0.051 C 
HETATM   22  C   UNL     1      21.220  49.743  48.204  1.00  0.00     0.009 A 
HETATM   23  C   UNL     1      21.910  50.946  48.053  1.00  0.00     0.001 A 
HETATM   24  C   UNL     1      23.302  50.967  48.118  1.00  0.00     0.009 A 
HETATM   25  C   UNL     1      24.021  49.792  48.371  1.00  0.00    -0.028 A 
HETATM   26  C   UNL     1      25.523  49.828  48.384  1.00  0.00     0.051 C 
ENDBRANCH  18  19
ENDBRANCH  17  18
ENDBRANCH   1  17
TORSDOF 5
ENDMDL
MODEL 8
REMARK VINA RESULT:      -8.4      2.568      9.597
REMARK  5 active torsions:
REMARK  status: ('A' for Active; 'I' for Inactive)
REMARK    1  A    between atoms: C_3  and  O_4 
REMARK    2  A    between atoms: O_4  and  C_5 
REMARK    3  A    between atoms: C_5  and  C_6 
REMARK       I    between atoms: C_6  and  N_7 
REMARK    4  A    between atoms: N_7  and  N_8 
REMARK    5  A    between atoms: C_9  and  C_10 
ROOT
HETATM    1  C   UNL     1      23.862  47.546  49.448  1.00  0.00     0.261 C 
HETATM    2  N   UNL     1      23.964  46.387  50.210  1.00  0.00    -0.246 N 
HETATM    3  O   UNL     1      24.744  48.393  49.303  1.00  0.00    -0.269 OA
HETATM    4  H   UNL     1      23.275  45.659  50.021  1.00  0.00     0.192 HD
ENDROOT
BRANCH   2   5
HETATM    5  N   UNL     1      25.111  45.941  50.832  1.00  0.00    -0.184 NA
HETATM    6  C   UNL     1      24.976  45.235  51.910  1.00  0.00     0.152 C 
BRANCH   6   7
HETATM    7  C   UNL     1      26.147  44.781  52.635  1.00  0.00     0.011 A 
HETATM    8  C   UNL     1      26.872  45.517  53.629  1.00  0.00     0.004 A 
HETATM    9  C   UNL     1      27.918  44.706  54.071  1.00  0.00     0.043 A 
HETATM   10  C   UNL     1      26.738  46.806  54.190  1.00  0.00     0.014 A 
HETATM   11  C   UNL     1      28.831  45.115  55.052  1.00  0.00     0.030 A 
HETATM   12  N   UNL     1      27.837  43.525  53.370  1.00  0.00    -0.364 N 
HETATM   13  C   UNL     1      28.673  46.395  55.593  1.00  0.00     0.002 A 
HETATM   14  C   UNL     1      27.643  47.230  55.169  1.00  0.00     0.001 A 
HETATM   15  H   UNL     1      28.475  42.748  53.482  1.00  0.00     0.165 HD
HETATM   16  C   UNL     1      26.780  43.560  52.502  1.00  0.00     0.102 A 
ENDBRANCH   6   7
ENDBRANCH   2   5
BRANCH   1  17
HETATM   17  C   UNL     1      22.484  47.740  48.826  1.00  0.00     0.280 C 
BRANCH  17  18
HETATM   18  O   UNL     1      22.506  48.664  47.735  1.00  0.00    -0.341 OA
BRANCH  18  19
HETATM   19  C   UNL     1      21.428  49.512  47.836  1.00  0.00     0.081 A 
HETATM   20  C   UNL     1      20.171  49.117  47.348  1.00  0.00    -0.028 A 
HETATM   21  C   UNL     1      19.951  47.790  46.683  1.00  0.00     0.051 C 
HETATM   22  C   UNL     1      19.081  49.981  47.527  1.00  0.00     0.009 A 
HETATM   23  C   UNL     1      19.254  51.229  48.124  1.00  0.00     0.001 A 
HETATM   24  C   UNL     1      20.520  51.635  48.545  1.00  0.00     0.009 A 
HETATM   25  C   UNL     1      21.623  50.782  48.407  1.00  0.00    -0.028 A 
HETATM   26  C   UNL     1      22.987  51.260  48.818  1.00  0.00     0.051 C 
ENDBRANCH  18  19
ENDBRANCH  17  18
ENDBRANCH   1  17
TORSDOF 5
ENDMDL
MODEL 9
REMARK VINA RESULT:      -8.2      3.306      9.547
REMARK  5 active torsions:
REMARK  status: ('A' for Active; 'I' for Inactive)
REMARK    1  A    between atoms: C_3  and  O_4 
REMARK    2  A    between atoms: O_4  and  C_5 
REMARK    3  A    between atoms: C_5  and  C_6 
REMARK       I    between atoms: C_6  and  N_7 
REMARK    4  A    between atoms: N_7  and  N_8 
REMARK    5  A    between atoms: C_9  and  C_10 
ROOT
HETATM    1  C   UNL     1      22.058  47.037  48.143  1.00  0.00     0.261 C 
HETATM    2  N   UNL     1      22.767  46.821  49.320  1.00  0.00    -0.246 N 
HETATM    3  O   UNL     1      22.307  46.530  47.049  1.00  0.00    -0.269 OA
HETATM    4  H   UNL     1      22.294  47.080  50.186  1.00  0.00     0.192 HD
ENDROOT
BRANCH   2   5
HETATM    5  N   UNL     1      23.794  45.915  49.477  1.00  0.00    -0.184 NA
HETATM    6  C   UNL     1      24.634  46.118  50.443  1.00  0.00     0.152 C 
BRANCH   6   7
HETATM    7  C   UNL     1      25.763  45.226  50.626  1.00  0.00     0.011 A 
HETATM    8  C   UNL     1      26.536  45.065  51.822  1.00  0.00     0.004 A 
HETATM    9  C   UNL     1      27.515  44.105  51.562  1.00  0.00     0.043 A 
HETATM   10  C   UNL     1      26.497  45.655  53.104  1.00  0.00     0.014 A 
HETATM   11  C   UNL     1      28.450  43.699  52.522  1.00  0.00     0.030 A 
HETATM   12  N   UNL     1      27.348  43.702  50.258  1.00  0.00    -0.364 N 
HETATM   13  C   UNL     1      28.387  44.296  53.785  1.00  0.00     0.002 A 
HETATM   14  C   UNL     1      27.426  45.261  54.074  1.00  0.00     0.001 A 
HETATM   15  H   UNL     1      27.924  43.013  49.793  1.00  0.00     0.165 HD
HETATM   16  C   UNL     1      26.302  44.371  49.683  1.00  0.00     0.102 A 
ENDBRANCH   6   7
ENDBRANCH   2   5
BRANCH   1  17
HETATM   17  C   UNL     1      20.930  48.051  48.294  1.00  0.00     0.280 C 
BRANCH  17  18
HETATM   18  O   UNL     1      21.037  48.806  49.504  1.00  0.00    -0.341 OA
BRANCH  18  19
HETATM   19  C   UNL     1      20.205  49.899  49.432  1.00  0.00     0.081 A 
HETATM   20  C   UNL     1      20.631  51.069  48.782  1.00  0.00    -0.028 A 
HETATM   21  C   UNL     1      21.995  51.194  48.168  1.00  0.00     0.051 C 
HETATM   22  C   UNL     1      19.732  52.139  48.672  1.00  0.00     0.009 A 
HETATM   23  C   UNL     1      18.463  52.064  49.247  1.00  0.00     0.001 A 
HETATM   24  C   UNL     1      18.078  50.921  49.946  1.00  0.00     0.009 A 
HETATM   25  C   UNL     1      18.943  49.824  50.048  1.00  0.00    -0.028 A 
HETATM   26  C   UNL     1      18.528  48.623  50.850  1.00  0.00     0.051 C 
ENDBRANCH  18  19
ENDBRANCH  17  18
ENDBRANCH   1  17
TORSDOF 5
ENDMDL
MODEL 10
REMARK VINA RESULT:      -8.2      2.061      2.848
REMARK  5 active torsions:
REMARK  status: ('A' for Active; 'I' for Inactive)
REMARK    1  A    between atoms: C_3  and  O_4 
REMARK    2  A    between atoms: O_4  and  C_5 
REMARK    3  A    between atoms: C_5  and  C_6 
REMARK       I    between atoms: C_6  and  N_7 
REMARK    4  A    between atoms: N_7  and  N_8 
REMARK    5  A    between atoms: C_9  and  C_10 
ROOT
HETATM    1  C   UNL     1      24.951  44.701  51.327  1.00  0.00     0.261 C 
HETATM    2  N   UNL     1      24.902  45.835  50.521  1.00  0.00    -0.246 N 
HETATM    3  O   UNL     1      24.049  43.874  51.463  1.00  0.00    -0.269 OA
HETATM    4  H   UNL     1      25.796  46.268  50.295  1.00  0.00     0.192 HD
ENDROOT
BRANCH   2   5
HETATM    5  N   UNL     1      23.876  46.152  49.656  1.00  0.00    -0.184 NA
HETATM    6  C   UNL     1      23.586  47.406  49.501  1.00  0.00     0.152 C 
BRANCH   6   7
HETATM    7  C   UNL     1      22.485  47.798  48.642  1.00  0.00     0.011 A 
HETATM    8  C   UNL     1      21.822  49.068  48.635  1.00  0.00     0.004 A 
HETATM    9  C   UNL     1      20.832  49.018  47.652  1.00  0.00     0.043 A 
HETATM   10  C   UNL     1      21.969  50.259  49.380  1.00  0.00     0.014 A 
HETATM   11  C   UNL     1      19.988  50.101  47.372  1.00  0.00     0.030 A 
HETATM   12  N   UNL     1      20.886  47.765  47.088  1.00  0.00    -0.364 N 
HETATM   13  C   UNL     1      20.157  51.268  48.123  1.00  0.00     0.002 A 
HETATM   14  C   UNL     1      21.132  51.348  49.113  1.00  0.00     0.001 A 
HETATM   15  H   UNL     1      20.277  47.443  46.348  1.00  0.00     0.165 HD
HETATM   16  C   UNL     1      21.873  47.022  47.677  1.00  0.00     0.102 A 
ENDBRANCH   6   7
ENDBRANCH   2   5
BRANCH   1  17
HETATM   17  C   UNL     1      26.245  44.584  52.125  1.00  0.00     0.280 C 
BRANCH  17  18
HETATM   18  O   UNL     1      26.012  44.548  53.535  1.00  0.00    -0.341 OA
BRANCH  18  19
HETATM   19  C   UNL     1      27.067  45.144  54.185  1.00  0.00     0.081 A 
HETATM   20  C   UNL     1      27.062  46.530  54.413  1.00  0.00    -0.028 A 
HETATM   21  C   UNL     1      25.942  47.415  53.950  1.00  0.00     0.051 C 
HETATM   22  C   UNL     1      28.124  47.094  55.135  1.00  0.00     0.009 A 
HETATM   23  C   UNL     1      29.191  46.304  55.564  1.00  0.00     0.001 A 
HETATM   24  C   UNL     1      29.214  44.941  55.272  1.00  0.00     0.009 A 
HETATM   25  C   UNL     1      28.153  44.343  54.580  1.00  0.00    -0.028 A 
HETATM   26  C   UNL     1      28.223  42.883  54.229  1.00  0.00     0.051 C 
ENDBRANCH  18  19
ENDBRANCH  17  18
ENDBRANCH   1  17
TORSDOF 5
ENDMDL
