MODEL 1
REMARK VINA RESULT:      -7.9      0.000      0.000
REMARK  5 active torsions:
REMARK  status: ('A' for Active; 'I' for Inactive)
REMARK    1  A    between atoms: C_3  and  N_4 
REMARK       I    between atoms: N_4  and  C_5 
REMARK       I    between atoms: C_5  and  N_6 
REMARK    2  A    between atoms: N_6  and  C_7 
REMARK    3  A    between atoms: C_7  and  C_8 
REMARK    4  A    between atoms: C_8  and  C_9 
REMARK    5  A    between atoms: N_15  and  C_16 
ROOT
HETATM    1  C   UNL     1      26.202  48.292  54.645  1.00  0.00     0.054 C 
HETATM    2  C   UNL     1      26.930  47.020  54.868  1.00  0.00     0.003 A 
HETATM    3  C   UNL     1      26.583  45.711  54.459  1.00  0.00     0.159 A 
HETATM    4  N   UNL     1      27.513  44.824  54.817  1.00  0.00    -0.149 NA
HETATM    5  N   UNL     1      28.456  45.529  55.503  1.00  0.00    -0.241 N 
HETATM    6  C   UNL     1      28.148  46.868  55.495  1.00  0.00     0.129 A 
ENDROOT
BRANCH   3   7
HETATM    7  N   UNL     1      25.432  45.392  53.772  1.00  0.00    -0.291 N 
HETATM    8  C   UNL     1      25.284  44.656  52.635  1.00  0.00     0.322 C 
HETATM    9  N   UNL     1      26.418  44.241  52.011  1.00  0.00    -0.339 N 
HETATM   10  O   UNL     1      24.154  44.420  52.213  1.00  0.00    -0.247 OA
HETATM   11  H   UNL     1      27.266  44.351  52.564  1.00  0.00     0.164 HD
HETATM   12  H   UNL     1      24.556  45.713  54.153  1.00  0.00     0.172 HD
BRANCH   9  13
HETATM   13  C   UNL     1      26.410  43.324  50.883  1.00  0.00     0.082 C 
HETATM   14  C   UNL     1      26.470  44.102  49.572  1.00  0.00     0.032 C 
BRANCH  13  15
HETATM   15  C   UNL     1      27.522  42.262  50.998  1.00  0.00     0.029 C 
BRANCH  15  16
HETATM   16  C   UNL     1      28.290  42.319  52.293  1.00  0.00    -0.013 A 
HETATM   17  C   UNL     1      27.858  41.450  53.446  1.00  0.00     0.005 A 
HETATM   18  C   UNL     1      29.146  41.157  52.729  1.00  0.00     0.005 A 
ENDBRANCH  15  16
ENDBRANCH  13  15
ENDBRANCH   9  13
ENDBRANCH   3   7
BRANCH   5  19
HETATM   19  C   UNL     1      29.587  44.848  56.051  1.00  0.00     0.079 A 
HETATM   20  C   UNL     1      30.168  45.130  57.298  1.00  0.00     0.062 A 
HETATM   21 CL   UNL     1      29.531  46.214  58.485  1.00  0.00    -0.082 Cl
HETATM   22  C   UNL     1      31.312  44.424  57.711  1.00  0.00     0.026 A 
HETATM   23  C   UNL     1      31.874  43.431  56.911  1.00  0.00     0.002 A 
HETATM   24  C   UNL     1      31.289  43.121  55.692  1.00  0.00     0.002 A 
HETATM   25  C   UNL     1      30.155  43.818  55.266  1.00  0.00     0.033 A 
ENDBRANCH   5  19
TORSDOF 5
ENDMDL
MODEL 2
REMARK VINA RESULT:      -7.8      2.354      4.566
REMARK  5 active torsions:
REMARK  status: ('A' for Active; 'I' for Inactive)
REMARK    1  A    between atoms: C_3  and  N_4 
REMARK       I    between atoms: N_4  and  C_5 
REMARK       I    between atoms: C_5  and  N_6 
REMARK    2  A    between atoms: N_6  and  C_7 
REMARK    3  A    between atoms: C_7  and  C_8 
REMARK    4  A    between atoms: C_8  and  C_9 
REMARK    5  A    between atoms: N_15  and  C_16 
ROOT
HETATM    1  C   UNL     1      28.433  40.507  51.156  1.00  0.00     0.054 C 
HETATM    2  C   UNL     1      28.394  41.594  52.163  1.00  0.00     0.003 A 
HETATM    3  C   UNL     1      27.366  42.529  52.425  1.00  0.00     0.159 A 
HETATM    4  N   UNL     1      27.685  43.336  53.440  1.00  0.00    -0.149 NA
HETATM    5  N   UNL     1      28.940  42.972  53.824  1.00  0.00    -0.241 N 
HETATM    6  C   UNL     1      29.363  41.883  53.100  1.00  0.00     0.129 A 
ENDROOT
BRANCH   3   7
HETATM    7  N   UNL     1      26.181  42.597  51.725  1.00  0.00    -0.291 N 
HETATM    8  C   UNL     1      25.506  43.693  51.279  1.00  0.00     0.322 C 
HETATM    9  N   UNL     1      25.993  44.911  51.638  1.00  0.00    -0.339 N 
HETATM   10  O   UNL     1      24.491  43.543  50.603  1.00  0.00    -0.247 OA
HETATM   11  H   UNL     1      26.929  44.888  52.038  1.00  0.00     0.164 HD
HETATM   12  H   UNL     1      25.738  41.729  51.470  1.00  0.00     0.172 HD
BRANCH   9  13
HETATM   13  C   UNL     1      25.468  46.159  51.109  1.00  0.00     0.082 C 
HETATM   14  C   UNL     1      25.338  47.191  52.226  1.00  0.00     0.032 C 
BRANCH  13  15
HETATM   15  C   UNL     1      26.300  46.672  49.916  1.00  0.00     0.029 C 
BRANCH  15  16
HETATM   16  C   UNL     1      26.655  48.133  50.002  1.00  0.00    -0.013 A 
HETATM   17  C   UNL     1      27.692  48.698  49.065  1.00  0.00     0.005 A 
HETATM   18  C   UNL     1      26.250  49.087  48.906  1.00  0.00     0.005 A 
ENDBRANCH  15  16
ENDBRANCH  13  15
ENDBRANCH   9  13
ENDBRANCH   3   7
BRANCH   5  19
HETATM   19  C   UNL     1      29.586  43.676  54.888  1.00  0.00     0.079 A 
HETATM   20  C   UNL     1      29.265  44.979  55.300  1.00  0.00     0.062 A 
HETATM   21 CL   UNL     1      27.924  45.914  54.736  1.00  0.00    -0.082 Cl
HETATM   22  C   UNL     1      30.004  45.587  56.330  1.00  0.00     0.026 A 
HETATM   23  C   UNL     1      31.044  44.911  56.968  1.00  0.00     0.002 A 
HETATM   24  C   UNL     1      31.347  43.611  56.591  1.00  0.00     0.002 A 
HETATM   25  C   UNL     1      30.624  42.996  55.566  1.00  0.00     0.033 A 
ENDBRANCH   5  19
TORSDOF 5
ENDMDL
MODEL 3
REMARK VINA RESULT:      -7.8      2.428      3.702
REMARK  5 active torsions:
REMARK  status: ('A' for Active; 'I' for Inactive)
REMARK    1  A    between atoms: C_3  and  N_4 
REMARK       I    between atoms: N_4  and  C_5 
REMARK       I    between atoms: C_5  and  N_6 
REMARK    2  A    between atoms: N_6  and  C_7 
REMARK    3  A    between atoms: C_7  and  C_8 
REMARK    4  A    between atoms: C_8  and  C_9 
REMARK    5  A    between atoms: N_15  and  C_16 
ROOT
HETATM    1  C   UNL     1      25.953  47.858  54.263  1.00  0.00     0.054 C 
HETATM    2  C   UNL     1      26.772  46.673  54.613  1.00  0.00     0.003 A 
HETATM    3  C   UNL     1      26.535  45.309  54.324  1.00  0.00     0.159 A 
HETATM    4  N   UNL     1      27.523  44.534  54.775  1.00  0.00    -0.149 NA
HETATM    5  N   UNL     1      28.395  45.370  55.404  1.00  0.00    -0.241 N 
HETATM    6  C   UNL     1      27.986  46.675  55.267  1.00  0.00     0.129 A 
ENDROOT
BRANCH   3   7
HETATM    7  N   UNL     1      25.426  44.838  53.656  1.00  0.00    -0.291 N 
HETATM    8  C   UNL     1      25.046  45.045  52.364  1.00  0.00     0.322 C 
HETATM    9  N   UNL     1      25.794  45.910  51.628  1.00  0.00    -0.339 N 
HETATM   10  O   UNL     1      24.049  44.474  51.929  1.00  0.00    -0.247 OA
HETATM   11  H   UNL     1      26.683  46.164  52.054  1.00  0.00     0.164 HD
HETATM   12  H   UNL     1      24.799  44.231  54.160  1.00  0.00     0.172 HD
BRANCH   9  13
HETATM   13  C   UNL     1      25.599  46.107  50.201  1.00  0.00     0.082 C 
HETATM   14  C   UNL     1      24.273  46.817  49.944  1.00  0.00     0.032 C 
BRANCH  13  15
HETATM   15  C   UNL     1      26.798  46.828  49.552  1.00  0.00     0.029 C 
BRANCH  15  16
HETATM   16  C   UNL     1      26.817  48.315  49.788  1.00  0.00    -0.013 A 
HETATM   17  C   UNL     1      27.942  49.139  49.217  1.00  0.00     0.005 A 
HETATM   18  C   UNL     1      26.556  49.275  48.654  1.00  0.00     0.005 A 
ENDBRANCH  15  16
ENDBRANCH  13  15
ENDBRANCH   9  13
ENDBRANCH   3   7
BRANCH   5  19
HETATM   19  C   UNL     1      29.565  44.835  56.027  1.00  0.00     0.079 A 
HETATM   20  C   UNL     1      30.374  43.824  55.484  1.00  0.00     0.062 A 
HETATM   21 CL   UNL     1      30.229  43.163  53.892  1.00  0.00    -0.082 Cl
HETATM   22  C   UNL     1      31.475  43.343  56.214  1.00  0.00     0.026 A 
HETATM   23  C   UNL     1      31.793  43.864  57.467  1.00  0.00     0.002 A 
HETATM   24  C   UNL     1      31.020  44.885  58.000  1.00  0.00     0.002 A 
HETATM   25  C   UNL     1      29.920  45.370  57.287  1.00  0.00     0.033 A 
ENDBRANCH   5  19
TORSDOF 5
ENDMDL
MODEL 4
REMARK VINA RESULT:      -7.6      1.590      2.047
REMARK  5 active torsions:
REMARK  status: ('A' for Active; 'I' for Inactive)
REMARK    1  A    between atoms: C_3  and  N_4 
REMARK       I    between atoms: N_4  and  C_5 
REMARK       I    between atoms: C_5  and  N_6 
REMARK    2  A    between atoms: N_6  and  C_7 
REMARK    3  A    between atoms: C_7  and  C_8 
REMARK    4  A    between atoms: C_8  and  C_9 
REMARK    5  A    between atoms: N_15  and  C_16 
ROOT
HETATM    1  C   UNL     1      26.132  47.923  54.181  1.00  0.00     0.054 C 
HETATM    2  C   UNL     1      26.908  46.716  54.550  1.00  0.00     0.003 A 
HETATM    3  C   UNL     1      26.626  45.357  54.276  1.00  0.00     0.159 A 
HETATM    4  N   UNL     1      27.584  44.554  54.743  1.00  0.00    -0.149 NA
HETATM    5  N   UNL     1      28.481  45.368  55.368  1.00  0.00    -0.241 N 
HETATM    6  C   UNL     1      28.117  46.684  55.212  1.00  0.00     0.129 A 
ENDROOT
BRANCH   3   7
HETATM    7  N   UNL     1      25.505  44.916  53.606  1.00  0.00    -0.291 N 
HETATM    8  C   UNL     1      25.416  44.077  52.537  1.00  0.00     0.322 C 
HETATM    9  N   UNL     1      26.581  43.672  51.965  1.00  0.00    -0.339 N 
HETATM   10  O   UNL     1      24.308  43.744  52.123  1.00  0.00    -0.247 OA
HETATM   11  H   UNL     1      27.412  43.876  52.516  1.00  0.00     0.164 HD
HETATM   12  H   UNL     1      24.607  45.221  53.947  1.00  0.00     0.172 HD
BRANCH   9  13
HETATM   13  C   UNL     1      26.640  42.662  50.922  1.00  0.00     0.082 C 
HETATM   14  C   UNL     1      26.673  43.325  49.548  1.00  0.00     0.032 C 
BRANCH  13  15
HETATM   15  C   UNL     1      27.811  41.681  51.139  1.00  0.00     0.029 C 
BRANCH  15  16
HETATM   16  C   UNL     1      27.670  40.385  50.385  1.00  0.00    -0.013 A 
HETATM   17  C   UNL     1      28.504  40.153  49.152  1.00  0.00     0.005 A 
HETATM   18  C   UNL     1      28.780  39.364  50.400  1.00  0.00     0.005 A 
ENDBRANCH  15  16
ENDBRANCH  13  15
ENDBRANCH   9  13
ENDBRANCH   3   7
BRANCH   5  19
HETATM   19  C   UNL     1      29.627  44.800  56.005  1.00  0.00     0.079 A 
HETATM   20  C   UNL     1      30.406  43.758  55.477  1.00  0.00     0.062 A 
HETATM   21 CL   UNL     1      30.251  43.086  53.891  1.00  0.00    -0.082 Cl
HETATM   22  C   UNL     1      31.485  43.247  56.220  1.00  0.00     0.026 A 
HETATM   23  C   UNL     1      31.811  43.771  57.471  1.00  0.00     0.002 A 
HETATM   24  C   UNL     1      31.069  44.822  57.988  1.00  0.00     0.002 A 
HETATM   25  C   UNL     1      29.991  45.336  57.262  1.00  0.00     0.033 A 
ENDBRANCH   5  19
TORSDOF 5
ENDMDL
MODEL 5
REMARK VINA RESULT:      -7.4      3.647      6.963
REMARK  5 active torsions:
REMARK  status: ('A' for Active; 'I' for Inactive)
REMARK    1  A    between atoms: C_3  and  N_4 
REMARK       I    between atoms: N_4  and  C_5 
REMARK       I    between atoms: C_5  and  N_6 
REMARK    2  A    between atoms: N_6  and  C_7 
REMARK    3  A    between atoms: C_7  and  C_8 
REMARK    4  A    between atoms: C_8  and  C_9 
REMARK    5  A    between atoms: N_15  and  C_16 
ROOT
HETATM    1  C   UNL     1      25.433  42.456  50.179  1.00  0.00     0.054 C 
HETATM    2  C   UNL     1      25.627  43.904  50.431  1.00  0.00     0.003 A 
HETATM    3  C   UNL     1      25.800  44.579  51.663  1.00  0.00     0.159 A 
HETATM    4  N   UNL     1      25.983  45.888  51.482  1.00  0.00    -0.149 NA
HETATM    5  N   UNL     1      25.886  46.096  50.139  1.00  0.00    -0.241 N 
HETATM    6  C   UNL     1      25.728  44.899  49.482  1.00  0.00     0.129 A 
ENDROOT
BRANCH   3   7
HETATM    7  N   UNL     1      25.786  43.962  52.895  1.00  0.00    -0.291 N 
HETATM    8  C   UNL     1      26.711  44.013  53.894  1.00  0.00     0.322 C 
HETATM    9  N   UNL     1      27.866  44.683  53.637  1.00  0.00    -0.339 N 
HETATM   10  O   UNL     1      26.480  43.444  54.958  1.00  0.00    -0.247 OA
HETATM   11  H   UNL     1      27.844  45.250  52.792  1.00  0.00     0.164 HD
HETATM   12  H   UNL     1      24.978  43.406  53.131  1.00  0.00     0.172 HD
BRANCH   9  13
HETATM   13  C   UNL     1      28.869  44.948  54.655  1.00  0.00     0.082 C 
HETATM   14  C   UNL     1      28.254  45.738  55.807  1.00  0.00     0.032 C 
BRANCH  13  15
HETATM   15  C   UNL     1      29.565  43.654  55.124  1.00  0.00     0.029 C 
BRANCH  15  16
HETATM   16  C   UNL     1      30.924  43.878  55.733  1.00  0.00    -0.013 A 
HETATM   17  C   UNL     1      31.025  44.420  57.136  1.00  0.00     0.005 A 
HETATM   18  C   UNL     1      31.418  42.998  56.854  1.00  0.00     0.005 A 
ENDBRANCH  15  16
ENDBRANCH  13  15
ENDBRANCH   9  13
ENDBRANCH   3   7
BRANCH   5  19
HETATM   19  C   UNL     1      26.011  47.421  49.618  1.00  0.00     0.079 A 
HETATM   20  C   UNL     1      24.936  48.241  49.240  1.00  0.00     0.062 A 
HETATM   21 CL   UNL     1      23.262  47.891  49.497  1.00  0.00    -0.082 Cl
HETATM   22  C   UNL     1      25.186  49.512  48.693  1.00  0.00     0.026 A 
HETATM   23  C   UNL     1      26.488  49.985  48.534  1.00  0.00     0.002 A 
HETATM   24  C   UNL     1      27.556  49.197  48.935  1.00  0.00     0.002 A 
HETATM   25  C   UNL     1      27.323  47.930  49.475  1.00  0.00     0.033 A 
ENDBRANCH   5  19
TORSDOF 5
ENDMDL
MODEL 6
REMARK VINA RESULT:      -7.4      6.423      8.786
REMARK  5 active torsions:
REMARK  status: ('A' for Active; 'I' for Inactive)
REMARK    1  A    between atoms: C_3  and  N_4 
REMARK       I    between atoms: N_4  and  C_5 
REMARK       I    between atoms: C_5  and  N_6 
REMARK    2  A    between atoms: N_6  and  C_7 
REMARK    3  A    between atoms: C_7  and  C_8 
REMARK    4  A    between atoms: C_8  and  C_9 
REMARK    5  A    between atoms: N_15  and  C_16 
ROOT
HETATM    1  C   UNL     1      23.827  49.930  47.985  1.00  0.00     0.054 C 
HETATM    2  C   UNL     1      23.985  48.718  48.822  1.00  0.00     0.003 A 
HETATM    3  C   UNL     1      23.154  47.576  48.903  1.00  0.00     0.159 A 
HETATM    4  N   UNL     1      23.648  46.669  49.749  1.00  0.00    -0.149 NA
HETATM    5  N   UNL     1      24.780  47.222  50.267  1.00  0.00    -0.241 N 
HETATM    6  C   UNL     1      25.031  48.437  49.676  1.00  0.00     0.129 A 
ENDROOT
BRANCH   3   7
HETATM    7  N   UNL     1      21.984  47.415  48.193  1.00  0.00    -0.291 N 
HETATM    8  C   UNL     1      20.742  47.909  48.458  1.00  0.00     0.322 C 
HETATM    9  N   UNL     1      20.577  48.581  49.628  1.00  0.00    -0.339 N 
HETATM   10  O   UNL     1      19.831  47.712  47.657  1.00  0.00    -0.247 OA
HETATM   11  H   UNL     1      21.447  48.823  50.100  1.00  0.00     0.164 HD
HETATM   12  H   UNL     1      22.024  46.883  47.338  1.00  0.00     0.172 HD
BRANCH   9  13
HETATM   13  C   UNL     1      19.355  49.290  49.967  1.00  0.00     0.082 C 
HETATM   14  C   UNL     1      18.666  48.618  51.152  1.00  0.00     0.032 C 
BRANCH  13  15
HETATM   15  C   UNL     1      19.609  50.793  50.200  1.00  0.00     0.029 C 
BRANCH  15  16
HETATM   16  C   UNL     1      19.962  51.554  48.950  1.00  0.00    -0.013 A 
HETATM   17  C   UNL     1      19.232  51.248  47.667  1.00  0.00     0.005 A 
HETATM   18  C   UNL     1      19.000  52.558  48.365  1.00  0.00     0.005 A 
ENDBRANCH  15  16
ENDBRANCH  13  15
ENDBRANCH   9  13
ENDBRANCH   3   7
BRANCH   5  19
HETATM   19  C   UNL     1      25.538  46.499  51.241  1.00  0.00     0.079 A 
HETATM   20  C   UNL     1      26.242  45.311  50.991  1.00  0.00     0.062 A 
HETATM   21 CL   UNL     1      26.484  44.589  49.438  1.00  0.00    -0.082 Cl
HETATM   22  C   UNL     1      26.913  44.662  52.042  1.00  0.00     0.026 A 
HETATM   23  C   UNL     1      26.910  45.189  53.333  1.00  0.00     0.002 A 
HETATM   24  C   UNL     1      26.245  46.380  53.585  1.00  0.00     0.002 A 
HETATM   25  C   UNL     1      25.570  47.033  52.550  1.00  0.00     0.033 A 
ENDBRANCH   5  19
TORSDOF 5
ENDMDL
MODEL 7
REMARK VINA RESULT:      -7.4      2.494      3.302
REMARK  5 active torsions:
REMARK  status: ('A' for Active; 'I' for Inactive)
REMARK    1  A    between atoms: C_3  and  N_4 
REMARK       I    between atoms: N_4  and  C_5 
REMARK       I    between atoms: C_5  and  N_6 
REMARK    2  A    between atoms: N_6  and  C_7 
REMARK    3  A    between atoms: C_7  and  C_8 
REMARK    4  A    between atoms: C_8  and  C_9 
REMARK    5  A    between atoms: N_15  and  C_16 
ROOT
HETATM    1  C   UNL     1      24.915  45.937  51.226  1.00  0.00     0.054 C 
HETATM    2  C   UNL     1      25.873  45.128  52.016  1.00  0.00     0.003 A 
HETATM    3  C   UNL     1      26.023  43.722  52.065  1.00  0.00     0.159 A 
HETATM    4  N   UNL     1      27.024  43.364  52.871  1.00  0.00    -0.149 NA
HETATM    5  N   UNL     1      27.512  44.522  53.396  1.00  0.00    -0.241 N 
HETATM    6  C   UNL     1      26.865  45.603  52.847  1.00  0.00     0.129 A 
ENDROOT
BRANCH   3   7
HETATM    7  N   UNL     1      25.237  42.832  51.364  1.00  0.00    -0.291 N 
HETATM    8  C   UNL     1      25.614  41.807  50.550  1.00  0.00     0.322 C 
HETATM    9  N   UNL     1      26.943  41.672  50.295  1.00  0.00    -0.339 N 
HETATM   10  O   UNL     1      24.754  41.073  50.067  1.00  0.00    -0.247 OA
HETATM   11  H   UNL     1      27.545  42.229  50.898  1.00  0.00     0.164 HD
HETATM   12  H   UNL     1      24.237  42.909  51.468  1.00  0.00     0.172 HD
BRANCH   9  13
HETATM   13  C   UNL     1      27.498  40.540  49.573  1.00  0.00     0.082 C 
HETATM   14  C   UNL     1      27.972  40.977  48.190  1.00  0.00     0.032 C 
BRANCH  13  15
HETATM   15  C   UNL     1      28.599  39.827  50.383  1.00  0.00     0.029 C 
BRANCH  15  16
HETATM   16  C   UNL     1      28.872  38.416  49.934  1.00  0.00    -0.013 A 
HETATM   17  C   UNL     1      30.232  38.065  49.385  1.00  0.00     0.005 A 
HETATM   18  C   UNL     1      29.803  37.527  50.720  1.00  0.00     0.005 A 
ENDBRANCH  15  16
ENDBRANCH  13  15
ENDBRANCH   9  13
ENDBRANCH   3   7
BRANCH   5  19
HETATM   19  C   UNL     1      28.591  44.475  54.333  1.00  0.00     0.079 A 
HETATM   20  C   UNL     1      28.838  45.440  55.322  1.00  0.00     0.062 A 
HETATM   21 CL   UNL     1      27.800  46.764  55.722  1.00  0.00    -0.082 Cl
HETATM   22  C   UNL     1      29.962  45.311  56.158  1.00  0.00     0.026 A 
HETATM   23  C   UNL     1      30.830  44.227  56.036  1.00  0.00     0.002 A 
HETATM   24  C   UNL     1      30.577  43.251  55.083  1.00  0.00     0.002 A 
HETATM   25  C   UNL     1      29.467  43.369  54.243  1.00  0.00     0.033 A 
ENDBRANCH   5  19
TORSDOF 5
ENDMDL
MODEL 8
REMARK VINA RESULT:      -7.3      5.564      8.008
REMARK  5 active torsions:
REMARK  status: ('A' for Active; 'I' for Inactive)
REMARK    1  A    between atoms: C_3  and  N_4 
REMARK       I    between atoms: N_4  and  C_5 
REMARK       I    between atoms: C_5  and  N_6 
REMARK    2  A    between atoms: N_6  and  C_7 
REMARK    3  A    between atoms: C_7  and  C_8 
REMARK    4  A    between atoms: C_8  and  C_9 
REMARK    5  A    between atoms: N_15  and  C_16 
ROOT
HETATM    1  C   UNL     1      23.145  45.091  48.768  1.00  0.00     0.054 C 
HETATM    2  C   UNL     1      23.946  45.864  49.746  1.00  0.00     0.003 A 
HETATM    3  C   UNL     1      24.268  47.242  49.744  1.00  0.00     0.159 A 
HETATM    4  N   UNL     1      24.983  47.579  50.819  1.00  0.00    -0.149 NA
HETATM    5  N   UNL     1      25.180  46.423  51.513  1.00  0.00    -0.241 N 
HETATM    6  C   UNL     1      24.512  45.385  50.909  1.00  0.00     0.129 A 
ENDROOT
BRANCH   3   7
HETATM    7  N   UNL     1      23.886  48.127  48.760  1.00  0.00    -0.291 N 
HETATM    8  C   UNL     1      22.667  48.691  48.534  1.00  0.00     0.322 C 
HETATM    9  N   UNL     1      21.634  48.272  49.314  1.00  0.00    -0.339 N 
HETATM   10  O   UNL     1      22.543  49.522  47.637  1.00  0.00    -0.247 OA
HETATM   11  H   UNL     1      21.916  47.723  50.124  1.00  0.00     0.164 HD
HETATM   12  H   UNL     1      24.593  48.441  48.113  1.00  0.00     0.172 HD
BRANCH   9  13
HETATM   13  C   UNL     1      20.321  48.894  49.288  1.00  0.00     0.082 C 
HETATM   14  C   UNL     1      19.235  47.842  49.496  1.00  0.00     0.032 C 
BRANCH  13  15
HETATM   15  C   UNL     1      20.220  50.061  50.291  1.00  0.00     0.029 C 
BRANCH  15  16
HETATM   16  C   UNL     1      20.141  51.418  49.642  1.00  0.00    -0.013 A 
HETATM   17  C   UNL     1      19.580  51.540  48.249  1.00  0.00     0.005 A 
HETATM   18  C   UNL     1      18.807  52.085  49.416  1.00  0.00     0.005 A 
ENDBRANCH  15  16
ENDBRANCH  13  15
ENDBRANCH   9  13
ENDBRANCH   3   7
BRANCH   5  19
HETATM   19  C   UNL     1      25.946  46.445  52.719  1.00  0.00     0.079 A 
HETATM   20  C   UNL     1      26.891  45.474  53.089  1.00  0.00     0.062 A 
HETATM   21 CL   UNL     1      27.444  44.174  52.091  1.00  0.00    -0.082 Cl
HETATM   22  C   UNL     1      27.550  45.576  54.327  1.00  0.00     0.026 A 
HETATM   23  C   UNL     1      27.297  46.639  55.192  1.00  0.00     0.002 A 
HETATM   24  C   UNL     1      26.391  47.622  54.823  1.00  0.00     0.002 A 
HETATM   25  C   UNL     1      25.725  47.530  53.598  1.00  0.00     0.033 A 
ENDBRANCH   5  19
TORSDOF 5
ENDMDL
MODEL 9
REMARK VINA RESULT:      -7.2      2.370      3.431
REMARK  5 active torsions:
REMARK  status: ('A' for Active; 'I' for Inactive)
REMARK    1  A    between atoms: C_3  and  N_4 
REMARK       I    between atoms: N_4  and  C_5 
REMARK       I    between atoms: C_5  and  N_6 
REMARK    2  A    between atoms: N_6  and  C_7 
REMARK    3  A    between atoms: C_7  and  C_8 
REMARK    4  A    between atoms: C_8  and  C_9 
REMARK    5  A    between atoms: N_15  and  C_16 
ROOT
HETATM    1  C   UNL     1      24.456  47.483  49.856  1.00  0.00     0.054 C 
HETATM    2  C   UNL     1      24.992  46.678  50.979  1.00  0.00     0.003 A 
HETATM    3  C   UNL     1      24.608  45.387  51.413  1.00  0.00     0.159 A 
HETATM    4  N   UNL     1      25.351  44.975  52.442  1.00  0.00    -0.149 NA
HETATM    5  N   UNL     1      26.198  46.004  52.726  1.00  0.00    -0.241 N 
HETATM    6  C   UNL     1      26.033  47.021  51.815  1.00  0.00     0.129 A 
ENDROOT
BRANCH   3   7
HETATM    7  N   UNL     1      23.597  44.645  50.842  1.00  0.00    -0.291 N 
HETATM    8  C   UNL     1      23.653  43.410  50.271  1.00  0.00     0.322 C 
HETATM    9  N   UNL     1      24.881  42.838  50.145  1.00  0.00    -0.339 N 
HETATM   10  O   UNL     1      22.617  42.879  49.878  1.00  0.00    -0.247 OA
HETATM   11  H   UNL     1      25.617  43.304  50.672  1.00  0.00     0.164 HD
HETATM   12  H   UNL     1      22.667  45.033  50.855  1.00  0.00     0.172 HD
BRANCH   9  13
HETATM   13  C   UNL     1      25.073  41.468  49.699  1.00  0.00     0.082 C 
HETATM   14  C   UNL     1      25.469  41.445  48.226  1.00  0.00     0.032 C 
BRANCH  13  15
HETATM   15  C   UNL     1      26.068  40.707  50.597  1.00  0.00     0.029 C 
BRANCH  15  16
HETATM   16  C   UNL     1      27.148  41.575  51.186  1.00  0.00    -0.013 A 
HETATM   17  C   UNL     1      27.658  41.282  52.574  1.00  0.00     0.005 A 
HETATM   18  C   UNL     1      28.543  41.037  51.384  1.00  0.00     0.005 A 
ENDBRANCH  15  16
ENDBRANCH  13  15
ENDBRANCH   9  13
ENDBRANCH   3   7
BRANCH   5  19
HETATM   19  C   UNL     1      27.118  45.884  53.813  1.00  0.00     0.079 A 
HETATM   20  C   UNL     1      27.270  46.822  54.846  1.00  0.00     0.062 A 
HETATM   21 CL   UNL     1      26.261  48.203  55.110  1.00  0.00    -0.082 Cl
HETATM   22  C   UNL     1      28.245  46.618  55.838  1.00  0.00     0.026 A 
HETATM   23  C   UNL     1      29.058  45.485  55.827  1.00  0.00     0.002 A 
HETATM   24  C   UNL     1      28.894  44.535  54.830  1.00  0.00     0.002 A 
HETATM   25  C   UNL     1      27.932  44.728  53.835  1.00  0.00     0.033 A 
ENDBRANCH   5  19
TORSDOF 5
ENDMDL
MODEL 10
REMARK VINA RESULT:      -6.9      3.401      4.713
REMARK  5 active torsions:
REMARK  status: ('A' for Active; 'I' for Inactive)
REMARK    1  A    between atoms: C_3  and  N_4 
REMARK       I    between atoms: N_4  and  C_5 
REMARK       I    between atoms: C_5  and  N_6 
REMARK    2  A    between atoms: N_6  and  C_7 
REMARK    3  A    between atoms: C_7  and  C_8 
REMARK    4  A    between atoms: C_8  and  C_9 
REMARK    5  A    between atoms: N_15  and  C_16 
ROOT
HETATM    1  C   UNL     1      24.458  43.198  51.176  1.00  0.00     0.054 C 
HETATM    2  C   UNL     1      25.852  43.375  51.649  1.00  0.00     0.003 A 
HETATM    3  C   UNL     1      27.062  43.223  50.932  1.00  0.00     0.159 A 
HETATM    4  N   UNL     1      28.121  43.505  51.693  1.00  0.00    -0.149 NA
HETATM    5  N   UNL     1      27.625  43.800  52.927  1.00  0.00    -0.241 N 
HETATM    6  C   UNL     1      26.251  43.782  52.904  1.00  0.00     0.129 A 
ENDROOT
BRANCH   3   7
HETATM    7  N   UNL     1      27.139  42.836  49.611  1.00  0.00    -0.291 N 
HETATM    8  C   UNL     1      27.480  41.626  49.087  1.00  0.00     0.322 C 
HETATM    9  N   UNL     1      27.899  40.668  49.957  1.00  0.00    -0.339 N 
HETATM   10  O   UNL     1      27.419  41.456  47.872  1.00  0.00    -0.247 OA
HETATM   11  H   UNL     1      27.727  40.885  50.936  1.00  0.00     0.164 HD
HETATM   12  H   UNL     1      26.890  43.516  48.910  1.00  0.00     0.172 HD
BRANCH   9  13
HETATM   13  C   UNL     1      28.146  39.292  49.558  1.00  0.00     0.082 C 
HETATM   14  C   UNL     1      29.273  38.695  50.395  1.00  0.00     0.032 C 
BRANCH  13  15
HETATM   15  C   UNL     1      26.859  38.444  49.599  1.00  0.00     0.029 C 
BRANCH  15  16
HETATM   16  C   UNL     1      26.489  37.830  48.274  1.00  0.00    -0.013 A 
HETATM   17  C   UNL     1      27.520  37.036  47.515  1.00  0.00     0.005 A 
HETATM   18  C   UNL     1      26.345  36.335  48.135  1.00  0.00     0.005 A 
ENDBRANCH  15  16
ENDBRANCH  13  15
ENDBRANCH   9  13
ENDBRANCH   3   7
BRANCH   5  19
HETATM   19  C   UNL     1      28.522  44.124  53.991  1.00  0.00     0.079 A 
HETATM   20  C   UNL     1      28.501  45.321  54.724  1.00  0.00     0.062 A 
HETATM   21 CL   UNL     1      27.288  46.549  54.615  1.00  0.00    -0.082 Cl
HETATM   22  C   UNL     1      29.468  45.549  55.720  1.00  0.00     0.026 A 
HETATM   23  C   UNL     1      30.443  44.595  56.008  1.00  0.00     0.002 A 
HETATM   24  C   UNL     1      30.454  43.395  55.312  1.00  0.00     0.002 A 
HETATM   25  C   UNL     1      29.502  43.158  54.318  1.00  0.00     0.033 A 
ENDBRANCH   5  19
TORSDOF 5
ENDMDL
