MODEL 1
REMARK VINA RESULT:      -8.6      0.000      0.000
REMARK  8 active torsions:
REMARK  status: ('A' for Active; 'I' for Inactive)
REMARK    1  A    between atoms: C_2  and  C_3 
REMARK    2  A    between atoms: C_3  and  O_4 
REMARK    3  A    between atoms: O_4  and  C_5 
REMARK    4  A    between atoms: C_6  and  C_7 
REMARK    5  A    between atoms: C_11  and  C_12 
REMARK       I    between atoms: C_12  and  N_13 
REMARK    6  A    between atoms: N_13  and  N_14 
REMARK    7  A    between atoms: C_15  and  C_16 
REMARK    8  A    between atoms: C_17  and  O_18 
ROOT
HETATM    1  C   UNL     1      27.350  44.140  54.076  1.00  0.00     0.092 A 
HETATM    2  N   UNL     1      26.269  43.486  54.522  1.00  0.00    -0.174 NA
HETATM    3  N   UNL     1      25.320  43.732  53.608  1.00  0.00    -0.272 N 
HETATM    4  H   UNL     1      24.398  43.319  53.733  1.00  0.00     0.189 HD
HETATM    5  C   UNL     1      25.715  44.566  52.600  1.00  0.00     0.121 A 
HETATM    6  C   UNL     1      27.043  44.830  52.867  1.00  0.00     0.071 A 
ENDROOT
BRANCH   5   7
HETATM    7  C   UNL     1      24.799  44.979  51.567  1.00  0.00     0.289 C 
HETATM    8  N   UNL     1      25.171  46.133  50.891  1.00  0.00    -0.242 N 
HETATM    9  H   UNL     1      26.003  46.638  51.164  1.00  0.00     0.192 HD
HETATM   10  O   UNL     1      23.761  44.361  51.347  1.00  0.00    -0.264 OA
BRANCH   8  11
HETATM   11  N   UNL     1      24.332  46.674  49.962  1.00  0.00    -0.183 NA
HETATM   12  C   UNL     1      24.155  47.955  50.040  1.00  0.00     0.153 C 
BRANCH  12  13
HETATM   13  C   UNL     1      23.250  48.656  49.107  1.00  0.00     0.016 A 
HETATM   14  C   UNL     1      22.021  48.114  48.712  1.00  0.00     0.077 A 
HETATM   15  C   UNL     1      21.197  48.818  47.838  1.00  0.00     0.037 A 
HETATM   16  C   UNL     1      21.592  50.068  47.358  1.00  0.00     0.003 A 
HETATM   17  C   UNL     1      22.815  50.612  47.750  1.00  0.00     0.001 A 
HETATM   18  C   UNL     1      23.648  49.908  48.624  1.00  0.00     0.016 A 
BRANCH  14  19
HETATM   19  O   UNL     1      21.559  46.901  49.140  1.00  0.00    -0.360 OA
HETATM   20  H   UNL     1      21.923  46.727  50.037  1.00  0.00     0.217 HD
ENDBRANCH  14  19
ENDBRANCH  12  13
ENDBRANCH   8  11
ENDBRANCH   5   7
BRANCH   1  21
HETATM   21  C   UNL     1      28.624  44.151  54.799  1.00  0.00     0.028 A 
HETATM   22  C   UNL     1      29.008  45.161  55.700  1.00  0.00     0.081 A 
HETATM   23  C   UNL     1      30.283  45.135  56.283  1.00  0.00     0.038 A 
HETATM   24  C   UNL     1      31.166  44.089  56.024  1.00  0.00     0.003 A 
HETATM   25  C   UNL     1      30.788  43.067  55.162  1.00  0.00     0.001 A 
HETATM   26  C   UNL     1      29.531  43.101  54.551  1.00  0.00     0.017 A 
BRANCH  22  27
HETATM   27  O   UNL     1      28.254  46.251  56.051  1.00  0.00    -0.350 OA
BRANCH  27  28
HETATM   28  C   UNL     1      28.318  47.322  55.105  1.00  0.00     0.175 C 
BRANCH  28  29
HETATM   29  C   UNL     1      27.081  48.205  55.272  1.00  0.00     0.022 C 
HETATM   30  C   UNL     1      25.926  47.756  54.388  1.00  0.00     0.007 C 
ENDBRANCH  28  29
ENDBRANCH  27  28
ENDBRANCH  22  27
ENDBRANCH   1  21
TORSDOF 8
ENDMDL
MODEL 2
REMARK VINA RESULT:      -8.6      5.362      7.676
REMARK  8 active torsions:
REMARK  status: ('A' for Active; 'I' for Inactive)
REMARK    1  A    between atoms: C_2  and  C_3 
REMARK    2  A    between atoms: C_3  and  O_4 
REMARK    3  A    between atoms: O_4  and  C_5 
REMARK    4  A    between atoms: C_6  and  C_7 
REMARK    5  A    between atoms: C_11  and  C_12 
REMARK       I    between atoms: C_12  and  N_13 
REMARK    6  A    between atoms: N_13  and  N_14 
REMARK    7  A    between atoms: C_15  and  C_16 
REMARK    8  A    between atoms: C_17  and  O_18 
ROOT
HETATM    1  C   UNL     1      29.741  43.296  54.443  1.00  0.00     0.092 A 
HETATM    2  N   UNL     1      30.708  43.008  53.562  1.00  0.00    -0.174 NA
HETATM    3  N   UNL     1      30.095  42.308  52.597  1.00  0.00    -0.272 N 
HETATM    4  H   UNL     1      30.640  41.987  51.801  1.00  0.00     0.189 HD
HETATM    5  C   UNL     1      28.768  42.077  52.831  1.00  0.00     0.121 A 
HETATM    6  C   UNL     1      28.504  42.729  54.017  1.00  0.00     0.071 A 
ENDROOT
BRANCH   5   7
HETATM    7  C   UNL     1      27.975  41.289  51.921  1.00  0.00     0.289 C 
HETATM    8  N   UNL     1      28.644  40.217  51.349  1.00  0.00    -0.242 N 
HETATM    9  H   UNL     1      29.624  40.063  51.547  1.00  0.00     0.192 HD
HETATM   10  O   UNL     1      26.812  41.586  51.663  1.00  0.00    -0.264 OA
BRANCH   8  11
HETATM   11  N   UNL     1      28.026  39.460  50.398  1.00  0.00    -0.183 NA
HETATM   12  C   UNL     1      28.780  38.611  49.774  1.00  0.00     0.153 C 
BRANCH  12  13
HETATM   13  C   UNL     1      28.234  37.752  48.704  1.00  0.00     0.016 A 
HETATM   14  C   UNL     1      27.031  37.052  48.850  1.00  0.00     0.077 A 
HETATM   15  C   UNL     1      26.552  36.262  47.808  1.00  0.00     0.037 A 
HETATM   16  C   UNL     1      27.267  36.172  46.614  1.00  0.00     0.003 A 
HETATM   17  C   UNL     1      28.466  36.870  46.462  1.00  0.00     0.001 A 
HETATM   18  C   UNL     1      28.953  37.660  47.507  1.00  0.00     0.016 A 
BRANCH  14  19
HETATM   19  O   UNL     1      26.268  37.091  49.984  1.00  0.00    -0.360 OA
HETATM   20  H   UNL     1      25.347  37.326  49.732  1.00  0.00     0.217 HD
ENDBRANCH  14  19
ENDBRANCH  12  13
ENDBRANCH   8  11
ENDBRANCH   5   7
BRANCH   1  21
HETATM   21  C   UNL     1      29.990  44.044  55.678  1.00  0.00     0.028 A 
HETATM   22  C   UNL     1      29.269  45.189  56.062  1.00  0.00     0.081 A 
HETATM   23  C   UNL     1      29.632  45.894  57.218  1.00  0.00     0.038 A 
HETATM   24  C   UNL     1      30.672  45.446  58.030  1.00  0.00     0.003 A 
HETATM   25  C   UNL     1      31.372  44.298  57.681  1.00  0.00     0.001 A 
HETATM   26  C   UNL     1      31.038  43.607  56.513  1.00  0.00     0.017 A 
BRANCH  22  27
HETATM   27  O   UNL     1      28.228  45.750  55.368  1.00  0.00    -0.350 OA
BRANCH  27  28
HETATM   28  C   UNL     1      28.399  47.146  55.106  1.00  0.00     0.175 C 
BRANCH  28  29
HETATM   29  C   UNL     1      27.037  47.837  55.188  1.00  0.00     0.022 C 
HETATM   30  C   UNL     1      26.093  47.387  54.082  1.00  0.00     0.007 C 
ENDBRANCH  28  29
ENDBRANCH  27  28
ENDBRANCH  22  27
ENDBRANCH   1  21
TORSDOF 8
ENDMDL
MODEL 3
REMARK VINA RESULT:      -8.5      1.831      9.065
REMARK  8 active torsions:
REMARK  status: ('A' for Active; 'I' for Inactive)
REMARK    1  A    between atoms: C_2  and  C_3 
REMARK    2  A    between atoms: C_3  and  O_4 
REMARK    3  A    between atoms: O_4  and  C_5 
REMARK    4  A    between atoms: C_6  and  C_7 
REMARK    5  A    between atoms: C_11  and  C_12 
REMARK       I    between atoms: C_12  and  N_13 
REMARK    6  A    between atoms: N_13  and  N_14 
REMARK    7  A    between atoms: C_15  and  C_16 
REMARK    8  A    between atoms: C_17  and  O_18 
ROOT
HETATM    1  C   UNL     1      23.627  47.257  49.444  1.00  0.00     0.092 A 
HETATM    2  N   UNL     1      23.436  46.110  48.780  1.00  0.00    -0.174 NA
HETATM    3  N   UNL     1      24.311  45.251  49.321  1.00  0.00    -0.272 N 
HETATM    4  H   UNL     1      24.340  44.295  48.976  1.00  0.00     0.189 HD
HETATM    5  C   UNL     1      25.111  45.800  50.284  1.00  0.00     0.121 A 
HETATM    6  C   UNL     1      24.671  47.103  50.402  1.00  0.00     0.071 A 
ENDROOT
BRANCH   5   7
HETATM    7  C   UNL     1      26.146  45.030  50.926  1.00  0.00     0.289 C 
HETATM    8  N   UNL     1      26.187  45.153  52.308  1.00  0.00    -0.242 N 
HETATM    9  H   UNL     1      25.552  45.781  52.783  1.00  0.00     0.192 HD
HETATM   10  O   UNL     1      26.938  44.354  50.276  1.00  0.00    -0.264 OA
BRANCH   8  11
HETATM   11  N   UNL     1      27.185  44.549  53.014  1.00  0.00    -0.183 NA
HETATM   12  C   UNL     1      27.775  45.286  53.901  1.00  0.00     0.153 C 
BRANCH  12  13
HETATM   13  C   UNL     1      28.889  44.756  54.712  1.00  0.00     0.016 A 
HETATM   14  C   UNL     1      29.310  45.375  55.895  1.00  0.00     0.077 A 
HETATM   15  C   UNL     1      30.360  44.831  56.631  1.00  0.00     0.037 A 
HETATM   16  C   UNL     1      30.990  43.665  56.194  1.00  0.00     0.003 A 
HETATM   17  C   UNL     1      30.573  43.044  55.016  1.00  0.00     0.001 A 
HETATM   18  C   UNL     1      29.523  43.588  54.272  1.00  0.00     0.016 A 
BRANCH  14  19
HETATM   19  O   UNL     1      28.743  46.514  56.395  1.00  0.00    -0.360 OA
HETATM   20  H   UNL     1      29.454  47.178  56.542  1.00  0.00     0.217 HD
ENDBRANCH  14  19
ENDBRANCH  12  13
ENDBRANCH   8  11
ENDBRANCH   5   7
BRANCH   1  21
HETATM   21  C   UNL     1      22.874  48.479  49.148  1.00  0.00     0.028 A 
HETATM   22  C   UNL     1      23.449  49.762  49.091  1.00  0.00     0.081 A 
HETATM   23  C   UNL     1      22.638  50.887  48.885  1.00  0.00     0.038 A 
HETATM   24  C   UNL     1      21.266  50.751  48.683  1.00  0.00     0.003 A 
HETATM   25  C   UNL     1      20.689  49.487  48.704  1.00  0.00     0.001 A 
HETATM   26  C   UNL     1      21.485  48.363  48.940  1.00  0.00     0.017 A 
BRANCH  22  27
HETATM   27  O   UNL     1      24.776  50.054  49.273  1.00  0.00    -0.350 OA
BRANCH  27  28
HETATM   28  C   UNL     1      25.553  49.964  48.075  1.00  0.00     0.175 C 
BRANCH  28  29
HETATM   29  C   UNL     1      27.035  50.053  48.436  1.00  0.00     0.022 C 
HETATM   30  C   UNL     1      27.542  48.787  49.111  1.00  0.00     0.007 C 
ENDBRANCH  28  29
ENDBRANCH  27  28
ENDBRANCH  22  27
ENDBRANCH   1  21
TORSDOF 8
ENDMDL
MODEL 4
REMARK VINA RESULT:      -8.5      1.323      2.581
REMARK  8 active torsions:
REMARK  status: ('A' for Active; 'I' for Inactive)
REMARK    1  A    between atoms: C_2  and  C_3 
REMARK    2  A    between atoms: C_3  and  O_4 
REMARK    3  A    between atoms: O_4  and  C_5 
REMARK    4  A    between atoms: C_6  and  C_7 
REMARK    5  A    between atoms: C_11  and  C_12 
REMARK       I    between atoms: C_12  and  N_13 
REMARK    6  A    between atoms: N_13  and  N_14 
REMARK    7  A    between atoms: C_15  and  C_16 
REMARK    8  A    between atoms: C_17  and  O_18 
ROOT
HETATM    1  C   UNL     1      27.490  44.441  54.413  1.00  0.00     0.092 A 
HETATM    2  N   UNL     1      26.528  43.558  54.715  1.00  0.00    -0.174 NA
HETATM    3  N   UNL     1      25.588  43.742  53.779  1.00  0.00    -0.272 N 
HETATM    4  H   UNL     1      24.753  43.162  53.799  1.00  0.00     0.189 HD
HETATM    5  C   UNL     1      25.866  44.748  52.896  1.00  0.00     0.121 A 
HETATM    6  C   UNL     1      27.112  45.207  53.272  1.00  0.00     0.071 A 
ENDROOT
BRANCH   5   7
HETATM    7  C   UNL     1      24.932  45.116  51.861  1.00  0.00     0.289 C 
HETATM    8  N   UNL     1      25.325  46.197  51.085  1.00  0.00    -0.242 N 
HETATM    9  H   UNL     1      26.184  46.689  51.293  1.00  0.00     0.192 HD
HETATM   10  O   UNL     1      23.865  44.525  51.722  1.00  0.00    -0.264 OA
BRANCH   8  11
HETATM   11  N   UNL     1      24.477  46.698  50.141  1.00  0.00    -0.183 NA
HETATM   12  C   UNL     1      24.310  47.982  50.157  1.00  0.00     0.153 C 
BRANCH  12  13
HETATM   13  C   UNL     1      23.397  48.642  49.202  1.00  0.00     0.016 A 
HETATM   14  C   UNL     1      22.213  48.038  48.764  1.00  0.00     0.077 A 
HETATM   15  C   UNL     1      21.378  48.705  47.870  1.00  0.00     0.037 A 
HETATM   16  C   UNL     1      21.718  49.979  47.414  1.00  0.00     0.003 A 
HETATM   17  C   UNL     1      22.897  50.585  47.849  1.00  0.00     0.001 A 
HETATM   18  C   UNL     1      23.740  49.919  48.742  1.00  0.00     0.016 A 
BRANCH  14  19
HETATM   19  O   UNL     1      21.804  46.797  49.167  1.00  0.00    -0.360 OA
HETATM   20  H   UNL     1      22.206  46.127  48.569  1.00  0.00     0.217 HD
ENDBRANCH  14  19
ENDBRANCH  12  13
ENDBRANCH   8  11
ENDBRANCH   5   7
BRANCH   1  21
HETATM   21  C   UNL     1      28.710  44.588  55.210  1.00  0.00     0.028 A 
HETATM   22  C   UNL     1      29.762  43.654  55.216  1.00  0.00     0.081 A 
HETATM   23  C   UNL     1      30.856  43.833  56.075  1.00  0.00     0.038 A 
HETATM   24  C   UNL     1      30.945  44.957  56.894  1.00  0.00     0.003 A 
HETATM   25  C   UNL     1      29.929  45.905  56.874  1.00  0.00     0.001 A 
HETATM   26  C   UNL     1      28.820  45.719  56.044  1.00  0.00     0.017 A 
BRANCH  22  27
HETATM   27  O   UNL     1      29.816  42.503  54.473  1.00  0.00    -0.350 OA
BRANCH  27  28
HETATM   28  C   UNL     1      30.196  42.717  53.111  1.00  0.00     0.175 C 
BRANCH  28  29
HETATM   29  C   UNL     1      29.073  42.224  52.198  1.00  0.00     0.022 C 
HETATM   30  C   UNL     1      28.307  41.056  52.804  1.00  0.00     0.007 C 
ENDBRANCH  28  29
ENDBRANCH  27  28
ENDBRANCH  22  27
ENDBRANCH   1  21
TORSDOF 8
ENDMDL
MODEL 5
REMARK VINA RESULT:      -8.4      1.830      2.341
REMARK  8 active torsions:
REMARK  status: ('A' for Active; 'I' for Inactive)
REMARK    1  A    between atoms: C_2  and  C_3 
REMARK    2  A    between atoms: C_3  and  O_4 
REMARK    3  A    between atoms: O_4  and  C_5 
REMARK    4  A    between atoms: C_6  and  C_7 
REMARK    5  A    between atoms: C_11  and  C_12 
REMARK       I    between atoms: C_12  and  N_13 
REMARK    6  A    between atoms: N_13  and  N_14 
REMARK    7  A    between atoms: C_15  and  C_16 
REMARK    8  A    between atoms: C_17  and  O_18 
ROOT
HETATM    1  C   UNL     1      27.247  44.503  51.471  1.00  0.00     0.092 A 
HETATM    2  N   UNL     1      27.606  44.599  50.184  1.00  0.00    -0.174 NA
HETATM    3  N   UNL     1      26.522  45.082  49.561  1.00  0.00    -0.272 N 
HETATM    4  H   UNL     1      26.565  45.252  48.559  1.00  0.00     0.189 HD
HETATM    5  C   UNL     1      25.441  45.263  50.378  1.00  0.00     0.121 A 
HETATM    6  C   UNL     1      25.891  44.915  51.635  1.00  0.00     0.071 A 
ENDROOT
BRANCH   5   7
HETATM    7  C   UNL     1      24.177  45.721  49.857  1.00  0.00     0.289 C 
HETATM    8  N   UNL     1      24.135  47.073  49.550  1.00  0.00    -0.242 N 
HETATM    9  H   UNL     1      24.934  47.665  49.735  1.00  0.00     0.192 HD
HETATM   10  O   UNL     1      23.220  44.961  49.738  1.00  0.00    -0.264 OA
BRANCH   8  11
HETATM   11  N   UNL     1      22.962  47.640  49.143  1.00  0.00    -0.183 NA
HETATM   12  C   UNL     1      22.774  48.869  49.507  1.00  0.00     0.153 C 
BRANCH  12  13
HETATM   13  C   UNL     1      21.532  49.585  49.152  1.00  0.00     0.016 A 
HETATM   14  C   UNL     1      20.277  48.967  49.193  1.00  0.00     0.077 A 
HETATM   15  C   UNL     1      19.132  49.687  48.859  1.00  0.00     0.037 A 
HETATM   16  C   UNL     1      19.234  51.028  48.489  1.00  0.00     0.003 A 
HETATM   17  C   UNL     1      20.483  51.649  48.448  1.00  0.00     0.001 A 
HETATM   18  C   UNL     1      21.634  50.930  48.778  1.00  0.00     0.016 A 
BRANCH  14  19
HETATM   19  O   UNL     1      20.091  47.660  49.551  1.00  0.00    -0.360 OA
HETATM   20  H   UNL     1      20.972  47.242  49.673  1.00  0.00     0.217 HD
ENDBRANCH  14  19
ENDBRANCH  12  13
ENDBRANCH   8  11
ENDBRANCH   5   7
BRANCH   1  21
HETATM   21  C   UNL     1      28.145  43.991  52.509  1.00  0.00     0.028 A 
HETATM   22  C   UNL     1      28.216  44.511  53.814  1.00  0.00     0.081 A 
HETATM   23  C   UNL     1      29.167  44.016  54.718  1.00  0.00     0.038 A 
HETATM   24  C   UNL     1      30.017  42.972  54.359  1.00  0.00     0.003 A 
HETATM   25  C   UNL     1      29.936  42.425  53.084  1.00  0.00     0.001 A 
HETATM   26  C   UNL     1      29.013  42.935  52.166  1.00  0.00     0.017 A 
BRANCH  22  27
HETATM   27  O   UNL     1      27.452  45.536  54.310  1.00  0.00    -0.350 OA
BRANCH  27  28
HETATM   28  C   UNL     1      28.199  46.496  55.064  1.00  0.00     0.175 C 
BRANCH  28  29
HETATM   29  C   UNL     1      27.520  47.860  54.942  1.00  0.00     0.022 C 
HETATM   30  C   UNL     1      26.089  47.750  54.435  1.00  0.00     0.007 C 
ENDBRANCH  28  29
ENDBRANCH  27  28
ENDBRANCH  22  27
ENDBRANCH   1  21
TORSDOF 8
ENDMDL
MODEL 6
REMARK VINA RESULT:      -8.4      2.007      2.924
REMARK  8 active torsions:
REMARK  status: ('A' for Active; 'I' for Inactive)
REMARK    1  A    between atoms: C_2  and  C_3 
REMARK    2  A    between atoms: C_3  and  O_4 
REMARK    3  A    between atoms: O_4  and  C_5 
REMARK    4  A    between atoms: C_6  and  C_7 
REMARK    5  A    between atoms: C_11  and  C_12 
REMARK       I    between atoms: C_12  and  N_13 
REMARK    6  A    between atoms: N_13  and  N_14 
REMARK    7  A    between atoms: C_15  and  C_16 
REMARK    8  A    between atoms: C_17  and  O_18 
ROOT
HETATM    1  C   UNL     1      26.157  45.077  51.820  1.00  0.00     0.092 A 
HETATM    2  N   UNL     1      24.917  44.571  51.769  1.00  0.00    -0.174 NA
HETATM    3  N   UNL     1      24.208  45.470  51.073  1.00  0.00    -0.272 N 
HETATM    4  H   UNL     1      23.223  45.288  50.895  1.00  0.00     0.189 HD
HETATM    5  C   UNL     1      24.918  46.579  50.704  1.00  0.00     0.121 A 
HETATM    6  C   UNL     1      26.199  46.340  51.158  1.00  0.00     0.071 A 
ENDROOT
BRANCH   5   7
HETATM    7  C   UNL     1      24.290  47.670  50.002  1.00  0.00     0.289 C 
HETATM    8  N   UNL     1      22.978  47.431  49.618  1.00  0.00    -0.242 N 
HETATM    9  H   UNL     1      22.549  46.533  49.797  1.00  0.00     0.192 HD
HETATM   10  O   UNL     1      24.901  48.703  49.745  1.00  0.00    -0.264 OA
BRANCH   8  11
HETATM   11  N   UNL     1      22.315  48.352  48.861  1.00  0.00    -0.183 NA
HETATM   12  C   UNL     1      21.277  48.896  49.414  1.00  0.00     0.153 C 
BRANCH  12  13
HETATM   13  C   UNL     1      20.459  49.887  48.687  1.00  0.00     0.016 A 
HETATM   14  C   UNL     1      19.804  49.578  47.489  1.00  0.00     0.077 A 
HETATM   15  C   UNL     1      19.035  50.545  46.845  1.00  0.00     0.037 A 
HETATM   16  C   UNL     1      18.912  51.820  47.396  1.00  0.00     0.003 A 
HETATM   17  C   UNL     1      19.562  52.132  48.591  1.00  0.00     0.001 A 
HETATM   18  C   UNL     1      20.338  51.168  49.238  1.00  0.00     0.016 A 
BRANCH  14  19
HETATM   19  O   UNL     1      19.869  48.352  46.888  1.00  0.00    -0.360 OA
HETATM   20  H   UNL     1      20.633  48.349  46.268  1.00  0.00     0.217 HD
ENDBRANCH  14  19
ENDBRANCH  12  13
ENDBRANCH   8  11
ENDBRANCH   5   7
BRANCH   1  21
HETATM   21  C   UNL     1      27.259  44.408  52.515  1.00  0.00     0.028 A 
HETATM   22  C   UNL     1      27.604  44.650  53.857  1.00  0.00     0.081 A 
HETATM   23  C   UNL     1      28.728  44.028  54.417  1.00  0.00     0.038 A 
HETATM   24  C   UNL     1      29.488  43.124  53.676  1.00  0.00     0.003 A 
HETATM   25  C   UNL     1      29.139  42.850  52.359  1.00  0.00     0.001 A 
HETATM   26  C   UNL     1      28.039  43.491  51.783  1.00  0.00     0.017 A 
BRANCH  22  27
HETATM   27  O   UNL     1      26.958  45.510  54.708  1.00  0.00    -0.350 OA
BRANCH  27  28
HETATM   28  C   UNL     1      27.840  46.380  55.423  1.00  0.00     0.175 C 
BRANCH  28  29
HETATM   29  C   UNL     1      27.629  47.813  54.933  1.00  0.00     0.022 C 
HETATM   30  C   UNL     1      26.156  48.190  54.867  1.00  0.00     0.007 C 
ENDBRANCH  28  29
ENDBRANCH  27  28
ENDBRANCH  22  27
ENDBRANCH   1  21
TORSDOF 8
ENDMDL
MODEL 7
REMARK VINA RESULT:      -8.2      2.445     10.043
REMARK  8 active torsions:
REMARK  status: ('A' for Active; 'I' for Inactive)
REMARK    1  A    between atoms: C_2  and  C_3 
REMARK    2  A    between atoms: C_3  and  O_4 
REMARK    3  A    between atoms: O_4  and  C_5 
REMARK    4  A    between atoms: C_6  and  C_7 
REMARK    5  A    between atoms: C_11  and  C_12 
REMARK       I    between atoms: C_12  and  N_13 
REMARK    6  A    between atoms: N_13  and  N_14 
REMARK    7  A    between atoms: C_15  and  C_16 
REMARK    8  A    between atoms: C_17  and  O_18 
ROOT
HETATM    1  C   UNL     1      22.338  49.989  48.185  1.00  0.00     0.092 A 
HETATM    2  N   UNL     1      23.319  50.368  47.355  1.00  0.00    -0.174 NA
HETATM    3  N   UNL     1      24.411  49.733  47.802  1.00  0.00    -0.272 N 
HETATM    4  H   UNL     1      25.292  49.863  47.310  1.00  0.00     0.189 HD
HETATM    5  C   UNL     1      24.202  48.987  48.929  1.00  0.00     0.121 A 
HETATM    6  C   UNL     1      22.853  49.116  49.188  1.00  0.00     0.071 A 
ENDROOT
BRANCH   5   7
HETATM    7  C   UNL     1      25.285  48.288  49.574  1.00  0.00     0.289 C 
HETATM    8  N   UNL     1      24.906  47.510  50.659  1.00  0.00    -0.242 N 
HETATM    9  H   UNL     1      23.943  47.499  50.967  1.00  0.00     0.192 HD
HETATM   10  O   UNL     1      26.446  48.416  49.196  1.00  0.00    -0.264 OA
BRANCH   8  11
HETATM   11  N   UNL     1      25.857  46.882  51.408  1.00  0.00    -0.183 NA
HETATM   12  C   UNL     1      25.770  47.053  52.690  1.00  0.00     0.153 C 
BRANCH  12  13
HETATM   13  C   UNL     1      26.755  46.447  53.607  1.00  0.00     0.016 A 
HETATM   14  C   UNL     1      27.042  45.077  53.594  1.00  0.00     0.077 A 
HETATM   15  C   UNL     1      27.988  44.553  54.472  1.00  0.00     0.037 A 
HETATM   16  C   UNL     1      28.655  45.394  55.362  1.00  0.00     0.003 A 
HETATM   17  C   UNL     1      28.374  46.761  55.378  1.00  0.00     0.001 A 
HETATM   18  C   UNL     1      27.423  47.290  54.502  1.00  0.00     0.016 A 
BRANCH  14  19
HETATM   19  O   UNL     1      26.437  44.187  52.749  1.00  0.00    -0.360 OA
HETATM   20  H   UNL     1      25.541  43.984  53.100  1.00  0.00     0.217 HD
ENDBRANCH  14  19
ENDBRANCH  12  13
ENDBRANCH   8  11
ENDBRANCH   5   7
BRANCH   1  21
HETATM   21  C   UNL     1      20.962  50.475  48.061  1.00  0.00     0.028 A 
HETATM   22  C   UNL     1      19.928  49.757  47.433  1.00  0.00     0.081 A 
HETATM   23  C   UNL     1      18.660  50.336  47.283  1.00  0.00     0.038 A 
HETATM   24  C   UNL     1      18.388  51.602  47.797  1.00  0.00     0.003 A 
HETATM   25  C   UNL     1      19.390  52.310  48.449  1.00  0.00     0.001 A 
HETATM   26  C   UNL     1      20.666  51.754  48.574  1.00  0.00     0.017 A 
BRANCH  22  27
HETATM   27  O   UNL     1      20.042  48.508  46.878  1.00  0.00    -0.350 OA
BRANCH  27  28
HETATM   28  C   UNL     1      19.173  47.537  47.466  1.00  0.00     0.175 C 
BRANCH  28  29
HETATM   29  C   UNL     1      19.658  47.231  48.883  1.00  0.00     0.022 C 
HETATM   30  C   UNL     1      18.784  47.883  49.946  1.00  0.00     0.007 C 
ENDBRANCH  28  29
ENDBRANCH  27  28
ENDBRANCH  22  27
ENDBRANCH   1  21
TORSDOF 8
ENDMDL
MODEL 8
REMARK VINA RESULT:      -8.1      2.101      2.709
REMARK  8 active torsions:
REMARK  status: ('A' for Active; 'I' for Inactive)
REMARK    1  A    between atoms: C_2  and  C_3 
REMARK    2  A    between atoms: C_3  and  O_4 
REMARK    3  A    between atoms: O_4  and  C_5 
REMARK    4  A    between atoms: C_6  and  C_7 
REMARK    5  A    between atoms: C_11  and  C_12 
REMARK       I    between atoms: C_12  and  N_13 
REMARK    6  A    between atoms: N_13  and  N_14 
REMARK    7  A    between atoms: C_15  and  C_16 
REMARK    8  A    between atoms: C_17  and  O_18 
ROOT
HETATM    1  C   UNL     1      29.637  43.714  54.097  1.00  0.00     0.092 A 
HETATM    2  N   UNL     1      30.242  42.895  53.226  1.00  0.00    -0.174 NA
HETATM    3  N   UNL     1      29.426  42.864  52.163  1.00  0.00    -0.272 N 
HETATM    4  H   UNL     1      29.691  42.305  51.355  1.00  0.00     0.189 HD
HETATM    5  C   UNL     1      28.278  43.591  52.317  1.00  0.00     0.121 A 
HETATM    6  C   UNL     1      28.400  44.175  53.561  1.00  0.00     0.071 A 
ENDROOT
BRANCH   5   7
HETATM    7  C   UNL     1      27.266  43.616  51.291  1.00  0.00     0.289 C 
HETATM    8  N   UNL     1      27.058  44.861  50.714  1.00  0.00    -0.242 N 
HETATM    9  H   UNL     1      27.566  45.670  51.048  1.00  0.00     0.192 HD
HETATM   10  O   UNL     1      26.628  42.610  50.996  1.00  0.00    -0.264 OA
BRANCH   8  11
HETATM   11  N   UNL     1      26.057  45.029  49.803  1.00  0.00    -0.183 NA
HETATM   12  C   UNL     1      25.104  45.833  50.153  1.00  0.00     0.153 C 
BRANCH  12  13
HETATM   13  C   UNL     1      23.950  46.077  49.266  1.00  0.00     0.016 A 
HETATM   14  C   UNL     1      23.284  47.307  49.230  1.00  0.00     0.077 A 
HETATM   15  C   UNL     1      22.205  47.493  48.367  1.00  0.00     0.037 A 
HETATM   16  C   UNL     1      21.791  46.454  47.533  1.00  0.00     0.003 A 
HETATM   17  C   UNL     1      22.454  45.226  47.564  1.00  0.00     0.001 A 
HETATM   18  C   UNL     1      23.533  45.033  48.431  1.00  0.00     0.016 A 
BRANCH  14  19
HETATM   19  O   UNL     1      23.630  48.376  50.009  1.00  0.00    -0.360 OA
HETATM   20  H   UNL     1      23.844  49.135  49.421  1.00  0.00     0.217 HD
ENDBRANCH  14  19
ENDBRANCH  12  13
ENDBRANCH   8  11
ENDBRANCH   5   7
BRANCH   1  21
HETATM   21  C   UNL     1      30.192  44.013  55.420  1.00  0.00     0.028 A 
HETATM   22  C   UNL     1      30.080  45.263  56.055  1.00  0.00     0.081 A 
HETATM   23  C   UNL     1      30.716  45.487  57.284  1.00  0.00     0.038 A 
HETATM   24  C   UNL     1      31.423  44.468  57.919  1.00  0.00     0.003 A 
HETATM   25  C   UNL     1      31.515  43.218  57.319  1.00  0.00     0.001 A 
HETATM   26  C   UNL     1      30.911  42.995  56.078  1.00  0.00     0.017 A 
BRANCH  22  27
HETATM   27  O   UNL     1      29.423  46.359  55.556  1.00  0.00    -0.350 OA
BRANCH  27  28
HETATM   28  C   UNL     1      28.131  46.566  56.134  1.00  0.00     0.175 C 
BRANCH  28  29
HETATM   29  C   UNL     1      27.410  47.666  55.356  1.00  0.00     0.022 C 
HETATM   30  C   UNL     1      26.311  47.113  54.458  1.00  0.00     0.007 C 
ENDBRANCH  28  29
ENDBRANCH  27  28
ENDBRANCH  22  27
ENDBRANCH   1  21
TORSDOF 8
ENDMDL
MODEL 9
REMARK VINA RESULT:      -7.9      2.142      3.086
REMARK  8 active torsions:
REMARK  status: ('A' for Active; 'I' for Inactive)
REMARK    1  A    between atoms: C_2  and  C_3 
REMARK    2  A    between atoms: C_3  and  O_4 
REMARK    3  A    between atoms: O_4  and  C_5 
REMARK    4  A    between atoms: C_6  and  C_7 
REMARK    5  A    between atoms: C_11  and  C_12 
REMARK       I    between atoms: C_12  and  N_13 
REMARK    6  A    between atoms: N_13  and  N_14 
REMARK    7  A    between atoms: C_15  and  C_16 
REMARK    8  A    between atoms: C_17  and  O_18 
ROOT
HETATM    1  C   UNL     1      26.790  43.980  51.098  1.00  0.00     0.092 A 
HETATM    2  N   UNL     1      27.204  44.212  49.845  1.00  0.00    -0.174 NA
HETATM    3  N   UNL     1      26.185  44.857  49.261  1.00  0.00    -0.272 N 
HETATM    4  H   UNL     1      26.278  45.151  48.292  1.00  0.00     0.189 HD
HETATM    5  C   UNL     1      25.090  45.018  50.065  1.00  0.00     0.121 A 
HETATM    6  C   UNL     1      25.465  44.476  51.277  1.00  0.00     0.071 A 
ENDROOT
BRANCH   5   7
HETATM    7  C   UNL     1      23.886  45.639  49.573  1.00  0.00     0.289 C 
HETATM    8  N   UNL     1      23.966  47.016  49.422  1.00  0.00    -0.242 N 
HETATM    9  H   UNL     1      24.806  47.511  49.690  1.00  0.00     0.192 HD
HETATM   10  O   UNL     1      22.873  44.984  49.348  1.00  0.00    -0.264 OA
BRANCH   8  11
HETATM   11  N   UNL     1      22.858  47.724  49.059  1.00  0.00    -0.183 NA
HETATM   12  C   UNL     1      22.894  48.995  49.308  1.00  0.00     0.153 C 
BRANCH  12  13
HETATM   13  C   UNL     1      21.746  49.865  48.986  1.00  0.00     0.016 A 
HETATM   14  C   UNL     1      21.229  50.788  49.904  1.00  0.00     0.077 A 
HETATM   15  C   UNL     1      20.150  51.595  49.551  1.00  0.00     0.037 A 
HETATM   16  C   UNL     1      19.586  51.490  48.279  1.00  0.00     0.003 A 
HETATM   17  C   UNL     1      20.099  50.574  47.360  1.00  0.00     0.001 A 
HETATM   18  C   UNL     1      21.178  49.759  47.711  1.00  0.00     0.016 A 
BRANCH  14  19
HETATM   19  O   UNL     1      21.727  50.956  51.166  1.00  0.00    -0.360 OA
HETATM   20  H   UNL     1      21.500  51.863  51.473  1.00  0.00     0.217 HD
ENDBRANCH  14  19
ENDBRANCH  12  13
ENDBRANCH   8  11
ENDBRANCH   5   7
BRANCH   1  21
HETATM   21  C   UNL     1      27.607  43.269  52.084  1.00  0.00     0.028 A 
HETATM   22  C   UNL     1      28.140  43.866  53.241  1.00  0.00     0.081 A 
HETATM   23  C   UNL     1      28.982  43.131  54.087  1.00  0.00     0.038 A 
HETATM   24  C   UNL     1      29.263  41.791  53.827  1.00  0.00     0.003 A 
HETATM   25  C   UNL     1      28.717  41.179  52.705  1.00  0.00     0.001 A 
HETATM   26  C   UNL     1      27.902  41.913  51.839  1.00  0.00     0.017 A 
BRANCH  22  27
HETATM   27  O   UNL     1      27.956  45.169  53.627  1.00  0.00    -0.350 OA
BRANCH  27  28
HETATM   28  C   UNL     1      27.535  45.310  54.987  1.00  0.00     0.175 C 
BRANCH  28  29
HETATM   29  C   UNL     1      28.292  46.477  55.622  1.00  0.00     0.022 C 
HETATM   30  C   UNL     1      29.146  46.038  56.802  1.00  0.00     0.007 C 
ENDBRANCH  28  29
ENDBRANCH  27  28
ENDBRANCH  22  27
ENDBRANCH   1  21
TORSDOF 8
ENDMDL
MODEL 10
REMARK VINA RESULT:      -7.9      2.333      4.123
REMARK  8 active torsions:
REMARK  status: ('A' for Active; 'I' for Inactive)
REMARK    1  A    between atoms: C_2  and  C_3 
REMARK    2  A    between atoms: C_3  and  O_4 
REMARK    3  A    between atoms: O_4  and  C_5 
REMARK    4  A    between atoms: C_6  and  C_7 
REMARK    5  A    between atoms: C_11  and  C_12 
REMARK       I    between atoms: C_12  and  N_13 
REMARK    6  A    between atoms: N_13  and  N_14 
REMARK    7  A    between atoms: C_15  and  C_16 
REMARK    8  A    between atoms: C_17  and  O_18 
ROOT
HETATM    1  C   UNL     1      25.473  45.727  52.017  1.00  0.00     0.092 A 
HETATM    2  N   UNL     1      24.587  44.742  51.817  1.00  0.00    -0.174 NA
HETATM    3  N   UNL     1      23.807  45.181  50.820  1.00  0.00    -0.272 N 
HETATM    4  H   UNL     1      23.056  44.583  50.482  1.00  0.00     0.189 HD
HETATM    5  C   UNL     1      24.111  46.441  50.385  1.00  0.00     0.121 A 
HETATM    6  C   UNL     1      25.209  46.813  51.133  1.00  0.00     0.071 A 
ENDROOT
BRANCH   5   7
HETATM    7  C   UNL     1      23.331  47.086  49.358  1.00  0.00     0.289 C 
HETATM    8  N   UNL     1      22.919  48.374  49.668  1.00  0.00    -0.242 N 
HETATM    9  H   UNL     1      23.130  48.774  50.573  1.00  0.00     0.192 HD
HETATM   10  O   UNL     1      23.040  46.506  48.315  1.00  0.00    -0.264 OA
BRANCH   8  11
HETATM   11  N   UNL     1      22.093  49.046  48.816  1.00  0.00    -0.183 NA
HETATM   12  C   UNL     1      21.142  49.728  49.371  1.00  0.00     0.153 C 
BRANCH  12  13
HETATM   13  C   UNL     1      20.166  50.476  48.555  1.00  0.00     0.016 A 
HETATM   14  C   UNL     1      19.595  49.939  47.395  1.00  0.00     0.077 A 
HETATM   15  C   UNL     1      18.671  50.680  46.663  1.00  0.00     0.037 A 
HETATM   16  C   UNL     1      18.306  51.958  47.089  1.00  0.00     0.003 A 
HETATM   17  C   UNL     1      18.871  52.498  48.245  1.00  0.00     0.001 A 
HETATM   18  C   UNL     1      19.802  51.760  48.980  1.00  0.00     0.016 A 
BRANCH  14  19
HETATM   19  O   UNL     1      19.894  48.694  46.915  1.00  0.00    -0.360 OA
HETATM   20  H   UNL     1      20.460  48.795  46.117  1.00  0.00     0.217 HD
ENDBRANCH  14  19
ENDBRANCH  12  13
ENDBRANCH   8  11
ENDBRANCH   5   7
BRANCH   1  21
HETATM   21  C   UNL     1      26.512  45.661  53.048  1.00  0.00     0.028 A 
HETATM   22  C   UNL     1      27.496  44.659  53.110  1.00  0.00     0.081 A 
HETATM   23  C   UNL     1      28.400  44.625  54.182  1.00  0.00     0.038 A 
HETATM   24  C   UNL     1      28.372  45.608  55.170  1.00  0.00     0.003 A 
HETATM   25  C   UNL     1      27.427  46.624  55.104  1.00  0.00     0.001 A 
HETATM   26  C   UNL     1      26.502  46.647  54.057  1.00  0.00     0.017 A 
BRANCH  22  27
HETATM   27  O   UNL     1      27.647  43.628  52.218  1.00  0.00    -0.350 OA
BRANCH  27  28
HETATM   28  C   UNL     1      28.943  43.024  52.254  1.00  0.00     0.175 C 
BRANCH  28  29
HETATM   29  C   UNL     1      28.784  41.504  52.213  1.00  0.00     0.022 C 
HETATM   30  C   UNL     1      28.336  40.934  53.551  1.00  0.00     0.007 C 
ENDBRANCH  28  29
ENDBRANCH  27  28
ENDBRANCH  22  27
ENDBRANCH   1  21
TORSDOF 8
ENDMDL
