MODEL 1
REMARK VINA RESULT:      -9.6      0.000      0.000
REMARK  4 active torsions:
REMARK  status: ('A' for Active; 'I' for Inactive)
REMARK    1  A    between atoms: C_10  and  C_11 
REMARK    2  A    between atoms: N_14  and  C_16 
REMARK    3  A    between atoms: C_16  and  C_17 
REMARK    4  A    between atoms: C_18  and  C_19 
ROOT
HETATM    1  C   UNL     1      23.741  49.275  49.012  1.00  0.00    -0.036 A 
HETATM    2  C   UNL     1      23.838  50.612  48.611  1.00  0.00     0.013 A 
HETATM    3  C   UNL     1      22.688  51.396  48.467  1.00  0.00     0.023 A 
HETATM    4  C   UNL     1      21.425  50.847  48.710  1.00  0.00     0.044 A 
HETATM    5  C   UNL     1      20.247  51.649  48.565  1.00  0.00     0.099 C 
HETATM    6  N   UNL     1      19.290  52.294  48.447  1.00  0.00    -0.191 NA
HETATM    7  C   UNL     1      21.319  49.507  49.092  1.00  0.00     0.023 A 
HETATM    8  C   UNL     1      22.470  48.725  49.238  1.00  0.00     0.013 A 
ENDROOT
BRANCH   1   9
HETATM    9  C   UNL     1      24.963  48.468  49.138  1.00  0.00     0.009 C 
HETATM   10  C   UNL     1      24.981  47.308  49.816  1.00  0.00     0.001 C 
BRANCH  10  11
HETATM   11  C   UNL     1      26.134  46.374  49.989  1.00  0.00     0.262 C 
BRANCH  11  12
HETATM   12  N   UNL     1      25.901  45.180  50.894  1.00  0.00    -0.068 N 
HETATM   13  C   UNL     1      27.204  44.424  51.072  1.00  0.00     0.236 C 
HETATM   14  C   UNL     1      27.048  43.264  52.052  1.00  0.00     0.037 C 
HETATM   15  C   UNL     1      26.487  43.723  53.412  1.00  0.00     0.024 C 
HETATM   16  C   UNL     1      25.126  44.357  53.107  1.00  0.00     0.037 C 
HETATM   17  C   UNL     1      25.269  45.578  52.211  1.00  0.00     0.236 C 
HETATM   18  H   UNL     1      25.244  44.561  50.405  1.00  0.00     0.280 HD
BRANCH  15  19
HETATM   19  C   UNL     1      27.444  44.627  54.181  1.00  0.00    -0.024 A 
HETATM   20  C   UNL     1      28.744  44.318  54.733  1.00  0.00     0.018 A 
HETATM   21  C   UNL     1      29.172  45.445  55.429  1.00  0.00     0.138 A 
HETATM   22  C   UNL     1      29.624  43.216  54.755  1.00  0.00     0.017 A 
HETATM   23  N   UNL     1      30.287  45.595  56.164  1.00  0.00    -0.242 NA
HETATM   24  N   UNL     1      28.262  46.439  55.233  1.00  0.00    -0.350 N 
HETATM   25  C   UNL     1      31.075  44.502  56.169  1.00  0.00     0.119 A 
HETATM   26  C   UNL     1      30.805  43.322  55.494  1.00  0.00     0.020 A 
HETATM   27  H   UNL     1      28.377  47.376  55.596  1.00  0.00     0.166 HD
HETATM   28  C   UNL     1      27.223  45.969  54.474  1.00  0.00     0.098 A 
ENDBRANCH  15  19
ENDBRANCH  11  12
ENDBRANCH  10  11
ENDBRANCH   1   9
TORSDOF 4
ENDMDL
MODEL 2
REMARK VINA RESULT:      -9.1      1.897      3.121
REMARK  4 active torsions:
REMARK  status: ('A' for Active; 'I' for Inactive)
REMARK    1  A    between atoms: C_10  and  C_11 
REMARK    2  A    between atoms: N_14  and  C_16 
REMARK    3  A    between atoms: C_16  and  C_17 
REMARK    4  A    between atoms: C_18  and  C_19 
ROOT
HETATM    1  C   UNL     1      24.272  46.121  50.038  1.00  0.00    -0.036 A 
HETATM    2  C   UNL     1      25.291  47.072  50.162  1.00  0.00     0.013 A 
HETATM    3  C   UNL     1      25.188  48.311  49.518  1.00  0.00     0.023 A 
HETATM    4  C   UNL     1      24.070  48.607  48.733  1.00  0.00     0.044 A 
HETATM    5  C   UNL     1      23.962  49.875  48.075  1.00  0.00     0.099 C 
HETATM    6  N   UNL     1      23.871  50.900  47.539  1.00  0.00    -0.191 NA
HETATM    7  C   UNL     1      23.057  47.654  48.589  1.00  0.00     0.023 A 
HETATM    8  C   UNL     1      23.161  46.417  49.235  1.00  0.00     0.013 A 
ENDROOT
BRANCH   1   9
HETATM    9  C   UNL     1      24.413  44.821  50.709  1.00  0.00     0.009 C 
HETATM   10  C   UNL     1      25.223  44.652  51.768  1.00  0.00     0.001 C 
BRANCH  10  11
HETATM   11  C   UNL     1      25.431  43.406  52.564  1.00  0.00     0.262 C 
BRANCH  11  12
HETATM   12  N   UNL     1      26.840  42.845  52.580  1.00  0.00    -0.068 N 
HETATM   13  C   UNL     1      27.811  43.913  52.113  1.00  0.00     0.236 C 
HETATM   14  C   UNL     1      29.256  43.432  52.198  1.00  0.00     0.037 C 
HETATM   15  C   UNL     1      29.621  42.936  53.612  1.00  0.00     0.024 C 
HETATM   16  C   UNL     1      28.652  41.788  53.911  1.00  0.00     0.037 C 
HETATM   17  C   UNL     1      27.209  42.268  53.930  1.00  0.00     0.236 C 
HETATM   18  H   UNL     1      26.862  42.081  51.895  1.00  0.00     0.280 HD
BRANCH  15  19
HETATM   19  C   UNL     1      29.622  44.047  54.655  1.00  0.00    -0.024 A 
HETATM   20  C   UNL     1      30.389  44.151  55.875  1.00  0.00     0.018 A 
HETATM   21  C   UNL     1      29.960  45.300  56.534  1.00  0.00     0.138 A 
HETATM   22  C   UNL     1      31.393  43.409  56.533  1.00  0.00     0.017 A 
HETATM   23  N   UNL     1      30.338  45.758  57.739  1.00  0.00    -0.242 NA
HETATM   24  N   UNL     1      29.068  45.943  55.731  1.00  0.00    -0.350 N 
HETATM   25  C   UNL     1      31.279  44.995  58.330  1.00  0.00     0.119 A 
HETATM   26  C   UNL     1      31.832  43.848  57.786  1.00  0.00     0.020 A 
HETATM   27  H   UNL     1      28.652  46.835  55.966  1.00  0.00     0.166 HD
HETATM   28  C   UNL     1      28.863  45.211  54.592  1.00  0.00     0.098 A 
ENDBRANCH  15  19
ENDBRANCH  11  12
ENDBRANCH  10  11
ENDBRANCH   1   9
TORSDOF 4
ENDMDL
MODEL 3
REMARK VINA RESULT:      -9.1      3.792      8.148
REMARK  4 active torsions:
REMARK  status: ('A' for Active; 'I' for Inactive)
REMARK    1  A    between atoms: C_10  and  C_11 
REMARK    2  A    between atoms: N_14  and  C_16 
REMARK    3  A    between atoms: C_16  and  C_17 
REMARK    4  A    between atoms: C_18  and  C_19 
ROOT
HETATM    1  C   UNL     1      29.644  43.425  53.774  1.00  0.00    -0.036 A 
HETATM    2  C   UNL     1      28.825  44.509  54.107  1.00  0.00     0.013 A 
HETATM    3  C   UNL     1      29.047  45.232  55.285  1.00  0.00     0.023 A 
HETATM    4  C   UNL     1      30.083  44.868  56.151  1.00  0.00     0.044 A 
HETATM    5  C   UNL     1      30.312  45.608  57.356  1.00  0.00     0.099 C 
HETATM    6  N   UNL     1      30.500  46.203  58.334  1.00  0.00    -0.191 NA
HETATM    7  C   UNL     1      30.893  43.774  55.834  1.00  0.00     0.023 A 
HETATM    8  C   UNL     1      30.671  43.055  54.655  1.00  0.00     0.013 A 
ENDROOT
BRANCH   1   9
HETATM    9  C   UNL     1      29.379  42.672  52.540  1.00  0.00     0.009 C 
HETATM   10  C   UNL     1      28.293  41.893  52.403  1.00  0.00     0.001 C 
BRANCH  10  11
HETATM   11  C   UNL     1      27.882  41.109  51.200  1.00  0.00     0.262 C 
BRANCH  11  12
HETATM   12  N   UNL     1      26.618  41.568  50.499  1.00  0.00    -0.068 N 
HETATM   13  C   UNL     1      25.647  42.122  51.524  1.00  0.00     0.236 C 
HETATM   14  C   UNL     1      24.394  42.686  50.861  1.00  0.00     0.037 C 
HETATM   15  C   UNL     1      24.729  43.744  49.791  1.00  0.00     0.024 C 
HETATM   16  C   UNL     1      25.608  43.029  48.761  1.00  0.00     0.037 C 
HETATM   17  C   UNL     1      26.911  42.545  49.380  1.00  0.00     0.236 C 
HETATM   18  H   UNL     1      26.191  40.733  50.082  1.00  0.00     0.280 HD
BRANCH  15  19
HETATM   19  C   UNL     1      25.345  45.011  50.373  1.00  0.00    -0.024 A 
HETATM   20  C   UNL     1      25.483  45.404  51.757  1.00  0.00     0.018 A 
HETATM   21  C   UNL     1      26.017  46.690  51.767  1.00  0.00     0.138 A 
HETATM   22  C   UNL     1      25.208  44.847  53.024  1.00  0.00     0.017 A 
HETATM   23  N   UNL     1      26.250  47.485  52.824  1.00  0.00    -0.242 NA
HETATM   24  N   UNL     1      26.309  47.041  50.484  1.00  0.00    -0.350 N 
HETATM   25  C   UNL     1      25.945  46.910  54.004  1.00  0.00     0.119 A 
HETATM   26  C   UNL     1      25.443  45.628  54.159  1.00  0.00     0.020 A 
HETATM   27  H   UNL     1      26.758  47.912  50.235  1.00  0.00     0.166 HD
HETATM   28  C   UNL     1      25.924  46.038  49.634  1.00  0.00     0.098 A 
ENDBRANCH  15  19
ENDBRANCH  11  12
ENDBRANCH  10  11
ENDBRANCH   1   9
TORSDOF 4
ENDMDL
MODEL 4
REMARK VINA RESULT:      -8.8      4.365      8.629
REMARK  4 active torsions:
REMARK  status: ('A' for Active; 'I' for Inactive)
REMARK    1  A    between atoms: C_10  and  C_11 
REMARK    2  A    between atoms: N_14  and  C_16 
REMARK    3  A    between atoms: C_16  and  C_17 
REMARK    4  A    between atoms: C_18  and  C_19 
ROOT
HETATM    1  C   UNL     1      28.263  45.116  54.514  1.00  0.00    -0.036 A 
HETATM    2  C   UNL     1      28.810  43.867  54.199  1.00  0.00     0.013 A 
HETATM    3  C   UNL     1      29.873  43.349  54.947  1.00  0.00     0.023 A 
HETATM    4  C   UNL     1      30.411  44.080  56.011  1.00  0.00     0.044 A 
HETATM    5  C   UNL     1      31.498  43.550  56.778  1.00  0.00     0.099 C 
HETATM    6  N   UNL     1      32.379  43.125  57.402  1.00  0.00    -0.191 NA
HETATM    7  C   UNL     1      29.881  45.337  56.319  1.00  0.00     0.023 A 
HETATM    8  C   UNL     1      28.817  45.853  55.572  1.00  0.00     0.013 A 
ENDROOT
BRANCH   1   9
HETATM    9  C   UNL     1      27.159  45.646  53.702  1.00  0.00     0.009 C 
HETATM   10  C   UNL     1      26.977  45.277  52.423  1.00  0.00     0.001 C 
BRANCH  10  11
HETATM   11  C   UNL     1      25.883  45.703  51.500  1.00  0.00     0.262 C 
BRANCH  11  12
HETATM   12  N   UNL     1      25.237  44.608  50.673  1.00  0.00    -0.068 N 
HETATM   13  C   UNL     1      26.173  44.209  49.549  1.00  0.00     0.236 C 
HETATM   14  C   UNL     1      25.612  43.043  48.740  1.00  0.00     0.037 C 
HETATM   15  C   UNL     1      25.270  41.830  49.628  1.00  0.00     0.024 C 
HETATM   16  C   UNL     1      24.233  42.335  50.637  1.00  0.00     0.037 C 
HETATM   17  C   UNL     1      24.805  43.431  51.523  1.00  0.00     0.236 C 
HETATM   18  H   UNL     1      24.395  45.014  50.250  1.00  0.00     0.280 HD
BRANCH  15  19
HETATM   19  C   UNL     1      26.497  41.183  50.258  1.00  0.00    -0.024 A 
HETATM   20  C   UNL     1      27.429  40.241  49.680  1.00  0.00     0.018 A 
HETATM   21  C   UNL     1      28.317  39.871  50.687  1.00  0.00     0.138 A 
HETATM   22  C   UNL     1      27.635  39.625  48.428  1.00  0.00     0.017 A 
HETATM   23  N   UNL     1      29.306  38.964  50.631  1.00  0.00    -0.242 NA
HETATM   24  N   UNL     1      28.042  40.617  51.793  1.00  0.00    -0.350 N 
HETATM   25  C   UNL     1      29.439  38.391  49.418  1.00  0.00     0.119 A 
HETATM   26  C   UNL     1      28.659  38.681  48.310  1.00  0.00     0.020 A 
HETATM   27  H   UNL     1      28.587  40.569  52.643  1.00  0.00     0.166 HD
HETATM   28  C   UNL     1      26.960  41.420  51.549  1.00  0.00     0.098 A 
ENDBRANCH  15  19
ENDBRANCH  11  12
ENDBRANCH  10  11
ENDBRANCH   1   9
TORSDOF 4
ENDMDL
MODEL 5
REMARK VINA RESULT:      -8.6     11.948     14.472
REMARK  4 active torsions:
REMARK  status: ('A' for Active; 'I' for Inactive)
REMARK    1  A    between atoms: C_10  and  C_11 
REMARK    2  A    between atoms: N_14  and  C_16 
REMARK    3  A    between atoms: C_16  and  C_17 
REMARK    4  A    between atoms: C_18  and  C_19 
ROOT
HETATM    1  C   UNL     1      32.402  49.809  42.282  1.00  0.00    -0.036 A 
HETATM    2  C   UNL     1      33.645  49.783  41.638  1.00  0.00     0.013 A 
HETATM    3  C   UNL     1      34.689  50.605  42.078  1.00  0.00     0.023 A 
HETATM    4  C   UNL     1      34.499  51.471  43.158  1.00  0.00     0.044 A 
HETATM    5  C   UNL     1      35.568  52.311  43.610  1.00  0.00     0.099 C 
HETATM    6  N   UNL     1      36.430  52.994  43.978  1.00  0.00    -0.191 NA
HETATM    7  C   UNL     1      33.255  51.516  43.794  1.00  0.00     0.023 A 
HETATM    8  C   UNL     1      32.212  50.694  43.355  1.00  0.00     0.013 A 
ENDROOT
BRANCH   1   9
HETATM    9  C   UNL     1      31.316  48.951  41.790  1.00  0.00     0.009 C 
HETATM   10  C   UNL     1      31.494  48.095  40.770  1.00  0.00     0.001 C 
BRANCH  10  11
HETATM   11  C   UNL     1      30.497  47.142  40.198  1.00  0.00     0.262 C 
BRANCH  11  12
HETATM   12  N   UNL     1      29.209  47.749  39.676  1.00  0.00    -0.068 N 
HETATM   13  C   UNL     1      28.324  48.133  40.846  1.00  0.00     0.236 C 
HETATM   14  C   UNL     1      27.053  48.837  40.380  1.00  0.00     0.037 C 
HETATM   15  C   UNL     1      27.358  50.062  39.495  1.00  0.00     0.024 C 
HETATM   16  C   UNL     1      28.145  49.522  38.297  1.00  0.00     0.037 C 
HETATM   17  C   UNL     1      29.466  48.904  38.731  1.00  0.00     0.236 C 
HETATM   18  H   UNL     1      28.727  47.013  39.147  1.00  0.00     0.280 HD
BRANCH  15  19
HETATM   19  C   UNL     1      28.054  51.188  40.250  1.00  0.00    -0.024 A 
HETATM   20  C   UNL     1      29.392  51.708  40.081  1.00  0.00     0.018 A 
HETATM   21  C   UNL     1      29.590  52.662  41.075  1.00  0.00     0.138 A 
HETATM   22  C   UNL     1      30.487  51.487  39.220  1.00  0.00     0.017 A 
HETATM   23  N   UNL     1      30.708  53.354  41.352  1.00  0.00    -0.242 NA
HETATM   24  N   UNL     1      28.420  52.821  41.753  1.00  0.00    -0.350 N 
HETATM   25  C   UNL     1      31.727  53.082  40.513  1.00  0.00     0.119 A 
HETATM   26  C   UNL     1      31.672  52.190  39.455  1.00  0.00     0.020 A 
HETATM   27  H   UNL     1      28.295  53.501  42.492  1.00  0.00     0.166 HD
HETATM   28  C   UNL     1      27.482  51.953  41.262  1.00  0.00     0.098 A 
ENDBRANCH  15  19
ENDBRANCH  11  12
ENDBRANCH  10  11
ENDBRANCH   1   9
TORSDOF 4
ENDMDL
MODEL 6
REMARK VINA RESULT:      -8.5      7.022     10.632
REMARK  4 active torsions:
REMARK  status: ('A' for Active; 'I' for Inactive)
REMARK    1  A    between atoms: C_10  and  C_11 
REMARK    2  A    between atoms: N_14  and  C_16 
REMARK    3  A    between atoms: C_16  and  C_17 
REMARK    4  A    between atoms: C_18  and  C_19 
ROOT
HETATM    1  C   UNL     1      17.927  51.343  42.730  1.00  0.00    -0.036 A 
HETATM    2  C   UNL     1      18.685  50.180  42.552  1.00  0.00     0.013 A 
HETATM    3  C   UNL     1      19.575  50.070  41.478  1.00  0.00     0.023 A 
HETATM    4  C   UNL     1      19.707  51.117  40.561  1.00  0.00     0.044 A 
HETATM    5  C   UNL     1      20.620  51.007  39.462  1.00  0.00     0.099 C 
HETATM    6  N   UNL     1      21.356  50.921  38.570  1.00  0.00    -0.191 NA
HETATM    7  C   UNL     1      18.940  52.274  40.722  1.00  0.00     0.023 A 
HETATM    8  C   UNL     1      18.052  52.384  41.798  1.00  0.00     0.013 A 
ENDROOT
BRANCH   1   9
HETATM    9  C   UNL     1      16.986  51.426  43.856  1.00  0.00     0.009 C 
HETATM   10  C   UNL     1      17.212  50.793  45.019  1.00  0.00     0.001 C 
BRANCH  10  11
HETATM   11  C   UNL     1      16.367  50.823  46.250  1.00  0.00     0.262 C 
BRANCH  11  12
HETATM   12  N   UNL     1      16.921  51.603  47.427  1.00  0.00    -0.068 N 
HETATM   13  C   UNL     1      16.679  50.823  48.705  1.00  0.00     0.236 C 
HETATM   14  C   UNL     1      17.301  51.519  49.912  1.00  0.00     0.037 C 
HETATM   15  C   UNL     1      18.804  51.796  49.713  1.00  0.00     0.024 C 
HETATM   16  C   UNL     1      18.900  52.686  48.469  1.00  0.00     0.037 C 
HETATM   17  C   UNL     1      18.376  51.972  47.232  1.00  0.00     0.236 C 
HETATM   18  H   UNL     1      16.381  52.474  47.485  1.00  0.00     0.280 HD
BRANCH  15  19
HETATM   19  C   UNL     1      19.644  50.527  49.644  1.00  0.00    -0.024 A 
HETATM   20  C   UNL     1      20.978  50.344  49.119  1.00  0.00     0.018 A 
HETATM   21  C   UNL     1      21.264  48.983  49.190  1.00  0.00     0.138 A 
HETATM   22  C   UNL     1      21.994  51.152  48.567  1.00  0.00     0.017 A 
HETATM   23  N   UNL     1      22.358  48.339  48.749  1.00  0.00    -0.242 NA
HETATM   24  N   UNL     1      20.232  48.363  49.826  1.00  0.00    -0.350 N 
HETATM   25  C   UNL     1      23.281  49.159  48.210  1.00  0.00     0.119 A 
HETATM   26  C   UNL     1      23.159  50.535  48.103  1.00  0.00     0.020 A 
HETATM   27  H   UNL     1      20.229  47.376  50.047  1.00  0.00     0.166 HD
HETATM   28  C   UNL     1      19.255  49.278  50.118  1.00  0.00     0.098 A 
ENDBRANCH  15  19
ENDBRANCH  11  12
ENDBRANCH  10  11
ENDBRANCH   1   9
TORSDOF 4
ENDMDL
MODEL 7
REMARK VINA RESULT:      -8.4     11.840     14.780
REMARK  4 active torsions:
REMARK  status: ('A' for Active; 'I' for Inactive)
REMARK    1  A    between atoms: C_10  and  C_11 
REMARK    2  A    between atoms: N_14  and  C_16 
REMARK    3  A    between atoms: C_16  and  C_17 
REMARK    4  A    between atoms: C_18  and  C_19 
ROOT
HETATM    1  C   UNL     1      33.171  51.836  40.669  1.00  0.00    -0.036 A 
HETATM    2  C   UNL     1      33.296  51.657  42.051  1.00  0.00     0.013 A 
HETATM    3  C   UNL     1      34.517  51.263  42.609  1.00  0.00     0.023 A 
HETATM    4  C   UNL     1      35.625  51.029  41.788  1.00  0.00     0.044 A 
HETATM    5  C   UNL     1      36.876  50.626  42.359  1.00  0.00     0.099 C 
HETATM    6  N   UNL     1      37.891  50.299  42.816  1.00  0.00    -0.191 NA
HETATM    7  C   UNL     1      35.502  51.187  40.405  1.00  0.00     0.023 A 
HETATM    8  C   UNL     1      34.282  51.583  39.849  1.00  0.00     0.013 A 
ENDROOT
BRANCH   1   9
HETATM    9  C   UNL     1      31.873  52.233  40.106  1.00  0.00     0.009 C 
HETATM   10  C   UNL     1      31.062  53.100  40.734  1.00  0.00     0.001 C 
BRANCH  10  11
HETATM   11  C   UNL     1      29.743  53.618  40.262  1.00  0.00     0.262 C 
BRANCH  11  12
HETATM   12  N   UNL     1      28.612  52.611  40.190  1.00  0.00    -0.068 N 
HETATM   13  C   UNL     1      28.611  51.953  38.823  1.00  0.00     0.236 C 
HETATM   14  C   UNL     1      27.550  50.861  38.727  1.00  0.00     0.037 C 
HETATM   15  C   UNL     1      27.696  49.809  39.844  1.00  0.00     0.024 C 
HETATM   16  C   UNL     1      27.559  50.580  41.161  1.00  0.00     0.037 C 
HETATM   17  C   UNL     1      28.669  51.608  41.323  1.00  0.00     0.236 C 
HETATM   18  H   UNL     1      27.738  53.140  40.283  1.00  0.00     0.280 HD
BRANCH  15  19
HETATM   19  C   UNL     1      28.973  48.985  39.728  1.00  0.00    -0.024 A 
HETATM   20  C   UNL     1      30.005  48.759  40.714  1.00  0.00     0.018 A 
HETATM   21  C   UNL     1      31.011  48.024  40.094  1.00  0.00     0.138 A 
HETATM   22  C   UNL     1      30.238  49.095  42.064  1.00  0.00     0.017 A 
HETATM   23  N   UNL     1      32.197  47.645  40.601  1.00  0.00    -0.242 NA
HETATM   24  N   UNL     1      30.594  47.704  38.838  1.00  0.00    -0.350 N 
HETATM   25  C   UNL     1      32.374  48.016  41.884  1.00  0.00     0.119 A 
HETATM   26  C   UNL     1      31.451  48.715  42.645  1.00  0.00     0.020 A 
HETATM   27  H   UNL     1      31.131  47.125  38.205  1.00  0.00     0.166 HD
HETATM   28  C   UNL     1      29.365  48.262  38.606  1.00  0.00     0.098 A 
ENDBRANCH  15  19
ENDBRANCH  11  12
ENDBRANCH  10  11
ENDBRANCH   1   9
TORSDOF 4
ENDMDL
MODEL 8
REMARK VINA RESULT:      -8.4     17.280     19.305
REMARK  4 active torsions:
REMARK  status: ('A' for Active; 'I' for Inactive)
REMARK    1  A    between atoms: C_10  and  C_11 
REMARK    2  A    between atoms: N_14  and  C_16 
REMARK    3  A    between atoms: C_16  and  C_17 
REMARK    4  A    between atoms: C_18  and  C_19 
ROOT
HETATM    1  C   UNL     1      36.841  48.284  66.273  1.00  0.00    -0.036 A 
HETATM    2  C   UNL     1      37.501  48.881  65.193  1.00  0.00     0.013 A 
HETATM    3  C   UNL     1      38.091  50.142  65.331  1.00  0.00     0.023 A 
HETATM    4  C   UNL     1      38.016  50.827  66.548  1.00  0.00     0.044 A 
HETATM    5  C   UNL     1      38.621  52.118  66.691  1.00  0.00     0.099 C 
HETATM    6  N   UNL     1      39.109  53.163  66.811  1.00  0.00    -0.191 NA
HETATM    7  C   UNL     1      37.342  50.245  67.625  1.00  0.00     0.023 A 
HETATM    8  C   UNL     1      36.754  48.983  67.486  1.00  0.00     0.013 A 
ENDROOT
BRANCH   1   9
HETATM    9  C   UNL     1      36.214  46.966  66.097  1.00  0.00     0.009 C 
HETATM   10  C   UNL     1      36.472  46.194  65.029  1.00  0.00     0.001 C 
BRANCH  10  11
HETATM   11  C   UNL     1      35.940  44.828  64.744  1.00  0.00     0.262 C 
BRANCH  11  12
HETATM   12  N   UNL     1      36.759  43.971  63.798  1.00  0.00    -0.068 N 
HETATM   13  C   UNL     1      37.955  44.766  63.309  1.00  0.00     0.236 C 
HETATM   14  C   UNL     1      38.866  43.919  62.425  1.00  0.00     0.037 C 
HETATM   15  C   UNL     1      39.316  42.622  63.127  1.00  0.00     0.024 C 
HETATM   16  C   UNL     1      38.027  41.862  63.458  1.00  0.00     0.037 C 
HETATM   17  C   UNL     1      37.149  42.647  64.419  1.00  0.00     0.236 C 
HETATM   18  H   UNL     1      36.162  43.773  62.987  1.00  0.00     0.280 HD
BRANCH  15  19
HETATM   19  C   UNL     1      40.224  42.873  64.324  1.00  0.00    -0.024 A 
HETATM   20  C   UNL     1      41.290  43.837  64.473  1.00  0.00     0.018 A 
HETATM   21  C   UNL     1      41.884  43.604  65.710  1.00  0.00     0.138 A 
HETATM   22  C   UNL     1      41.855  44.882  63.712  1.00  0.00     0.017 A 
HETATM   23  N   UNL     1      42.960  44.208  66.243  1.00  0.00    -0.242 NA
HETATM   24  N   UNL     1      41.170  42.638  66.352  1.00  0.00    -0.350 N 
HETATM   25  C   UNL     1      43.472  45.178  65.460  1.00  0.00     0.119 A 
HETATM   26  C   UNL     1      42.970  45.552  64.224  1.00  0.00     0.020 A 
HETATM   27  H   UNL     1      41.374  42.331  67.294  1.00  0.00     0.166 HD
HETATM   28  C   UNL     1      40.160  42.197  65.539  1.00  0.00     0.098 A 
ENDBRANCH  15  19
ENDBRANCH  11  12
ENDBRANCH  10  11
ENDBRANCH   1   9
TORSDOF 4
ENDMDL
MODEL 9
REMARK VINA RESULT:      -8.3      2.455     10.102
REMARK  4 active torsions:
REMARK  status: ('A' for Active; 'I' for Inactive)
REMARK    1  A    between atoms: C_10  and  C_11 
REMARK    2  A    between atoms: N_14  and  C_16 
REMARK    3  A    between atoms: C_16  and  C_17 
REMARK    4  A    between atoms: C_18  and  C_19 
ROOT
HETATM    1  C   UNL     1      28.328  44.267  54.204  1.00  0.00    -0.036 A 
HETATM    2  C   UNL     1      29.130  43.126  54.087  1.00  0.00     0.013 A 
HETATM    3  C   UNL     1      30.197  42.915  54.968  1.00  0.00     0.023 A 
HETATM    4  C   UNL     1      30.482  43.849  55.967  1.00  0.00     0.044 A 
HETATM    5  C   UNL     1      31.573  43.632  56.871  1.00  0.00     0.099 C 
HETATM    6  N   UNL     1      32.455  43.462  57.604  1.00  0.00    -0.191 NA
HETATM    7  C   UNL     1      29.697  45.000  56.078  1.00  0.00     0.023 A 
HETATM    8  C   UNL     1      28.630  45.209  55.199  1.00  0.00     0.013 A 
ENDROOT
BRANCH   1   9
HETATM    9  C   UNL     1      27.226  44.475  53.255  1.00  0.00     0.009 C 
HETATM   10  C   UNL     1      26.022  44.922  53.651  1.00  0.00     0.001 C 
BRANCH  10  11
HETATM   11  C   UNL     1      24.833  45.214  52.795  1.00  0.00     0.262 C 
BRANCH  11  12
HETATM   12  N   UNL     1      25.058  45.172  51.296  1.00  0.00    -0.068 N 
HETATM   13  C   UNL     1      24.320  43.984  50.710  1.00  0.00     0.236 C 
HETATM   14  C   UNL     1      24.435  43.948  49.189  1.00  0.00     0.037 C 
HETATM   15  C   UNL     1      23.963  45.264  48.539  1.00  0.00     0.024 C 
HETATM   16  C   UNL     1      24.862  46.359  49.122  1.00  0.00     0.037 C 
HETATM   17  C   UNL     1      24.688  46.480  50.628  1.00  0.00     0.236 C 
HETATM   18  H   UNL     1      26.062  45.020  51.151  1.00  0.00     0.280 HD
BRANCH  15  19
HETATM   19  C   UNL     1      22.470  45.517  48.712  1.00  0.00    -0.024 A 
HETATM   20  C   UNL     1      21.704  46.701  48.398  1.00  0.00     0.018 A 
HETATM   21  C   UNL     1      20.401  46.474  48.834  1.00  0.00     0.138 A 
HETATM   22  C   UNL     1      21.940  47.961  47.810  1.00  0.00     0.017 A 
HETATM   23  N   UNL     1      19.359  47.323  48.817  1.00  0.00    -0.242 NA
HETATM   24  N   UNL     1      20.319  45.192  49.285  1.00  0.00    -0.350 N 
HETATM   25  C   UNL     1      19.652  48.519  48.268  1.00  0.00     0.119 A 
HETATM   26  C   UNL     1      20.887  48.879  47.755  1.00  0.00     0.020 A 
HETATM   27  H   UNL     1      19.457  44.771  49.607  1.00  0.00     0.166 HD
HETATM   28  C   UNL     1      21.550  44.597  49.207  1.00  0.00     0.098 A 
ENDBRANCH  15  19
ENDBRANCH  11  12
ENDBRANCH  10  11
ENDBRANCH   1   9
TORSDOF 4
ENDMDL
MODEL 10
REMARK VINA RESULT:      -8.3     11.390     14.290
REMARK  4 active torsions:
REMARK  status: ('A' for Active; 'I' for Inactive)
REMARK    1  A    between atoms: C_10  and  C_11 
REMARK    2  A    between atoms: N_14  and  C_16 
REMARK    3  A    between atoms: C_16  and  C_17 
REMARK    4  A    between atoms: C_18  and  C_19 
ROOT
HETATM    1  C   UNL     1      27.878  48.742  40.172  1.00  0.00    -0.036 A 
HETATM    2  C   UNL     1      26.759  47.988  40.542  1.00  0.00     0.013 A 
HETATM    3  C   UNL     1      25.505  48.256  39.981  1.00  0.00     0.023 A 
HETATM    4  C   UNL     1      25.354  49.292  39.055  1.00  0.00     0.044 A 
HETATM    5  C   UNL     1      24.071  49.567  38.479  1.00  0.00     0.099 C 
HETATM    6  N   UNL     1      23.034  49.793  38.012  1.00  0.00    -0.191 NA
HETATM    7  C   UNL     1      26.464  50.062  38.695  1.00  0.00     0.023 A 
HETATM    8  C   UNL     1      27.717  49.791  39.254  1.00  0.00     0.013 A 
ENDROOT
BRANCH   1   9
HETATM    9  C   UNL     1      29.181  48.452  40.789  1.00  0.00     0.009 C 
HETATM   10  C   UNL     1      29.453  48.783  42.062  1.00  0.00     0.001 C 
BRANCH  10  11
HETATM   11  C   UNL     1      30.710  48.515  42.822  1.00  0.00     0.262 C 
BRANCH  11  12
HETATM   12  N   UNL     1      31.826  49.527  42.654  1.00  0.00    -0.068 N 
HETATM   13  C   UNL     1      32.733  49.092  41.519  1.00  0.00     0.236 C 
HETATM   14  C   UNL     1      33.821  50.125  41.244  1.00  0.00     0.037 C 
HETATM   15  C   UNL     1      33.239  51.527  40.977  1.00  0.00     0.024 C 
HETATM   16  C   UNL     1      32.452  51.896  42.238  1.00  0.00     0.037 C 
HETATM   17  C   UNL     1      31.297  50.935  42.476  1.00  0.00     0.236 C 
HETATM   18  H   UNL     1      32.377  49.507  43.520  1.00  0.00     0.280 HD
BRANCH  15  19
HETATM   19  C   UNL     1      32.432  51.605  39.687  1.00  0.00    -0.024 A 
HETATM   20  C   UNL     1      31.146  52.222  39.451  1.00  0.00     0.018 A 
HETATM   21  C   UNL     1      30.787  51.934  38.137  1.00  0.00     0.138 A 
HETATM   22  C   UNL     1      30.213  52.982  40.187  1.00  0.00     0.017 A 
HETATM   23  N   UNL     1      29.643  52.239  37.502  1.00  0.00    -0.242 NA
HETATM   24  N   UNL     1      31.825  51.282  37.544  1.00  0.00    -0.350 N 
HETATM   25  C   UNL     1      28.780  52.943  38.262  1.00  0.00     0.119 A 
HETATM   26  C   UNL     1      29.010  53.338  39.570  1.00  0.00     0.020 A 
HETATM   27  H   UNL     1      31.826  51.012  36.570  1.00  0.00     0.166 HD
HETATM   28  C   UNL     1      32.827  51.088  38.457  1.00  0.00     0.098 A 
ENDBRANCH  15  19
ENDBRANCH  11  12
ENDBRANCH  10  11
ENDBRANCH   1   9
TORSDOF 4
ENDMDL
