MODEL 1
REMARK VINA RESULT:      -9.8      0.000      0.000
REMARK  6 active torsions:
REMARK  status: ('A' for Active; 'I' for Inactive)
REMARK    1  A    between atoms: C_2  and  C_3 
REMARK    2  A    between atoms: C_2  and  C_9 
REMARK    3  A    between atoms: C_9  and  N_10 
REMARK       I    between atoms: N_10  and  C_11 
REMARK       I    between atoms: C_11  and  N_12 
REMARK    4  A    between atoms: N_12  and  C_13 
REMARK    5  A    between atoms: C_15  and  N_16 
REMARK       I    between atoms: N_16  and  C_17 
REMARK    6  A    between atoms: C_17  and  C_18 
ROOT
HETATM    1  N   UNL     1      26.425  45.257  52.179  1.00  0.00    -0.342 N 
HETATM    2  C   UNL     1      26.184  46.561  51.803  1.00  0.00     0.320 C 
HETATM    3  N   UNL     1      26.238  46.681  50.432  1.00  0.00    -0.309 N 
HETATM    4  O   UNL     1      26.028  47.467  52.610  1.00  0.00    -0.247 OA
HETATM    5  H   UNL     1      26.213  44.525  51.516  1.00  0.00     0.164 HD
HETATM    6  H   UNL     1      26.726  45.930  49.965  1.00  0.00     0.170 HD
ENDROOT
BRANCH   3   7
HETATM    7  C   UNL     1      26.077  47.868  49.690  1.00  0.00     0.038 A 
HETATM    8  C   UNL     1      24.763  48.285  49.427  1.00  0.00     0.059 A 
HETATM    9  C   UNL     1      24.510  49.420  48.654  1.00  0.00     0.037 A 
HETATM   10  C   UNL     1      25.594  50.174  48.190  1.00  0.00     0.029 A 
HETATM   11  C   UNL     1      26.904  49.783  48.473  1.00  0.00     0.004 A 
HETATM   12  C   UNL     1      27.145  48.626  49.215  1.00  0.00     0.029 A 
BRANCH   9  13
HETATM   13  N   UNL     1      23.217  49.845  48.273  1.00  0.00    -0.323 N 
HETATM   14  C   UNL     1      22.277  50.495  49.056  1.00  0.00     0.258 C 
HETATM   15  O   UNL     1      22.462  50.892  50.202  1.00  0.00    -0.267 OA
HETATM   16  H   UNL     1      22.944  49.598  47.334  1.00  0.00     0.169 HD
BRANCH  14  17
HETATM   17  C   UNL     1      20.973  50.687  48.425  1.00  0.00     0.056 A 
HETATM   18  C   UNL     1      20.298  49.861  47.546  1.00  0.00     0.158 A 
HETATM   19  O   UNL     1      19.097  50.393  47.199  1.00  0.00    -0.334 OA
HETATM   20  C   UNL     1      18.981  51.573  47.854  1.00  0.00     0.142 A 
HETATM   21  C   UNL     1      20.100  51.804  48.617  1.00  0.00     0.043 A 
ENDBRANCH  14  17
ENDBRANCH   9  13
ENDBRANCH   3   7
BRANCH   1  22
HETATM   22  C   UNL     1      26.723  44.886  53.553  1.00  0.00     0.138 C 
BRANCH  22  23
HETATM   23  C   UNL     1      27.892  43.857  53.666  1.00  0.00    -0.004 C 
HETATM   24  C   UNL     1      28.640  43.717  52.318  1.00  0.00     0.021 C 
HETATM   25  C   UNL     1      27.292  42.466  53.991  1.00  0.00     0.021 C 
BRANCH  23  26
HETATM   26  C   UNL     1      28.888  44.345  54.738  1.00  0.00    -0.046 A 
HETATM   27  C   UNL     1      30.059  43.614  54.999  1.00  0.00     0.027 A 
HETATM   28  C   UNL     1      30.939  44.054  55.978  1.00  0.00     0.116 A 
HETATM   29  N   UNL     1      30.748  45.165  56.715  1.00  0.00    -0.273 NA
HETATM   30  C   UNL     1      29.624  45.862  56.459  1.00  0.00     0.116 A 
HETATM   31  C   UNL     1      28.686  45.503  55.500  1.00  0.00     0.027 A 
ENDBRANCH  23  26
ENDBRANCH  22  23
ENDBRANCH   1  22
TORSDOF 6
ENDMDL
MODEL 2
REMARK VINA RESULT:      -8.8      2.320     10.459
REMARK  6 active torsions:
REMARK  status: ('A' for Active; 'I' for Inactive)
REMARK    1  A    between atoms: C_2  and  C_3 
REMARK    2  A    between atoms: C_2  and  C_9 
REMARK    3  A    between atoms: C_9  and  N_10 
REMARK       I    between atoms: N_10  and  C_11 
REMARK       I    between atoms: C_11  and  N_12 
REMARK    4  A    between atoms: N_12  and  C_13 
REMARK    5  A    between atoms: C_15  and  N_16 
REMARK       I    between atoms: N_16  and  C_17 
REMARK    6  A    between atoms: C_17  and  C_18 
ROOT
HETATM    1  N   UNL     1      21.521  50.735  48.171  1.00  0.00    -0.342 N 
HETATM    2  C   UNL     1      22.700  50.598  48.871  1.00  0.00     0.320 C 
HETATM    3  N   UNL     1      23.498  49.642  48.282  1.00  0.00    -0.309 N 
HETATM    4  O   UNL     1      22.931  51.204  49.908  1.00  0.00    -0.247 OA
HETATM    5  H   UNL     1      21.519  50.491  47.192  1.00  0.00     0.164 HD
HETATM    6  H   UNL     1      23.005  49.007  47.670  1.00  0.00     0.170 HD
ENDROOT
BRANCH   3   7
HETATM    7  C   UNL     1      24.758  49.209  48.738  1.00  0.00     0.038 A 
HETATM    8  C   UNL     1      24.776  48.144  49.653  1.00  0.00     0.059 A 
HETATM    9  C   UNL     1      25.976  47.685  50.199  1.00  0.00     0.037 A 
HETATM   10  C   UNL     1      27.176  48.269  49.775  1.00  0.00     0.029 A 
HETATM   11  C   UNL     1      27.169  49.309  48.843  1.00  0.00     0.004 A 
HETATM   12  C   UNL     1      25.960  49.783  48.332  1.00  0.00     0.029 A 
BRANCH   9  13
HETATM   13  N   UNL     1      26.061  46.683  51.192  1.00  0.00    -0.323 N 
HETATM   14  C   UNL     1      25.802  46.814  52.547  1.00  0.00     0.258 C 
HETATM   15  O   UNL     1      25.361  47.822  53.090  1.00  0.00    -0.267 OA
HETATM   16  H   UNL     1      26.394  45.787  50.870  1.00  0.00     0.169 HD
BRANCH  14  17
HETATM   17  C   UNL     1      26.108  45.634  53.352  1.00  0.00     0.056 A 
HETATM   18  C   UNL     1      25.246  44.697  53.890  1.00  0.00     0.158 A 
HETATM   19  O   UNL     1      25.928  43.735  54.565  1.00  0.00    -0.334 OA
HETATM   20  C   UNL     1      27.245  44.039  54.467  1.00  0.00     0.142 A 
HETATM   21  C   UNL     1      27.412  45.191  53.737  1.00  0.00     0.043 A 
ENDBRANCH  14  17
ENDBRANCH   9  13
ENDBRANCH   3   7
BRANCH   1  22
HETATM   22  C   UNL     1      20.372  51.443  48.714  1.00  0.00     0.138 C 
BRANCH  22  23
HETATM   23  C   UNL     1      19.185  50.494  49.071  1.00  0.00    -0.004 C 
HETATM   24  C   UNL     1      19.360  49.896  50.488  1.00  0.00     0.021 C 
HETATM   25  C   UNL     1      19.191  49.304  48.079  1.00  0.00     0.021 C 
BRANCH  23  26
HETATM   26  C   UNL     1      17.871  51.300  49.031  1.00  0.00    -0.046 A 
HETATM   27  C   UNL     1      17.697  52.411  49.874  1.00  0.00     0.027 A 
HETATM   28  C   UNL     1      16.503  53.118  49.841  1.00  0.00     0.116 A 
HETATM   29  N   UNL     1      15.470  52.810  49.034  1.00  0.00    -0.273 NA
HETATM   30  C   UNL     1      15.643  51.745  48.227  1.00  0.00     0.116 A 
HETATM   31  C   UNL     1      16.799  50.977  48.188  1.00  0.00     0.027 A 
ENDBRANCH  23  26
ENDBRANCH  22  23
ENDBRANCH   1  22
TORSDOF 6
ENDMDL
MODEL 3
REMARK VINA RESULT:      -8.6      2.395     10.474
REMARK  6 active torsions:
REMARK  status: ('A' for Active; 'I' for Inactive)
REMARK    1  A    between atoms: C_2  and  C_3 
REMARK    2  A    between atoms: C_2  and  C_9 
REMARK    3  A    between atoms: C_9  and  N_10 
REMARK       I    between atoms: N_10  and  C_11 
REMARK       I    between atoms: C_11  and  N_12 
REMARK    4  A    between atoms: N_12  and  C_13 
REMARK    5  A    between atoms: C_15  and  N_16 
REMARK       I    between atoms: N_16  and  C_17 
REMARK    6  A    between atoms: C_17  and  C_18 
ROOT
HETATM    1  N   UNL     1      20.672  50.370  49.059  1.00  0.00    -0.342 N 
HETATM    2  C   UNL     1      21.972  50.328  49.512  1.00  0.00     0.320 C 
HETATM    3  N   UNL     1      22.735  49.515  48.703  1.00  0.00    -0.309 N 
HETATM    4  O   UNL     1      22.336  50.887  50.538  1.00  0.00    -0.247 OA
HETATM    5  H   UNL     1      20.505  50.192  48.079  1.00  0.00     0.164 HD
HETATM    6  H   UNL     1      22.202  48.867  48.140  1.00  0.00     0.170 HD
ENDROOT
BRANCH   3   7
HETATM    7  C   UNL     1      24.098  49.205  48.878  1.00  0.00     0.038 A 
HETATM    8  C   UNL     1      24.404  48.078  49.656  1.00  0.00     0.059 A 
HETATM    9  C   UNL     1      25.728  47.728  49.927  1.00  0.00     0.037 A 
HETATM   10  C   UNL     1      26.756  48.491  49.359  1.00  0.00     0.029 A 
HETATM   11  C   UNL     1      26.460  49.596  48.558  1.00  0.00     0.004 A 
HETATM   12  C   UNL     1      25.133  49.957  48.325  1.00  0.00     0.029 A 
BRANCH   9  13
HETATM   13  N   UNL     1      26.108  46.664  50.777  1.00  0.00    -0.323 N 
HETATM   14  C   UNL     1      26.008  46.612  52.158  1.00  0.00     0.258 C 
HETATM   15  O   UNL     1      25.480  47.465  52.864  1.00  0.00    -0.267 OA
HETATM   16  H   UNL     1      26.540  45.880  50.315  1.00  0.00     0.169 HD
BRANCH  14  17
HETATM   17  C   UNL     1      26.609  45.432  52.776  1.00  0.00     0.056 A 
HETATM   18  C   UNL     1      26.629  45.059  54.107  1.00  0.00     0.158 A 
HETATM   19  O   UNL     1      27.278  43.877  54.274  1.00  0.00    -0.334 OA
HETATM   20  C   UNL     1      27.685  43.471  53.046  1.00  0.00     0.142 A 
HETATM   21  C   UNL     1      27.304  44.385  52.094  1.00  0.00     0.043 A 
ENDBRANCH  14  17
ENDBRANCH   9  13
ENDBRANCH   3   7
BRANCH   1  22
HETATM   22  C   UNL     1      19.584  50.899  49.865  1.00  0.00     0.138 C 
BRANCH  22  23
HETATM   23  C   UNL     1      18.373  51.389  49.009  1.00  0.00    -0.004 C 
HETATM   24  C   UNL     1      18.851  51.976  47.659  1.00  0.00     0.021 C 
HETATM   25  C   UNL     1      17.667  52.539  49.771  1.00  0.00     0.021 C 
BRANCH  23  26
HETATM   26  C   UNL     1      17.440  50.194  48.730  1.00  0.00    -0.046 A 
HETATM   27  C   UNL     1      17.811  48.899  49.133  1.00  0.00     0.027 A 
HETATM   28  C   UNL     1      16.970  47.828  48.861  1.00  0.00     0.116 A 
HETATM   29  N   UNL     1      15.790  47.944  48.224  1.00  0.00    -0.273 NA
HETATM   30  C   UNL     1      15.439  49.187  47.841  1.00  0.00     0.116 A 
HETATM   31  C   UNL     1      16.212  50.319  48.069  1.00  0.00     0.027 A 
ENDBRANCH  23  26
ENDBRANCH  22  23
ENDBRANCH   1  22
TORSDOF 6
ENDMDL
MODEL 4
REMARK VINA RESULT:      -8.6      2.309      2.873
REMARK  6 active torsions:
REMARK  status: ('A' for Active; 'I' for Inactive)
REMARK    1  A    between atoms: C_2  and  C_3 
REMARK    2  A    between atoms: C_2  and  C_9 
REMARK    3  A    between atoms: C_9  and  N_10 
REMARK       I    between atoms: N_10  and  C_11 
REMARK       I    between atoms: C_11  and  N_12 
REMARK    4  A    between atoms: N_12  and  C_13 
REMARK    5  A    between atoms: C_15  and  N_16 
REMARK       I    between atoms: N_16  and  C_17 
REMARK    6  A    between atoms: C_17  and  C_18 
ROOT
HETATM    1  N   UNL     1      26.975  44.429  51.937  1.00  0.00    -0.342 N 
HETATM    2  C   UNL     1      25.706  44.327  51.409  1.00  0.00     0.320 C 
HETATM    3  N   UNL     1      25.669  44.873  50.145  1.00  0.00    -0.309 N 
HETATM    4  O   UNL     1      24.758  43.878  52.039  1.00  0.00    -0.247 OA
HETATM    5  H   UNL     1      27.753  44.481  51.297  1.00  0.00     0.164 HD
HETATM    6  H   UNL     1      26.429  45.505  49.941  1.00  0.00     0.170 HD
ENDROOT
BRANCH   3   7
HETATM    7  C   UNL     1      24.536  44.979  49.314  1.00  0.00     0.038 A 
HETATM    8  C   UNL     1      23.767  46.147  49.427  1.00  0.00     0.059 A 
HETATM    9  C   UNL     1      22.598  46.314  48.682  1.00  0.00     0.037 A 
HETATM   10  C   UNL     1      22.231  45.315  47.772  1.00  0.00     0.029 A 
HETATM   11  C   UNL     1      23.008  44.163  47.632  1.00  0.00     0.004 A 
HETATM   12  C   UNL     1      24.154  43.991  48.409  1.00  0.00     0.029 A 
BRANCH   9  13
HETATM   13  N   UNL     1      21.727  47.420  48.813  1.00  0.00    -0.323 N 
HETATM   14  C   UNL     1      21.884  48.685  48.270  1.00  0.00     0.258 C 
HETATM   15  O   UNL     1      22.777  49.020  47.500  1.00  0.00    -0.267 OA
HETATM   16  H   UNL     1      20.929  47.269  49.410  1.00  0.00     0.169 HD
BRANCH  14  17
HETATM   17  C   UNL     1      20.886  49.665  48.691  1.00  0.00     0.056 A 
HETATM   18  C   UNL     1      19.599  49.459  49.150  1.00  0.00     0.158 A 
HETATM   19  O   UNL     1      18.993  50.636  49.456  1.00  0.00    -0.334 OA
HETATM   20  C   UNL     1      19.888  51.621  49.199  1.00  0.00     0.142 A 
HETATM   21  C   UNL     1      21.061  51.085  48.728  1.00  0.00     0.043 A 
ENDBRANCH  14  17
ENDBRANCH   9  13
ENDBRANCH   3   7
BRANCH   1  22
HETATM   22  C   UNL     1      27.249  44.213  53.349  1.00  0.00     0.138 C 
BRANCH  22  23
HETATM   23  C   UNL     1      28.512  43.328  53.596  1.00  0.00    -0.004 C 
HETATM   24  C   UNL     1      29.415  43.288  52.339  1.00  0.00     0.021 C 
HETATM   25  C   UNL     1      28.048  41.873  53.860  1.00  0.00     0.021 C 
BRANCH  23  26
HETATM   26  C   UNL     1      29.318  43.921  54.769  1.00  0.00    -0.046 A 
HETATM   27  C   UNL     1      28.906  45.122  55.374  1.00  0.00     0.027 A 
HETATM   28  C   UNL     1      29.648  45.655  56.417  1.00  0.00     0.116 A 
HETATM   29  N   UNL     1      30.766  45.088  56.910  1.00  0.00    -0.273 NA
HETATM   30  C   UNL     1      31.156  43.938  56.327  1.00  0.00     0.116 A 
HETATM   31  C   UNL     1      30.479  43.327  55.279  1.00  0.00     0.027 A 
ENDBRANCH  23  26
ENDBRANCH  22  23
ENDBRANCH   1  22
TORSDOF 6
ENDMDL
MODEL 5
REMARK VINA RESULT:      -8.6      2.549     10.209
REMARK  6 active torsions:
REMARK  status: ('A' for Active; 'I' for Inactive)
REMARK    1  A    between atoms: C_2  and  C_3 
REMARK    2  A    between atoms: C_2  and  C_9 
REMARK    3  A    between atoms: C_9  and  N_10 
REMARK       I    between atoms: N_10  and  C_11 
REMARK       I    between atoms: C_11  and  N_12 
REMARK    4  A    between atoms: N_12  and  C_13 
REMARK    5  A    between atoms: C_15  and  N_16 
REMARK       I    between atoms: N_16  and  C_17 
REMARK    6  A    between atoms: C_17  and  C_18 
ROOT
HETATM    1  N   UNL     1      23.143  47.848  49.832  1.00  0.00    -0.342 N 
HETATM    2  C   UNL     1      24.417  47.384  50.079  1.00  0.00     0.320 C 
HETATM    3  N   UNL     1      24.373  46.082  50.528  1.00  0.00    -0.309 N 
HETATM    4  O   UNL     1      25.412  48.087  49.975  1.00  0.00    -0.247 OA
HETATM    5  H   UNL     1      22.427  47.173  49.608  1.00  0.00     0.164 HD
HETATM    6  H   UNL     1      23.474  45.796  50.890  1.00  0.00     0.170 HD
ENDROOT
BRANCH   3   7
HETATM    7  C   UNL     1      25.475  45.294  50.913  1.00  0.00     0.038 A 
HETATM    8  C   UNL     1      25.948  45.453  52.225  1.00  0.00     0.059 A 
HETATM    9  C   UNL     1      27.069  44.753  52.675  1.00  0.00     0.037 A 
HETATM   10  C   UNL     1      27.685  43.840  51.811  1.00  0.00     0.029 A 
HETATM   11  C   UNL     1      27.201  43.653  50.514  1.00  0.00     0.004 A 
HETATM   12  C   UNL     1      26.103  44.386  50.064  1.00  0.00     0.029 A 
BRANCH   9  13
HETATM   13  N   UNL     1      27.655  44.933  53.949  1.00  0.00    -0.323 N 
HETATM   14  C   UNL     1      27.882  46.129  54.611  1.00  0.00     0.258 C 
HETATM   15  O   UNL     1      27.518  47.234  54.224  1.00  0.00    -0.267 OA
HETATM   16  H   UNL     1      27.982  44.089  54.394  1.00  0.00     0.169 HD
BRANCH  14  17
HETATM   17  C   UNL     1      28.631  46.010  55.860  1.00  0.00     0.056 A 
HETATM   18  C   UNL     1      28.294  46.453  57.125  1.00  0.00     0.158 A 
HETATM   19  O   UNL     1      29.258  46.132  58.029  1.00  0.00    -0.334 OA
HETATM   20  C   UNL     1      30.231  45.474  57.354  1.00  0.00     0.142 A 
HETATM   21  C   UNL     1      29.901  45.372  56.024  1.00  0.00     0.043 A 
ENDBRANCH  14  17
ENDBRANCH   9  13
ENDBRANCH   3   7
BRANCH   1  22
HETATM   22  C   UNL     1      22.855  49.260  49.636  1.00  0.00     0.138 C 
BRANCH  22  23
HETATM   23  C   UNL     1      21.835  49.519  48.481  1.00  0.00    -0.004 C 
HETATM   24  C   UNL     1      21.518  48.210  47.718  1.00  0.00     0.021 C 
HETATM   25  C   UNL     1      22.485  50.486  47.460  1.00  0.00     0.021 C 
BRANCH  23  26
HETATM   26  C   UNL     1      20.528  50.073  49.083  1.00  0.00    -0.046 A 
HETATM   27  C   UNL     1      20.216  51.439  48.958  1.00  0.00     0.027 A 
HETATM   28  C   UNL     1      19.045  51.929  49.518  1.00  0.00     0.116 A 
HETATM   29  N   UNL     1      18.158  51.170  50.189  1.00  0.00    -0.273 NA
HETATM   30  C   UNL     1      18.462  49.862  50.305  1.00  0.00     0.116 A 
HETATM   31  C   UNL     1      19.608  49.279  49.778  1.00  0.00     0.027 A 
ENDBRANCH  23  26
ENDBRANCH  22  23
ENDBRANCH   1  22
TORSDOF 6
ENDMDL
MODEL 6
REMARK VINA RESULT:      -8.6      1.641      2.184
REMARK  6 active torsions:
REMARK  status: ('A' for Active; 'I' for Inactive)
REMARK    1  A    between atoms: C_2  and  C_3 
REMARK    2  A    between atoms: C_2  and  C_9 
REMARK    3  A    between atoms: C_9  and  N_10 
REMARK       I    between atoms: N_10  and  C_11 
REMARK       I    between atoms: C_11  and  N_12 
REMARK    4  A    between atoms: N_12  and  C_13 
REMARK    5  A    between atoms: C_15  and  N_16 
REMARK       I    between atoms: N_16  and  C_17 
REMARK    6  A    between atoms: C_17  and  C_18 
ROOT
HETATM    1  N   UNL     1      24.951  45.465  51.460  1.00  0.00    -0.342 N 
HETATM    2  C   UNL     1      25.021  46.803  51.133  1.00  0.00     0.320 C 
HETATM    3  N   UNL     1      24.310  47.051  49.979  1.00  0.00    -0.309 N 
HETATM    4  O   UNL     1      25.694  47.606  51.764  1.00  0.00    -0.247 OA
HETATM    5  H   UNL     1      24.153  44.939  51.136  1.00  0.00     0.164 HD
HETATM    6  H   UNL     1      24.133  46.233  49.414  1.00  0.00     0.170 HD
ENDROOT
BRANCH   3   7
HETATM    7  C   UNL     1      24.186  48.293  49.326  1.00  0.00     0.038 A 
HETATM    8  C   UNL     1      22.909  48.873  49.293  1.00  0.00     0.059 A 
HETATM    9  C   UNL     1      22.682  50.076  48.621  1.00  0.00     0.037 A 
HETATM   10  C   UNL     1      23.768  50.729  48.024  1.00  0.00     0.029 A 
HETATM   11  C   UNL     1      25.048  50.173  48.079  1.00  0.00     0.004 A 
HETATM   12  C   UNL     1      25.254  48.952  48.721  1.00  0.00     0.029 A 
BRANCH   9  13
HETATM   13  N   UNL     1      21.408  50.669  48.467  1.00  0.00    -0.323 N 
HETATM   14  C   UNL     1      20.567  51.130  49.467  1.00  0.00     0.258 C 
HETATM   15  O   UNL     1      20.844  51.179  50.660  1.00  0.00    -0.267 OA
HETATM   16  H   UNL     1      21.067  50.712  47.520  1.00  0.00     0.169 HD
BRANCH  14  17
HETATM   17  C   UNL     1      19.250  51.571  49.012  1.00  0.00     0.056 A 
HETATM   18  C   UNL     1      18.217  52.129  49.739  1.00  0.00     0.158 A 
HETATM   19  O   UNL     1      17.156  52.417  48.941  1.00  0.00    -0.334 OA
HETATM   20  C   UNL     1      17.495  52.049  47.682  1.00  0.00     0.142 A 
HETATM   21  C   UNL     1      18.764  51.523  47.667  1.00  0.00     0.043 A 
ENDBRANCH  14  17
ENDBRANCH   9  13
ENDBRANCH   3   7
BRANCH   1  22
HETATM   22  C   UNL     1      25.833  44.859  52.444  1.00  0.00     0.138 C 
BRANCH  22  23
HETATM   23  C   UNL     1      26.941  43.967  51.801  1.00  0.00    -0.004 C 
HETATM   24  C   UNL     1      27.477  44.604  50.496  1.00  0.00     0.021 C 
HETATM   25  C   UNL     1      26.312  42.607  51.409  1.00  0.00     0.021 C 
BRANCH  23  26
HETATM   26  C   UNL     1      28.108  43.821  52.798  1.00  0.00    -0.046 A 
HETATM   27  C   UNL     1      29.191  42.975  52.501  1.00  0.00     0.027 A 
HETATM   28  C   UNL     1      30.227  42.838  53.414  1.00  0.00     0.116 A 
HETATM   29  N   UNL     1      30.273  43.479  54.598  1.00  0.00    -0.273 NA
HETATM   30  C   UNL     1      29.234  44.289  54.877  1.00  0.00     0.116 A 
HETATM   31  C   UNL     1      28.153  44.491  54.028  1.00  0.00     0.027 A 
ENDBRANCH  23  26
ENDBRANCH  22  23
ENDBRANCH   1  22
TORSDOF 6
ENDMDL
MODEL 7
REMARK VINA RESULT:      -8.3      1.876      2.794
REMARK  6 active torsions:
REMARK  status: ('A' for Active; 'I' for Inactive)
REMARK    1  A    between atoms: C_2  and  C_3 
REMARK    2  A    between atoms: C_2  and  C_9 
REMARK    3  A    between atoms: C_9  and  N_10 
REMARK       I    between atoms: N_10  and  C_11 
REMARK       I    between atoms: C_11  and  N_12 
REMARK    4  A    between atoms: N_12  and  C_13 
REMARK    5  A    between atoms: C_15  and  N_16 
REMARK       I    between atoms: N_16  and  C_17 
REMARK    6  A    between atoms: C_17  and  C_18 
ROOT
HETATM    1  N   UNL     1      25.458  45.779  50.507  1.00  0.00    -0.342 N 
HETATM    2  C   UNL     1      25.321  47.136  50.304  1.00  0.00     0.320 C 
HETATM    3  N   UNL     1      24.189  47.396  49.563  1.00  0.00    -0.309 N 
HETATM    4  O   UNL     1      26.152  47.951  50.679  1.00  0.00    -0.247 OA
HETATM    5  H   UNL     1      24.625  45.210  50.487  1.00  0.00     0.164 HD
HETATM    6  H   UNL     1      23.837  46.604  49.045  1.00  0.00     0.170 HD
ENDROOT
BRANCH   3   7
HETATM    7  C   UNL     1      23.747  48.662  49.131  1.00  0.00     0.038 A 
HETATM    8  C   UNL     1      22.442  49.039  49.485  1.00  0.00     0.059 A 
HETATM    9  C   UNL     1      21.902  50.253  49.055  1.00  0.00     0.037 A 
HETATM   10  C   UNL     1      22.706  51.120  48.308  1.00  0.00     0.029 A 
HETATM   11  C   UNL     1      24.016  50.766  47.977  1.00  0.00     0.004 A 
HETATM   12  C   UNL     1      24.532  49.535  48.381  1.00  0.00     0.029 A 
BRANCH   9  13
HETATM   13  N   UNL     1      20.568  50.654  49.295  1.00  0.00    -0.323 N 
HETATM   14  C   UNL     1      19.471  50.470  48.469  1.00  0.00     0.258 C 
HETATM   15  O   UNL     1      19.472  49.837  47.419  1.00  0.00    -0.267 OA
HETATM   16  H   UNL     1      20.422  51.172  50.148  1.00  0.00     0.169 HD
BRANCH  14  17
HETATM   17  C   UNL     1      18.241  51.115  48.923  1.00  0.00     0.056 A 
HETATM   18  C   UNL     1      16.933  50.685  48.799  1.00  0.00     0.158 A 
HETATM   19  O   UNL     1      16.072  51.568  49.371  1.00  0.00    -0.334 OA
HETATM   20  C   UNL     1      16.817  52.581  49.875  1.00  0.00     0.142 A 
HETATM   21  C   UNL     1      18.150  52.356  49.628  1.00  0.00     0.043 A 
ENDBRANCH  14  17
ENDBRANCH   9  13
ENDBRANCH   3   7
BRANCH   1  22
HETATM   22  C   UNL     1      26.694  45.187  50.992  1.00  0.00     0.138 C 
BRANCH  22  23
HETATM   23  C   UNL     1      26.518  44.437  52.351  1.00  0.00    -0.004 C 
HETATM   24  C   UNL     1      27.207  43.052  52.313  1.00  0.00     0.021 C 
HETATM   25  C   UNL     1      25.008  44.179  52.578  1.00  0.00     0.021 C 
BRANCH  23  26
HETATM   26  C   UNL     1      27.157  45.279  53.474  1.00  0.00    -0.046 A 
HETATM   27  C   UNL     1      28.250  44.775  54.200  1.00  0.00     0.027 A 
HETATM   28  C   UNL     1      28.806  45.535  55.220  1.00  0.00     0.116 A 
HETATM   29  N   UNL     1      28.364  46.757  55.572  1.00  0.00    -0.273 NA
HETATM   30  C   UNL     1      27.317  47.236  54.871  1.00  0.00     0.116 A 
HETATM   31  C   UNL     1      26.695  46.551  53.835  1.00  0.00     0.027 A 
ENDBRANCH  23  26
ENDBRANCH  22  23
ENDBRANCH   1  22
TORSDOF 6
ENDMDL
MODEL 8
REMARK VINA RESULT:      -8.2      3.544      4.150
REMARK  6 active torsions:
REMARK  status: ('A' for Active; 'I' for Inactive)
REMARK    1  A    between atoms: C_2  and  C_3 
REMARK    2  A    between atoms: C_2  and  C_9 
REMARK    3  A    between atoms: C_9  and  N_10 
REMARK       I    between atoms: N_10  and  C_11 
REMARK       I    between atoms: C_11  and  N_12 
REMARK    4  A    between atoms: N_12  and  C_13 
REMARK    5  A    between atoms: C_15  and  N_16 
REMARK       I    between atoms: N_16  and  C_17 
REMARK    6  A    between atoms: C_17  and  C_18 
ROOT
HETATM    1  N   UNL     1      27.082  44.168  53.298  1.00  0.00    -0.342 N 
HETATM    2  C   UNL     1      26.549  44.156  52.027  1.00  0.00     0.320 C 
HETATM    3  N   UNL     1      25.376  43.433  52.007  1.00  0.00    -0.309 N 
HETATM    4  O   UNL     1      27.111  44.663  51.066  1.00  0.00    -0.247 OA
HETATM    5  H   UNL     1      26.453  44.047  54.078  1.00  0.00     0.164 HD
HETATM    6  H   UNL     1      25.263  42.800  52.786  1.00  0.00     0.170 HD
ENDROOT
BRANCH   3   7
HETATM    7  C   UNL     1      24.573  43.175  50.879  1.00  0.00     0.038 A 
HETATM    8  C   UNL     1      23.520  44.068  50.626  1.00  0.00     0.059 A 
HETATM    9  C   UNL     1      22.640  43.860  49.562  1.00  0.00     0.037 A 
HETATM   10  C   UNL     1      22.860  42.772  48.709  1.00  0.00     0.029 A 
HETATM   11  C   UNL     1      23.924  41.896  48.936  1.00  0.00     0.004 A 
HETATM   12  C   UNL     1      24.774  42.093  50.025  1.00  0.00     0.029 A 
BRANCH   9  13
HETATM   13  N   UNL     1      21.506  44.663  49.305  1.00  0.00    -0.323 N 
HETATM   14  C   UNL     1      21.426  45.769  48.473  1.00  0.00     0.258 C 
HETATM   15  O   UNL     1      22.326  46.175  47.745  1.00  0.00    -0.267 OA
HETATM   16  H   UNL     1      20.680  44.419  49.829  1.00  0.00     0.169 HD
BRANCH  14  17
HETATM   17  C   UNL     1      20.151  46.481  48.513  1.00  0.00     0.056 A 
HETATM   18  C   UNL     1      18.917  46.091  48.027  1.00  0.00     0.158 A 
HETATM   19  O   UNL     1      17.972  47.034  48.277  1.00  0.00    -0.334 OA
HETATM   20  C   UNL     1      18.587  48.048  48.933  1.00  0.00     0.142 A 
HETATM   21  C   UNL     1      19.920  47.764  49.102  1.00  0.00     0.043 A 
ENDBRANCH  14  17
ENDBRANCH   9  13
ENDBRANCH   3   7
BRANCH   1  22
HETATM   22  C   UNL     1      28.447  44.593  53.564  1.00  0.00     0.138 C 
BRANCH  22  23
HETATM   23  C   UNL     1      29.345  43.444  54.123  1.00  0.00    -0.004 C 
HETATM   24  C   UNL     1      30.457  43.069  53.115  1.00  0.00     0.021 C 
HETATM   25  C   UNL     1      28.466  42.181  54.310  1.00  0.00     0.021 C 
BRANCH  23  26
HETATM   26  C   UNL     1      30.002  43.915  55.436  1.00  0.00    -0.046 A 
HETATM   27  C   UNL     1      30.913  43.083  56.109  1.00  0.00     0.027 A 
HETATM   28  C   UNL     1      31.486  43.511  57.298  1.00  0.00     0.116 A 
HETATM   29  N   UNL     1      31.226  44.702  57.870  1.00  0.00    -0.273 NA
HETATM   30  C   UNL     1      30.353  45.497  57.220  1.00  0.00     0.116 A 
HETATM   31  C   UNL     1      29.731  45.156  56.026  1.00  0.00     0.027 A 
ENDBRANCH  23  26
ENDBRANCH  22  23
ENDBRANCH   1  22
TORSDOF 6
ENDMDL
MODEL 9
REMARK VINA RESULT:      -8.0      2.244      2.982
REMARK  6 active torsions:
REMARK  status: ('A' for Active; 'I' for Inactive)
REMARK    1  A    between atoms: C_2  and  C_3 
REMARK    2  A    between atoms: C_2  and  C_9 
REMARK    3  A    between atoms: C_9  and  N_10 
REMARK       I    between atoms: N_10  and  C_11 
REMARK       I    between atoms: C_11  and  N_12 
REMARK    4  A    between atoms: N_12  and  C_13 
REMARK    5  A    between atoms: C_15  and  N_16 
REMARK       I    between atoms: N_16  and  C_17 
REMARK    6  A    between atoms: C_17  and  C_18 
ROOT
HETATM    1  N   UNL     1      26.462  46.232  51.241  1.00  0.00    -0.342 N 
HETATM    2  C   UNL     1      25.359  46.609  50.504  1.00  0.00     0.320 C 
HETATM    3  N   UNL     1      25.515  47.895  50.036  1.00  0.00    -0.309 N 
HETATM    4  O   UNL     1      24.371  45.900  50.376  1.00  0.00    -0.247 OA
HETATM    5  H   UNL     1      27.342  46.682  51.041  1.00  0.00     0.164 HD
HETATM    6  H   UNL     1      26.206  48.439  50.531  1.00  0.00     0.170 HD
ENDROOT
BRANCH   3   7
HETATM    7  C   UNL     1      24.579  48.627  49.278  1.00  0.00     0.038 A 
HETATM    8  C   UNL     1      23.261  48.146  49.251  1.00  0.00     0.059 A 
HETATM    9  C   UNL     1      22.280  48.776  48.483  1.00  0.00     0.037 A 
HETATM   10  C   UNL     1      22.620  49.937  47.778  1.00  0.00     0.029 A 
HETATM   11  C   UNL     1      23.922  50.439  47.823  1.00  0.00     0.004 A 
HETATM   12  C   UNL     1      24.903  49.779  48.565  1.00  0.00     0.029 A 
BRANCH   9  13
HETATM   13  N   UNL     1      20.960  48.295  48.336  1.00  0.00    -0.323 N 
HETATM   14  C   UNL     1      19.845  48.652  49.077  1.00  0.00     0.258 C 
HETATM   15  O   UNL     1      19.814  49.529  49.933  1.00  0.00    -0.267 OA
HETATM   16  H   UNL     1      20.840  47.575  47.640  1.00  0.00     0.169 HD
BRANCH  14  17
HETATM   17  C   UNL     1      18.637  47.884  48.785  1.00  0.00     0.056 A 
HETATM   18  C   UNL     1      18.515  46.564  48.393  1.00  0.00     0.158 A 
HETATM   19  O   UNL     1      17.210  46.218  48.236  1.00  0.00    -0.334 OA
HETATM   20  C   UNL     1      16.471  47.315  48.528  1.00  0.00     0.142 A 
HETATM   21  C   UNL     1      17.292  48.363  48.868  1.00  0.00     0.043 A 
ENDBRANCH  14  17
ENDBRANCH   9  13
ENDBRANCH   3   7
BRANCH   1  22
HETATM   22  C   UNL     1      26.459  45.057  52.098  1.00  0.00     0.138 C 
BRANCH  22  23
HETATM   23  C   UNL     1      26.368  45.411  53.616  1.00  0.00    -0.004 C 
HETATM   24  C   UNL     1      25.221  44.628  54.300  1.00  0.00     0.021 C 
HETATM   25  C   UNL     1      26.023  46.916  53.750  1.00  0.00     0.021 C 
BRANCH  23  26
HETATM   26  C   UNL     1      27.700  45.039  54.298  1.00  0.00    -0.046 A 
HETATM   27  C   UNL     1      28.267  45.898  55.256  1.00  0.00     0.027 A 
HETATM   28  C   UNL     1      29.475  45.560  55.850  1.00  0.00     0.116 A 
HETATM   29  N   UNL     1      30.162  44.436  55.570  1.00  0.00    -0.273 NA
HETATM   30  C   UNL     1      29.613  43.617  54.652  1.00  0.00     0.116 A 
HETATM   31  C   UNL     1      28.409  43.868  54.005  1.00  0.00     0.027 A 
ENDBRANCH  23  26
ENDBRANCH  22  23
ENDBRANCH   1  22
TORSDOF 6
ENDMDL
MODEL 10
REMARK VINA RESULT:      -7.9      2.914     10.871
REMARK  6 active torsions:
REMARK  status: ('A' for Active; 'I' for Inactive)
REMARK    1  A    between atoms: C_2  and  C_3 
REMARK    2  A    between atoms: C_2  and  C_9 
REMARK    3  A    between atoms: C_9  and  N_10 
REMARK       I    between atoms: N_10  and  C_11 
REMARK       I    between atoms: C_11  and  N_12 
REMARK    4  A    between atoms: N_12  and  C_13 
REMARK    5  A    between atoms: C_15  and  N_16 
REMARK       I    between atoms: N_16  and  C_17 
REMARK    6  A    between atoms: C_17  and  C_18 
ROOT
HETATM    1  N   UNL     1      21.319  48.511  49.490  1.00  0.00    -0.342 N 
HETATM    2  C   UNL     1      22.529  48.117  48.962  1.00  0.00     0.320 C 
HETATM    3  N   UNL     1      23.455  47.943  49.967  1.00  0.00    -0.309 N 
HETATM    4  O   UNL     1      22.731  48.023  47.759  1.00  0.00    -0.247 OA
HETATM    5  H   UNL     1      21.110  48.252  50.443  1.00  0.00     0.164 HD
HETATM    6  H   UNL     1      23.222  48.406  50.834  1.00  0.00     0.170 HD
ENDROOT
BRANCH   3   7
HETATM    7  C   UNL     1      24.806  47.578  49.804  1.00  0.00     0.038 A 
HETATM    8  C   UNL     1      25.153  46.254  50.113  1.00  0.00     0.059 A 
HETATM    9  C   UNL     1      26.478  45.819  50.032  1.00  0.00     0.037 A 
HETATM   10  C   UNL     1      27.454  46.716  49.582  1.00  0.00     0.029 A 
HETATM   11  C   UNL     1      27.112  48.027  49.244  1.00  0.00     0.004 A 
HETATM   12  C   UNL     1      25.791  48.459  49.364  1.00  0.00     0.029 A 
BRANCH   9  13
HETATM   13  N   UNL     1      26.912  44.530  50.416  1.00  0.00    -0.323 N 
HETATM   14  C   UNL     1      27.295  44.111  51.680  1.00  0.00     0.258 C 
HETATM   15  O   UNL     1      27.227  44.786  52.702  1.00  0.00    -0.267 OA
HETATM   16  H   UNL     1      26.991  43.863  49.665  1.00  0.00     0.169 HD
BRANCH  14  17
HETATM   17  C   UNL     1      27.828  42.752  51.745  1.00  0.00     0.056 A 
HETATM   18  C   UNL     1      27.766  41.744  50.801  1.00  0.00     0.158 A 
HETATM   19  O   UNL     1      28.400  40.624  51.238  1.00  0.00    -0.334 OA
HETATM   20  C   UNL     1      28.884  40.899  52.474  1.00  0.00     0.142 A 
HETATM   21  C   UNL     1      28.562  42.185  52.834  1.00  0.00     0.043 A 
ENDBRANCH  14  17
ENDBRANCH   9  13
ENDBRANCH   3   7
BRANCH   1  22
HETATM   22  C   UNL     1      20.250  49.050  48.665  1.00  0.00     0.138 C 
BRANCH  22  23
HETATM   23  C   UNL     1      19.334  50.054  49.434  1.00  0.00    -0.004 C 
HETATM   24  C   UNL     1      20.151  51.257  49.963  1.00  0.00     0.021 C 
HETATM   25  C   UNL     1      18.747  49.333  50.674  1.00  0.00     0.021 C 
BRANCH  23  26
HETATM   26  C   UNL     1      18.246  50.576  48.474  1.00  0.00    -0.046 A 
HETATM   27  C   UNL     1      16.962  50.002  48.483  1.00  0.00     0.027 A 
HETATM   28  C   UNL     1      15.996  50.469  47.603  1.00  0.00     0.116 A 
HETATM   29  N   UNL     1      16.203  51.462  46.718  1.00  0.00    -0.273 NA
HETATM   30  C   UNL     1      17.435  52.009  46.715  1.00  0.00     0.116 A 
HETATM   31  C   UNL     1      18.465  51.611  47.557  1.00  0.00     0.027 A 
ENDBRANCH  23  26
ENDBRANCH  22  23
ENDBRANCH   1  22
TORSDOF 6
ENDMDL
