MODEL 1
REMARK VINA RESULT:      -7.5      0.000      0.000
REMARK  5 active torsions:
REMARK  status: ('A' for Active; 'I' for Inactive)
REMARK    1  A    between atoms: C_2  and  O_3 
REMARK    2  A    between atoms: C_4  and  C_5 
REMARK    3  A    between atoms: C_5  and  O_6 
REMARK    4  A    between atoms: C_9  and  C_10 
REMARK    5  A    between atoms: C_22  and  O_23 
ROOT
HETATM    1  C   UNL     1      26.389  48.779  40.185  1.00  0.00     0.047 C 
HETATM    2  C   UNL     1      27.602  49.584  40.696  1.00  0.00     0.073 C 
HETATM    3  C   UNL     1      28.991  48.864  40.458  1.00  0.00     0.133 C 
HETATM    4  C   UNL     1      30.143  49.640  39.755  1.00  0.00     0.074 C 
HETATM    5  C   UNL     1      29.664  50.807  38.984  1.00  0.00     0.030 A 
HETATM    6  C   UNL     1      28.446  51.410  39.181  1.00  0.00     0.042 A 
HETATM    7  N   UNL     1      28.352  52.425  38.271  1.00  0.00    -0.279 N 
HETATM    8  H   UNL     1      27.594  53.085  38.130  1.00  0.00     0.189 HD
HETATM    9  N   UNL     1      29.442  52.518  37.480  1.00  0.00    -0.149 NA
HETATM   10  C   UNL     1      30.208  51.530  37.924  1.00  0.00     0.190 A 
HETATM   11  C   UNL     1      27.443  51.056  40.199  1.00  0.00     0.097 C 
ENDROOT
BRANCH   4  12
HETATM   12  C   UNL     1      31.179  50.164  40.747  1.00  0.00    -0.047 A 
HETATM   13  C   UNL     1      32.565  50.050  40.548  1.00  0.00     0.027 A 
HETATM   14  C   UNL     1      33.461  50.587  41.475  1.00  0.00     0.011 A 
HETATM   15 BR   UNL     1      35.321  50.410  41.186  1.00  0.00    -0.051 Br
HETATM   16  C   UNL     1      33.000  51.252  42.608  1.00  0.00     0.019 A 
HETATM   17  C   UNL     1      31.630  51.378  42.819  1.00  0.00     0.002 A 
HETATM   18  C   UNL     1      30.728  50.840  41.897  1.00  0.00     0.008 A 
ENDBRANCH   4  12
BRANCH   3  19
HETATM   19  C   UNL     1      28.833  47.574  39.672  1.00  0.00     0.266 C 
HETATM   20  O   UNL     1      28.748  47.504  38.453  1.00  0.00    -0.265 OA
BRANCH  19  21
HETATM   21  O   UNL     1      28.812  46.504  40.515  1.00  0.00    -0.326 OA
HETATM   22  C   UNL     1      27.991  45.422  40.074  1.00  0.00     0.213 C 
ENDBRANCH  19  21
ENDBRANCH   3  19
BRANCH   2  23
HETATM   23  O   UNL     1      27.396  49.616  42.133  1.00  0.00    -0.389 OA
HETATM   24  H   UNL     1      27.966  50.310  42.511  1.00  0.00     0.210 HD
ENDBRANCH   2  23
BRANCH  10  25
HETATM   25  O   UNL     1      31.369  51.381  37.295  1.00  0.00    -0.343 OA
HETATM   26  H   UNL     1      31.524  50.421  37.301  1.00  0.00     0.219 HD
ENDBRANCH  10  25
TORSDOF 5
ENDMDL
MODEL 2
REMARK VINA RESULT:      -7.4      1.416      1.898
REMARK  5 active torsions:
REMARK  status: ('A' for Active; 'I' for Inactive)
REMARK    1  A    between atoms: C_2  and  O_3 
REMARK    2  A    between atoms: C_4  and  C_5 
REMARK    3  A    between atoms: C_5  and  O_6 
REMARK    4  A    between atoms: C_9  and  C_10 
REMARK    5  A    between atoms: C_22  and  O_23 
ROOT
HETATM    1  C   UNL     1      27.396  47.552  40.842  1.00  0.00     0.047 C 
HETATM    2  C   UNL     1      28.441  48.657  41.101  1.00  0.00     0.073 C 
HETATM    3  C   UNL     1      29.832  48.399  40.390  1.00  0.00     0.133 C 
HETATM    4  C   UNL     1      30.458  49.518  39.508  1.00  0.00     0.074 C 
HETATM    5  C   UNL     1      29.469  50.524  39.067  1.00  0.00     0.030 A 
HETATM    6  C   UNL     1      28.254  50.724  39.676  1.00  0.00     0.042 A 
HETATM    7  N   UNL     1      27.616  51.709  38.975  1.00  0.00    -0.279 N 
HETATM    8  H   UNL     1      26.702  52.118  39.141  1.00  0.00     0.189 HD
HETATM    9  N   UNL     1      28.343  52.162  37.932  1.00  0.00    -0.149 NA
HETATM   10  C   UNL     1      29.446  51.428  38.006  1.00  0.00     0.190 A 
HETATM   11  C   UNL     1      27.745  50.037  40.873  1.00  0.00     0.097 C 
ENDROOT
BRANCH   4  12
HETATM   12  C   UNL     1      31.565  50.278  40.235  1.00  0.00    -0.047 A 
HETATM   13  C   UNL     1      31.526  50.572  41.608  1.00  0.00     0.027 A 
HETATM   14  C   UNL     1      32.591  51.236  42.221  1.00  0.00     0.011 A 
HETATM   15 BR   UNL     1      32.508  51.626  44.070  1.00  0.00    -0.051 Br
HETATM   16  C   UNL     1      33.713  51.611  41.487  1.00  0.00     0.019 A 
HETATM   17  C   UNL     1      33.770  51.325  40.127  1.00  0.00     0.002 A 
HETATM   18  C   UNL     1      32.706  50.664  39.506  1.00  0.00     0.008 A 
ENDBRANCH   4  12
BRANCH   3  19
HETATM   19  C   UNL     1      29.796  47.161  39.511  1.00  0.00     0.266 C 
HETATM   20  O   UNL     1      30.101  46.034  39.877  1.00  0.00    -0.265 OA
BRANCH  19  21
HETATM   21  O   UNL     1      29.365  47.481  38.258  1.00  0.00    -0.326 OA
HETATM   22  C   UNL     1      28.633  46.445  37.603  1.00  0.00     0.213 C 
ENDBRANCH  19  21
ENDBRANCH   3  19
BRANCH   2  23
HETATM   23  O   UNL     1      28.684  48.556  42.529  1.00  0.00    -0.389 OA
HETATM   24  H   UNL     1      28.621  49.447  42.917  1.00  0.00     0.210 HD
ENDBRANCH   2  23
BRANCH  10  25
HETATM   25  O   UNL     1      30.354  51.664  37.066  1.00  0.00    -0.343 OA
HETATM   26  H   UNL     1      29.869  51.555  36.230  1.00  0.00     0.219 HD
ENDBRANCH  10  25
TORSDOF 5
ENDMDL
MODEL 3
REMARK VINA RESULT:      -7.2     11.265     12.824
REMARK  5 active torsions:
REMARK  status: ('A' for Active; 'I' for Inactive)
REMARK    1  A    between atoms: C_2  and  O_3 
REMARK    2  A    between atoms: C_4  and  C_5 
REMARK    3  A    between atoms: C_5  and  O_6 
REMARK    4  A    between atoms: C_9  and  C_10 
REMARK    5  A    between atoms: C_22  and  O_23 
ROOT
HETATM    1  C   UNL     1      25.846  42.303  50.518  1.00  0.00     0.047 C 
HETATM    2  C   UNL     1      26.294  43.748  50.221  1.00  0.00     0.073 C 
HETATM    3  C   UNL     1      25.092  44.755  49.999  1.00  0.00     0.133 C 
HETATM    4  C   UNL     1      25.050  46.084  50.808  1.00  0.00     0.074 C 
HETATM    5  C   UNL     1      25.896  46.047  52.020  1.00  0.00     0.030 A 
HETATM    6  C   UNL     1      26.921  45.154  52.214  1.00  0.00     0.042 A 
HETATM    7  N   UNL     1      27.444  45.411  53.450  1.00  0.00    -0.279 N 
HETATM    8  H   UNL     1      28.216  44.951  53.922  1.00  0.00     0.189 HD
HETATM    9  N   UNL     1      26.813  46.422  54.083  1.00  0.00    -0.149 NA
HETATM   10  C   UNL     1      25.884  46.779  53.206  1.00  0.00     0.190 A 
HETATM   11  C   UNL     1      27.392  44.134  51.263  1.00  0.00     0.097 C 
ENDROOT
BRANCH   4  12
HETATM   12  C   UNL     1      25.518  47.281  49.982  1.00  0.00    -0.047 A 
HETATM   13  C   UNL     1      24.640  48.236  49.442  1.00  0.00     0.027 A 
HETATM   14  C   UNL     1      25.135  49.331  48.730  1.00  0.00     0.011 A 
HETATM   15 BR   UNL     1      23.930  50.595  48.006  1.00  0.00    -0.051 Br
HETATM   16  C   UNL     1      26.505  49.502  48.549  1.00  0.00     0.019 A 
HETATM   17  C   UNL     1      27.389  48.567  49.080  1.00  0.00     0.002 A 
HETATM   18  C   UNL     1      26.900  47.468  49.791  1.00  0.00     0.008 A 
ENDBRANCH   4  12
BRANCH   3  19
HETATM   19  C   UNL     1      23.747  44.092  50.238  1.00  0.00     0.266 C 
HETATM   20  O   UNL     1      23.205  43.984  51.330  1.00  0.00    -0.265 OA
BRANCH  19  21
HETATM   21  O   UNL     1      23.223  43.645  49.062  1.00  0.00    -0.326 OA
HETATM   22  C   UNL     1      23.429  44.521  47.954  1.00  0.00     0.213 C 
ENDBRANCH  19  21
ENDBRANCH   3  19
BRANCH   2  23
HETATM   23  O   UNL     1      26.972  43.629  48.943  1.00  0.00    -0.389 OA
HETATM   24  H   UNL     1      27.725  43.021  49.048  1.00  0.00     0.210 HD
ENDBRANCH   2  23
BRANCH  10  25
HETATM   25  O   UNL     1      25.088  47.772  53.588  1.00  0.00    -0.343 OA
HETATM   26  H   UNL     1      24.528  47.943  52.813  1.00  0.00     0.219 HD
ENDBRANCH  10  25
TORSDOF 5
ENDMDL
MODEL 4
REMARK VINA RESULT:      -7.2      2.989      5.357
REMARK  5 active torsions:
REMARK  status: ('A' for Active; 'I' for Inactive)
REMARK    1  A    between atoms: C_2  and  O_3 
REMARK    2  A    between atoms: C_4  and  C_5 
REMARK    3  A    between atoms: C_5  and  O_6 
REMARK    4  A    between atoms: C_9  and  C_10 
REMARK    5  A    between atoms: C_22  and  O_23 
ROOT
HETATM    1  C   UNL     1      33.557  51.629  40.948  1.00  0.00     0.047 C 
HETATM    2  C   UNL     1      32.632  50.509  40.429  1.00  0.00     0.073 C 
HETATM    3  C   UNL     1      31.378  50.236  41.356  1.00  0.00     0.133 C 
HETATM    4  C   UNL     1      29.954  50.219  40.729  1.00  0.00     0.074 C 
HETATM    5  C   UNL     1      29.892  50.908  39.422  1.00  0.00     0.030 A 
HETATM    6  C   UNL     1      30.989  51.161  38.636  1.00  0.00     0.042 A 
HETATM    7  N   UNL     1      30.541  51.830  37.532  1.00  0.00    -0.279 N 
HETATM    8  H   UNL     1      31.071  52.172  36.736  1.00  0.00     0.189 HD
HETATM    9  N   UNL     1      29.207  52.036  37.553  1.00  0.00    -0.149 NA
HETATM   10  C   UNL     1      28.845  51.481  38.702  1.00  0.00     0.190 A 
HETATM   11  C   UNL     1      32.380  50.763  38.908  1.00  0.00     0.097 C 
ENDROOT
BRANCH   4  12
HETATM   12  C   UNL     1      29.436  48.800  40.503  1.00  0.00    -0.047 A 
HETATM   13  C   UNL     1      28.112  48.411  40.765  1.00  0.00     0.027 A 
HETATM   14  C   UNL     1      27.691  47.106  40.498  1.00  0.00     0.011 A 
HETATM   15 BR   UNL     1      25.905  46.608  40.869  1.00  0.00    -0.051 Br
HETATM   16  C   UNL     1      28.570  46.170  39.961  1.00  0.00     0.019 A 
HETATM   17  C   UNL     1      29.885  46.540  39.692  1.00  0.00     0.002 A 
HETATM   18  C   UNL     1      30.314  47.842  39.960  1.00  0.00     0.008 A 
ENDBRANCH   4  12
BRANCH   3  19
HETATM   19  C   UNL     1      31.302  51.222  42.509  1.00  0.00     0.266 C 
HETATM   20  O   UNL     1      30.765  52.321  42.456  1.00  0.00    -0.265 OA
BRANCH  19  21
HETATM   21  O   UNL     1      31.905  50.706  43.616  1.00  0.00    -0.326 OA
HETATM   22  C   UNL     1      32.566  51.672  44.433  1.00  0.00     0.213 C 
ENDBRANCH  19  21
ENDBRANCH   3  19
BRANCH   2  23
HETATM   23  O   UNL     1      33.468  49.325  40.509  1.00  0.00    -0.389 OA
HETATM   24  H   UNL     1      33.594  49.098  41.448  1.00  0.00     0.210 HD
ENDBRANCH   2  23
BRANCH  10  25
HETATM   25  O   UNL     1      27.551  51.554  38.989  1.00  0.00    -0.343 OA
HETATM   26  H   UNL     1      27.325  52.489  38.848  1.00  0.00     0.219 HD
ENDBRANCH  10  25
TORSDOF 5
ENDMDL
MODEL 5
REMARK VINA RESULT:      -7.1      2.896      5.441
REMARK  5 active torsions:
REMARK  status: ('A' for Active; 'I' for Inactive)
REMARK    1  A    between atoms: C_2  and  O_3 
REMARK    2  A    between atoms: C_4  and  C_5 
REMARK    3  A    between atoms: C_5  and  O_6 
REMARK    4  A    between atoms: C_9  and  C_10 
REMARK    5  A    between atoms: C_22  and  O_23 
ROOT
HETATM    1  C   UNL     1      32.828  52.154  40.051  1.00  0.00     0.047 C 
HETATM    2  C   UNL     1      31.851  51.066  39.558  1.00  0.00     0.073 C 
HETATM    3  C   UNL     1      31.714  49.837  40.545  1.00  0.00     0.133 C 
HETATM    4  C   UNL     1      30.297  49.375  40.997  1.00  0.00     0.074 C 
HETATM    5  C   UNL     1      29.266  50.418  40.812  1.00  0.00     0.030 A 
HETATM    6  C   UNL     1      29.404  51.494  39.970  1.00  0.00     0.042 A 
HETATM    7  N   UNL     1      28.267  52.241  40.090  1.00  0.00    -0.279 N 
HETATM    8  H   UNL     1      28.019  53.103  39.614  1.00  0.00     0.189 HD
HETATM    9  N   UNL     1      27.389  51.717  40.971  1.00  0.00    -0.149 NA
HETATM   10  C   UNL     1      28.018  50.629  41.395  1.00  0.00     0.190 A 
HETATM   11  C   UNL     1      30.544  51.777  39.082  1.00  0.00     0.097 C 
ENDROOT
BRANCH   4  12
HETATM   12  C   UNL     1      29.819  48.142  40.232  1.00  0.00    -0.047 A 
HETATM   13  C   UNL     1      28.877  47.235  40.745  1.00  0.00     0.027 A 
HETATM   14  C   UNL     1      28.450  46.148  39.978  1.00  0.00     0.011 A 
HETATM   15 BR   UNL     1      27.188  44.936  40.697  1.00  0.00    -0.051 Br
HETATM   16  C   UNL     1      28.941  45.948  38.691  1.00  0.00     0.019 A 
HETATM   17  C   UNL     1      29.872  46.840  38.166  1.00  0.00     0.002 A 
HETATM   18  C   UNL     1      30.306  47.927  38.930  1.00  0.00     0.008 A 
ENDBRANCH   4  12
BRANCH   3  19
HETATM   19  C   UNL     1      32.498  50.051  41.828  1.00  0.00     0.266 C 
HETATM   20  O   UNL     1      33.701  49.860  41.953  1.00  0.00    -0.265 OA
BRANCH  19  21
HETATM   21  O   UNL     1      31.676  50.499  42.818  1.00  0.00    -0.326 OA
HETATM   22  C   UNL     1      32.311  51.349  43.773  1.00  0.00     0.213 C 
ENDBRANCH  19  21
ENDBRANCH   3  19
BRANCH   2  23
HETATM   23  O   UNL     1      32.497  50.560  38.359  1.00  0.00    -0.389 OA
HETATM   24  H   UNL     1      32.898  51.310  37.884  1.00  0.00     0.210 HD
ENDBRANCH   2  23
BRANCH  10  25
HETATM   25  O   UNL     1      27.368  49.911  42.305  1.00  0.00    -0.343 OA
HETATM   26  H   UNL     1      28.012  49.792  43.023  1.00  0.00     0.219 HD
ENDBRANCH  10  25
TORSDOF 5
ENDMDL
MODEL 6
REMARK VINA RESULT:      -7.0      2.724      4.515
REMARK  5 active torsions:
REMARK  status: ('A' for Active; 'I' for Inactive)
REMARK    1  A    between atoms: C_2  and  O_3 
REMARK    2  A    between atoms: C_4  and  C_5 
REMARK    3  A    between atoms: C_5  and  O_6 
REMARK    4  A    between atoms: C_9  and  C_10 
REMARK    5  A    between atoms: C_22  and  O_23 
ROOT
HETATM    1  C   UNL     1      30.210  51.994  37.610  1.00  0.00     0.047 C 
HETATM    2  C   UNL     1      31.246  51.639  38.695  1.00  0.00     0.073 C 
HETATM    3  C   UNL     1      30.892  52.213  40.128  1.00  0.00     0.133 C 
HETATM    4  C   UNL     1      30.883  51.254  41.353  1.00  0.00     0.074 C 
HETATM    5  C   UNL     1      30.761  49.831  40.971  1.00  0.00     0.030 A 
HETATM    6  C   UNL     1      31.048  49.346  39.718  1.00  0.00     0.042 A 
HETATM    7  N   UNL     1      30.792  48.004  39.743  1.00  0.00    -0.279 N 
HETATM    8  H   UNL     1      30.895  47.323  38.998  1.00  0.00     0.189 HD
HETATM    9  N   UNL     1      30.345  47.581  40.944  1.00  0.00    -0.149 NA
HETATM   10  C   UNL     1      30.328  48.699  41.658  1.00  0.00     0.190 A 
HETATM   11  C   UNL     1      31.564  50.114  38.573  1.00  0.00     0.097 C 
ENDROOT
BRANCH   4  12
HETATM   12  C   UNL     1      32.151  51.376  42.195  1.00  0.00    -0.047 A 
HETATM   13  C   UNL     1      33.440  51.146  41.686  1.00  0.00     0.027 A 
HETATM   14  C   UNL     1      34.564  51.315  42.499  1.00  0.00     0.011 A 
HETATM   15 BR   UNL     1      36.286  50.989  41.790  1.00  0.00    -0.051 Br
HETATM   16  C   UNL     1      34.429  51.721  43.824  1.00  0.00     0.019 A 
HETATM   17  C   UNL     1      33.160  51.957  44.343  1.00  0.00     0.002 A 
HETATM   18  C   UNL     1      32.032  51.787  43.536  1.00  0.00     0.008 A 
ENDBRANCH   4  12
BRANCH   3  19
HETATM   19  C   UNL     1      29.539  52.903  40.142  1.00  0.00     0.266 C 
HETATM   20  O   UNL     1      29.369  54.111  40.046  1.00  0.00    -0.265 OA
BRANCH  19  21
HETATM   21  O   UNL     1      28.540  51.984  40.263  1.00  0.00    -0.326 OA
HETATM   22  C   UNL     1      27.576  52.291  41.271  1.00  0.00     0.213 C 
ENDBRANCH  19  21
ENDBRANCH   3  19
BRANCH   2  23
HETATM   23  O   UNL     1      32.440  52.338  38.256  1.00  0.00    -0.389 OA
HETATM   24  H   UNL     1      32.266  52.727  37.380  1.00  0.00     0.210 HD
ENDBRANCH   2  23
BRANCH  10  25
HETATM   25  O   UNL     1      29.904  48.571  42.911  1.00  0.00    -0.343 OA
HETATM   26  H   UNL     1      29.048  48.118  42.830  1.00  0.00     0.219 HD
ENDBRANCH  10  25
TORSDOF 5
ENDMDL
MODEL 7
REMARK VINA RESULT:      -7.0      3.184      5.189
REMARK  5 active torsions:
REMARK  status: ('A' for Active; 'I' for Inactive)
REMARK    1  A    between atoms: C_2  and  O_3 
REMARK    2  A    between atoms: C_4  and  C_5 
REMARK    3  A    between atoms: C_5  and  O_6 
REMARK    4  A    between atoms: C_9  and  C_10 
REMARK    5  A    between atoms: C_22  and  O_23 
ROOT
HETATM    1  C   UNL     1      29.248  52.989  40.013  1.00  0.00     0.047 C 
HETATM    2  C   UNL     1      28.891  51.540  40.406  1.00  0.00     0.073 C 
HETATM    3  C   UNL     1      29.199  50.478  39.274  1.00  0.00     0.133 C 
HETATM    4  C   UNL     1      30.043  49.217  39.619  1.00  0.00     0.074 C 
HETATM    5  C   UNL     1      30.843  49.379  40.852  1.00  0.00     0.030 A 
HETATM    6  C   UNL     1      30.582  50.320  41.818  1.00  0.00     0.042 A 
HETATM    7  N   UNL     1      31.543  50.180  42.779  1.00  0.00    -0.279 N 
HETATM    8  H   UNL     1      31.662  50.702  43.641  1.00  0.00     0.189 HD
HETATM    9  N   UNL     1      32.427  49.200  42.493  1.00  0.00    -0.149 NA
HETATM   10  C   UNL     1      31.988  48.743  41.328  1.00  0.00     0.190 A 
HETATM   11  C   UNL     1      29.465  51.278  41.836  1.00  0.00     0.097 C 
ENDROOT
BRANCH   4  12
HETATM   12  C   UNL     1      29.175  47.975  39.819  1.00  0.00    -0.047 A 
HETATM   13  C   UNL     1      29.457  46.734  39.224  1.00  0.00     0.027 A 
HETATM   14  C   UNL     1      28.646  45.626  39.479  1.00  0.00     0.011 A 
HETATM   15 BR   UNL     1      29.043  43.969  38.659  1.00  0.00    -0.051 Br
HETATM   16  C   UNL     1      27.550  45.727  40.332  1.00  0.00     0.019 A 
HETATM   17  C   UNL     1      27.259  46.949  40.932  1.00  0.00     0.002 A 
HETATM   18  C   UNL     1      28.064  48.062  40.678  1.00  0.00     0.008 A 
ENDBRANCH   4  12
BRANCH   3  19
HETATM   19  C   UNL     1      29.886  51.111  38.077  1.00  0.00     0.266 C 
HETATM   20  O   UNL     1      29.386  51.959  37.350  1.00  0.00    -0.265 OA
BRANCH  19  21
HETATM   21  O   UNL     1      31.145  50.609  37.933  1.00  0.00    -0.326 OA
HETATM   22  C   UNL     1      32.188  51.544  38.205  1.00  0.00     0.213 C 
ENDBRANCH  19  21
ENDBRANCH   3  19
BRANCH   2  23
HETATM   23  O   UNL     1      27.447  51.582  40.550  1.00  0.00    -0.389 OA
HETATM   24  H   UNL     1      27.063  50.857  40.025  1.00  0.00     0.210 HD
ENDBRANCH   2  23
BRANCH  10  25
HETATM   25  O   UNL     1      32.700  47.756  40.796  1.00  0.00    -0.343 OA
HETATM   26  H   UNL     1      33.023  47.252  41.562  1.00  0.00     0.219 HD
ENDBRANCH  10  25
TORSDOF 5
ENDMDL
MODEL 8
REMARK VINA RESULT:      -7.0     11.076     12.777
REMARK  5 active torsions:
REMARK  status: ('A' for Active; 'I' for Inactive)
REMARK    1  A    between atoms: C_2  and  O_3 
REMARK    2  A    between atoms: C_4  and  C_5 
REMARK    3  A    between atoms: C_5  and  O_6 
REMARK    4  A    between atoms: C_9  and  C_10 
REMARK    5  A    between atoms: C_22  and  O_23 
ROOT
HETATM    1  C   UNL     1      17.769  46.473  48.260  1.00  0.00     0.047 C 
HETATM    2  C   UNL     1      19.091  47.104  48.742  1.00  0.00     0.073 C 
HETATM    3  C   UNL     1      19.950  47.751  47.580  1.00  0.00     0.133 C 
HETATM    4  C   UNL     1      20.453  49.216  47.729  1.00  0.00     0.074 C 
HETATM    5  C   UNL     1      19.692  49.988  48.735  1.00  0.00     0.030 A 
HETATM    6  C   UNL     1      18.931  49.417  49.724  1.00  0.00     0.042 A 
HETATM    7  N   UNL     1      18.365  50.440  50.431  1.00  0.00    -0.279 N 
HETATM    8  H   UNL     1      17.747  50.393  51.235  1.00  0.00     0.189 HD
HETATM    9  N   UNL     1      18.709  51.655  49.955  1.00  0.00    -0.149 NA
HETATM   10  C   UNL     1      19.498  51.354  48.932  1.00  0.00     0.190 A 
HETATM   11  C   UNL     1      18.775  47.979  49.997  1.00  0.00     0.097 C 
ENDROOT
BRANCH   4  12
HETATM   12  C   UNL     1      21.923  49.286  48.141  1.00  0.00    -0.047 A 
HETATM   13  C   UNL     1      22.536  48.333  48.972  1.00  0.00     0.027 A 
HETATM   14  C   UNL     1      23.895  48.432  49.279  1.00  0.00     0.011 A 
HETATM   15 BR   UNL     1      24.693  47.141  50.407  1.00  0.00    -0.051 Br
HETATM   16  C   UNL     1      24.669  49.468  48.763  1.00  0.00     0.019 A 
HETATM   17  C   UNL     1      24.077  50.418  47.935  1.00  0.00     0.002 A 
HETATM   18  C   UNL     1      22.717  50.327  47.627  1.00  0.00     0.008 A 
ENDBRANCH   4  12
BRANCH   3  19
HETATM   19  C   UNL     1      19.224  47.705  46.247  1.00  0.00     0.266 C 
HETATM   20  O   UNL     1      18.452  48.564  45.841  1.00  0.00    -0.265 OA
BRANCH  19  21
HETATM   21  O   UNL     1      19.562  46.578  45.561  1.00  0.00    -0.326 OA
HETATM   22  C   UNL     1      20.932  46.199  45.687  1.00  0.00     0.213 C 
ENDBRANCH  19  21
ENDBRANCH   3  19
BRANCH   2  23
HETATM   23  O   UNL     1      19.847  45.962  49.224  1.00  0.00    -0.389 OA
HETATM   24  H   UNL     1      20.747  46.008  48.855  1.00  0.00     0.210 HD
ENDBRANCH   2  23
BRANCH  10  25
HETATM   25  O   UNL     1      19.980  52.391  48.257  1.00  0.00    -0.343 OA
HETATM   26  H   UNL     1      20.058  52.068  47.343  1.00  0.00     0.219 HD
ENDBRANCH  10  25
TORSDOF 5
ENDMDL
MODEL 9
REMARK VINA RESULT:      -6.9      2.867      4.592
REMARK  5 active torsions:
REMARK  status: ('A' for Active; 'I' for Inactive)
REMARK    1  A    between atoms: C_2  and  O_3 
REMARK    2  A    between atoms: C_4  and  C_5 
REMARK    3  A    between atoms: C_5  and  O_6 
REMARK    4  A    between atoms: C_9  and  C_10 
REMARK    5  A    between atoms: C_22  and  O_23 
ROOT
HETATM    1  C   UNL     1      28.352  51.842  38.212  1.00  0.00     0.047 C 
HETATM    2  C   UNL     1      29.830  51.479  38.463  1.00  0.00     0.073 C 
HETATM    3  C   UNL     1      30.524  52.364  39.577  1.00  0.00     0.133 C 
HETATM    4  C   UNL     1      31.279  51.666  40.746  1.00  0.00     0.074 C 
HETATM    5  C   UNL     1      30.877  50.256  40.931  1.00  0.00     0.030 A 
HETATM    6  C   UNL     1      30.253  49.503  39.966  1.00  0.00     0.042 A 
HETATM    7  N   UNL     1      30.019  48.273  40.512  1.00  0.00    -0.279 N 
HETATM    8  H   UNL     1      29.580  47.461  40.088  1.00  0.00     0.189 HD
HETATM    9  N   UNL     1      30.450  48.178  41.788  1.00  0.00    -0.149 NA
HETATM   10  C   UNL     1      30.952  49.384  42.015  1.00  0.00     0.190 A 
HETATM   11  C   UNL     1      29.925  49.925  38.595  1.00  0.00     0.097 C 
ENDROOT
BRANCH   4  12
HETATM   12  C   UNL     1      32.793  51.669  40.542  1.00  0.00    -0.047 A 
HETATM   13  C   UNL     1      33.714  51.593  41.600  1.00  0.00     0.027 A 
HETATM   14  C   UNL     1      35.087  51.558  41.344  1.00  0.00     0.011 A 
HETATM   15 BR   UNL     1      36.304  51.465  42.788  1.00  0.00    -0.051 Br
HETATM   16  C   UNL     1      35.568  51.590  40.038  1.00  0.00     0.019 A 
HETATM   17  C   UNL     1      34.669  51.661  38.978  1.00  0.00     0.002 A 
HETATM   18  C   UNL     1      33.295  51.700  39.227  1.00  0.00     0.008 A 
ENDBRANCH   4  12
BRANCH   3  19
HETATM   19  C   UNL     1      29.542  53.314  40.238  1.00  0.00     0.266 C 
HETATM   20  O   UNL     1      29.215  54.406  39.791  1.00  0.00    -0.265 OA
BRANCH  19  21
HETATM   21  O   UNL     1      29.065  52.774  41.395  1.00  0.00    -0.326 OA
HETATM   22  C   UNL     1      27.647  52.612  41.429  1.00  0.00     0.213 C 
ENDBRANCH  19  21
ENDBRANCH   3  19
BRANCH   2  23
HETATM   23  O   UNL     1      30.473  51.819  37.207  1.00  0.00    -0.389 OA
HETATM   24  H   UNL     1      29.797  51.830  36.506  1.00  0.00     0.210 HD
ENDBRANCH   2  23
BRANCH  10  25
HETATM   25  O   UNL     1      31.446  49.577  43.233  1.00  0.00    -0.343 OA
HETATM   26  H   UNL     1      31.183  48.783  43.728  1.00  0.00     0.219 HD
ENDBRANCH  10  25
TORSDOF 5
ENDMDL
MODEL 10
REMARK VINA RESULT:      -6.5     11.308     13.202
REMARK  5 active torsions:
REMARK  status: ('A' for Active; 'I' for Inactive)
REMARK    1  A    between atoms: C_2  and  O_3 
REMARK    2  A    between atoms: C_4  and  C_5 
REMARK    3  A    between atoms: C_5  and  O_6 
REMARK    4  A    between atoms: C_9  and  C_10 
REMARK    5  A    between atoms: C_22  and  O_23 
ROOT
HETATM    1  C   UNL     1      17.873  46.517  46.664  1.00  0.00     0.047 C 
HETATM    2  C   UNL     1      19.207  46.904  47.334  1.00  0.00     0.073 C 
HETATM    3  C   UNL     1      19.762  48.316  46.881  1.00  0.00     0.133 C 
HETATM    4  C   UNL     1      20.161  49.362  47.962  1.00  0.00     0.074 C 
HETATM    5  C   UNL     1      19.551  49.088  49.281  1.00  0.00     0.030 A 
HETATM    6  C   UNL     1      19.050  47.866  49.656  1.00  0.00     0.042 A 
HETATM    7  N   UNL     1      18.551  48.012  50.920  1.00  0.00    -0.279 N 
HETATM    8  H   UNL     1      18.110  47.317  51.514  1.00  0.00     0.189 HD
HETATM    9  N   UNL     1      18.692  49.267  51.394  1.00  0.00    -0.149 NA
HETATM   10  C   UNL     1      19.286  49.894  50.388  1.00  0.00     0.190 A 
HETATM   11  C   UNL     1      19.072  46.625  48.865  1.00  0.00     0.097 C 
ENDROOT
BRANCH   4  12
HETATM   12  C   UNL     1      21.671  49.424  48.181  1.00  0.00    -0.047 A 
HETATM   13  C   UNL     1      22.396  48.421  48.846  1.00  0.00     0.027 A 
HETATM   14  C   UNL     1      23.784  48.518  48.978  1.00  0.00     0.011 A 
HETATM   15 BR   UNL     1      24.732  47.158  49.887  1.00  0.00    -0.051 Br
HETATM   16  C   UNL     1      24.475  49.603  48.445  1.00  0.00     0.019 A 
HETATM   17  C   UNL     1      23.772  50.603  47.779  1.00  0.00     0.002 A 
HETATM   18  C   UNL     1      22.384  50.514  47.648  1.00  0.00     0.008 A 
ENDBRANCH   4  12
BRANCH   3  19
HETATM   19  C   UNL     1      18.794  49.035  45.959  1.00  0.00     0.266 C 
HETATM   20  O   UNL     1      18.698  48.839  44.754  1.00  0.00    -0.265 OA
BRANCH  19  21
HETATM   21  O   UNL     1      18.037  49.922  46.664  1.00  0.00    -0.326 OA
HETATM   22  C   UNL     1      16.718  50.111  46.151  1.00  0.00     0.213 C 
ENDBRANCH  19  21
ENDBRANCH   3  19
BRANCH   2  23
HETATM   23  O   UNL     1      20.136  45.913  46.821  1.00  0.00    -0.389 OA
HETATM   24  H   UNL     1      20.451  45.370  47.566  1.00  0.00     0.210 HD
ENDBRANCH   2  23
BRANCH  10  25
HETATM   25  O   UNL     1      19.537  51.183  50.585  1.00  0.00    -0.343 OA
HETATM   26  H   UNL     1      19.383  51.593  49.717  1.00  0.00     0.219 HD
ENDBRANCH  10  25
TORSDOF 5
ENDMDL
