MODEL 1
REMARK VINA RESULT:     -10.0      0.000      0.000
REMARK  2 active torsions:
REMARK  status: ('A' for Active; 'I' for Inactive)
REMARK    1  A    between atoms: C_7  and  C_8 
REMARK    2  A    between atoms: C_13  and  C_18 
ROOT
HETATM    1  C   UNL     1      29.685  44.052  55.153  1.00  0.00    -0.020 A 
HETATM    2  C   UNL     1      30.618  43.351  54.371  1.00  0.00     0.015 A 
HETATM    3  C   UNL     1      30.238  42.690  53.193  1.00  0.00     0.035 A 
HETATM    4  C   UNL     1      28.895  42.743  52.798  1.00  0.00     0.085 A 
HETATM    5  N   UNL     1      28.276  42.193  51.702  1.00  0.00    -0.233 NA
HETATM    6  C   UNL     1      27.011  42.553  51.786  1.00  0.00     0.111 A 
HETATM    7  N   UNL     1      26.797  43.312  52.915  1.00  0.00    -0.342 N 
HETATM    8  H   UNL     1      25.912  43.721  53.185  1.00  0.00     0.167 HD
HETATM    9  C   UNL     1      27.986  43.443  53.580  1.00  0.00     0.063 A 
HETATM   10  C   UNL     1      28.335  44.100  54.764  1.00  0.00     0.044 A 
ENDROOT
BRANCH   6  11
HETATM   11  C   UNL     1      25.939  42.231  50.780  1.00  0.00     0.084 C 
HETATM   12  C   UNL     1      26.173  42.869  49.411  1.00  0.00     0.188 C 
HETATM   13  O   UNL     1      27.334  42.365  48.733  1.00  0.00    -0.350 OA
HETATM   14  C   UNL     1      27.458  41.001  48.738  1.00  0.00     0.075 A 
HETATM   15  C   UNL     1      28.385  40.468  47.842  1.00  0.00     0.037 A 
HETATM   16  C   UNL     1      26.767  40.164  49.620  1.00  0.00    -0.024 A 
HETATM   17  C   UNL     1      28.609  39.093  47.801  1.00  0.00     0.003 A 
HETATM   18  C   UNL     1      27.908  38.249  48.660  1.00  0.00     0.001 A 
HETATM   19  C   UNL     1      26.990  38.781  49.564  1.00  0.00     0.010 A 
HETATM   20  C   UNL     1      25.777  40.721  50.605  1.00  0.00     0.056 C 
ENDBRANCH   6  11
BRANCH   1  21
HETATM   21  C   UNL     1      30.125  44.702  56.377  1.00  0.00     0.017 A 
HETATM   22  C   UNL     1      31.104  44.245  57.243  1.00  0.00     0.036 A 
HETATM   23  C   UNL     1      31.978  43.047  57.250  1.00  0.00     0.070 C 
HETATM   24  N   UNL     1      31.163  45.171  58.252  1.00  0.00    -0.282 N 
HETATM   25  H   UNL     1      31.768  45.168  59.067  1.00  0.00     0.189 HD
HETATM   26  N   UNL     1      30.288  46.179  58.120  1.00  0.00    -0.186 NA
HETATM   27  C   UNL     1      29.654  45.891  56.982  1.00  0.00     0.153 A 
ENDBRANCH   1  21
TORSDOF 2
ENDMDL
MODEL 2
REMARK VINA RESULT:      -9.4      2.276      3.468
REMARK  2 active torsions:
REMARK  status: ('A' for Active; 'I' for Inactive)
REMARK    1  A    between atoms: C_7  and  C_8 
REMARK    2  A    between atoms: C_13  and  C_18 
ROOT
HETATM    1  C   UNL     1      28.603  45.917  55.681  1.00  0.00    -0.020 A 
HETATM    2  C   UNL     1      27.944  47.124  55.966  1.00  0.00     0.015 A 
HETATM    3  C   UNL     1      26.965  47.645  55.107  1.00  0.00     0.035 A 
HETATM    4  C   UNL     1      26.644  46.932  53.944  1.00  0.00     0.085 A 
HETATM    5  N   UNL     1      25.735  47.220  52.956  1.00  0.00    -0.233 NA
HETATM    6  C   UNL     1      25.809  46.222  52.099  1.00  0.00     0.111 A 
HETATM    7  N   UNL     1      26.753  45.304  52.503  1.00  0.00    -0.342 N 
HETATM    8  H   UNL     1      26.977  44.444  52.019  1.00  0.00     0.167 HD
HETATM    9  C   UNL     1      27.304  45.740  53.678  1.00  0.00     0.063 A 
HETATM   10  C   UNL     1      28.292  45.203  54.510  1.00  0.00     0.044 A 
ENDROOT
BRANCH   6  11
HETATM   11  C   UNL     1      24.962  46.061  50.865  1.00  0.00     0.084 C 
HETATM   12  C   UNL     1      25.755  46.141  49.562  1.00  0.00     0.188 C 
HETATM   13  O   UNL     1      26.685  45.060  49.388  1.00  0.00    -0.350 OA
HETATM   14  C   UNL     1      26.179  43.816  49.654  1.00  0.00     0.075 A 
HETATM   15  C   UNL     1      26.942  42.737  49.206  1.00  0.00     0.037 A 
HETATM   16  C   UNL     1      25.009  43.596  50.388  1.00  0.00    -0.024 A 
HETATM   17  C   UNL     1      26.527  41.431  49.464  1.00  0.00     0.003 A 
HETATM   18  C   UNL     1      25.351  41.203  50.174  1.00  0.00     0.001 A 
HETATM   19  C   UNL     1      24.593  42.280  50.633  1.00  0.00     0.010 A 
HETATM   20  C   UNL     1      24.182  44.746  50.895  1.00  0.00     0.056 C 
ENDBRANCH   6  11
BRANCH   1  21
HETATM   21  C   UNL     1      29.627  45.430  56.591  1.00  0.00     0.017 A 
HETATM   22  C   UNL     1      30.506  44.386  56.357  1.00  0.00     0.036 A 
HETATM   23  C   UNL     1      30.710  43.465  55.213  1.00  0.00     0.070 C 
HETATM   24  N   UNL     1      31.267  44.285  57.493  1.00  0.00    -0.282 N 
HETATM   25  H   UNL     1      32.017  43.628  57.685  1.00  0.00     0.189 HD
HETATM   26  N   UNL     1      30.940  45.165  58.449  1.00  0.00    -0.186 NA
HETATM   27  C   UNL     1      29.940  45.859  57.903  1.00  0.00     0.153 A 
ENDBRANCH   1  21
TORSDOF 2
ENDMDL
MODEL 3
REMARK VINA RESULT:      -9.3      6.297      8.648
REMARK  2 active torsions:
REMARK  status: ('A' for Active; 'I' for Inactive)
REMARK    1  A    between atoms: C_7  and  C_8 
REMARK    2  A    between atoms: C_13  and  C_18 
ROOT
HETATM    1  C   UNL     1      25.506  45.353  52.232  1.00  0.00    -0.020 A 
HETATM    2  C   UNL     1      26.183  46.576  52.091  1.00  0.00     0.015 A 
HETATM    3  C   UNL     1      25.812  47.510  51.112  1.00  0.00     0.035 A 
HETATM    4  C   UNL     1      24.739  47.204  50.265  1.00  0.00     0.085 A 
HETATM    5  N   UNL     1      24.184  47.937  49.245  1.00  0.00    -0.233 NA
HETATM    6  C   UNL     1      23.189  47.209  48.780  1.00  0.00     0.111 A 
HETATM    7  N   UNL     1      23.095  46.020  49.467  1.00  0.00    -0.342 N 
HETATM    8  H   UNL     1      22.399  45.304  49.306  1.00  0.00     0.167 HD
HETATM    9  C   UNL     1      24.080  45.992  50.419  1.00  0.00     0.063 A 
HETATM   10  C   UNL     1      24.435  45.038  51.378  1.00  0.00     0.044 A 
ENDROOT
BRANCH   6  11
HETATM   11  C   UNL     1      22.244  47.616  47.681  1.00  0.00     0.084 C 
HETATM   12  C   UNL     1      20.889  46.912  47.748  1.00  0.00     0.188 C 
HETATM   13  O   UNL     1      20.116  47.262  48.907  1.00  0.00    -0.350 OA
HETATM   14  C   UNL     1      20.059  48.603  49.179  1.00  0.00     0.075 A 
HETATM   15  C   UNL     1      19.083  49.000  50.094  1.00  0.00     0.037 A 
HETATM   16  C   UNL     1      20.951  49.540  48.647  1.00  0.00    -0.024 A 
HETATM   17  C   UNL     1      18.974  50.341  50.462  1.00  0.00     0.003 A 
HETATM   18  C   UNL     1      19.843  51.284  49.920  1.00  0.00     0.001 A 
HETATM   19  C   UNL     1      20.826  50.887  49.014  1.00  0.00     0.010 A 
HETATM   20  C   UNL     1      22.020  49.128  47.672  1.00  0.00     0.056 C 
ENDBRANCH   6  11
BRANCH   1  21
HETATM   21  C   UNL     1      25.943  44.409  53.247  1.00  0.00     0.017 A 
HETATM   22  C   UNL     1      26.960  43.477  53.120  1.00  0.00     0.036 A 
HETATM   23  C   UNL     1      27.884  43.124  52.016  1.00  0.00     0.070 C 
HETATM   24  N   UNL     1      26.999  42.810  54.317  1.00  0.00    -0.282 N 
HETATM   25  H   UNL     1      27.620  42.056  54.591  1.00  0.00     0.189 HD
HETATM   26  N   UNL     1      26.079  43.221  55.201  1.00  0.00    -0.186 NA
HETATM   27  C   UNL     1      25.434  44.190  54.550  1.00  0.00     0.153 A 
ENDBRANCH   1  21
TORSDOF 2
ENDMDL
MODEL 4
REMARK VINA RESULT:      -9.2      6.874      9.345
REMARK  2 active torsions:
REMARK  status: ('A' for Active; 'I' for Inactive)
REMARK    1  A    between atoms: C_7  and  C_8 
REMARK    2  A    between atoms: C_13  and  C_18 
ROOT
HETATM    1  C   UNL     1      25.706  45.885  50.880  1.00  0.00    -0.020 A 
HETATM    2  C   UNL     1      26.014  47.212  50.540  1.00  0.00     0.015 A 
HETATM    3  C   UNL     1      25.129  48.000  49.787  1.00  0.00     0.035 A 
HETATM    4  C   UNL     1      23.914  47.438  49.377  1.00  0.00     0.085 A 
HETATM    5  N   UNL     1      22.890  47.989  48.646  1.00  0.00    -0.233 NA
HETATM    6  C   UNL     1      21.971  47.049  48.551  1.00  0.00     0.111 A 
HETATM    7  N   UNL     1      22.382  45.902  49.192  1.00  0.00    -0.342 N 
HETATM    8  H   UNL     1      21.841  45.051  49.273  1.00  0.00     0.167 HD
HETATM    9  C   UNL     1      23.624  46.125  49.723  1.00  0.00     0.063 A 
HETATM   10  C   UNL     1      24.492  45.314  50.462  1.00  0.00     0.044 A 
ENDROOT
BRANCH   6  11
HETATM   11  C   UNL     1      20.631  47.196  47.880  1.00  0.00     0.084 C 
HETATM   12  C   UNL     1      19.448  46.990  48.824  1.00  0.00     0.188 C 
HETATM   13  O   UNL     1      19.345  47.994  49.846  1.00  0.00    -0.350 OA
HETATM   14  C   UNL     1      19.484  49.283  49.404  1.00  0.00     0.075 A 
HETATM   15  C   UNL     1      19.089  50.281  50.295  1.00  0.00     0.037 A 
HETATM   16  C   UNL     1      20.048  49.622  48.170  1.00  0.00    -0.024 A 
HETATM   17  C   UNL     1      19.228  51.624  49.949  1.00  0.00     0.003 A 
HETATM   18  C   UNL     1      19.768  51.971  48.713  1.00  0.00     0.001 A 
HETATM   19  C   UNL     1      20.175  50.975  47.825  1.00  0.00     0.010 A 
HETATM   20  C   UNL     1      20.497  48.560  47.203  1.00  0.00     0.056 C 
ENDBRANCH   6  11
BRANCH   1  21
HETATM   21  C   UNL     1      26.666  45.103  51.642  1.00  0.00     0.017 A 
HETATM   22  C   UNL     1      26.892  45.183  53.006  1.00  0.00     0.036 A 
HETATM   23  C   UNL     1      26.307  46.010  54.087  1.00  0.00     0.070 C 
HETATM   24  N   UNL     1      27.886  44.275  53.267  1.00  0.00    -0.282 N 
HETATM   25  H   UNL     1      28.313  44.057  54.162  1.00  0.00     0.189 HD
HETATM   26  N   UNL     1      28.334  43.628  52.181  1.00  0.00    -0.186 NA
HETATM   27  C   UNL     1      27.596  44.135  51.192  1.00  0.00     0.153 A 
ENDBRANCH   1  21
TORSDOF 2
ENDMDL
MODEL 5
REMARK VINA RESULT:      -9.2      7.025     10.260
REMARK  2 active torsions:
REMARK  status: ('A' for Active; 'I' for Inactive)
REMARK    1  A    between atoms: C_7  and  C_8 
REMARK    2  A    between atoms: C_13  and  C_18 
ROOT
HETATM    1  C   UNL     1      21.583  49.439  48.005  1.00  0.00    -0.020 A 
HETATM    2  C   UNL     1      22.634  50.258  47.560  1.00  0.00     0.015 A 
HETATM    3  C   UNL     1      23.951  50.067  48.007  1.00  0.00     0.035 A 
HETATM    4  C   UNL     1      24.208  49.031  48.913  1.00  0.00     0.085 A 
HETATM    5  N   UNL     1      25.391  48.639  49.491  1.00  0.00    -0.233 NA
HETATM    6  C   UNL     1      25.092  47.604  50.252  1.00  0.00     0.111 A 
HETATM    7  N   UNL     1      23.746  47.327  50.187  1.00  0.00    -0.342 N 
HETATM    8  H   UNL     1      23.281  46.568  50.668  1.00  0.00     0.167 HD
HETATM    9  C   UNL     1      23.158  48.230  49.341  1.00  0.00     0.063 A 
HETATM   10  C   UNL     1      21.835  48.404  48.922  1.00  0.00     0.044 A 
ENDROOT
BRANCH   6  11
HETATM   11  C   UNL     1      26.075  46.793  51.053  1.00  0.00     0.084 C 
HETATM   12  C   UNL     1      25.459  46.125  52.281  1.00  0.00     0.188 C 
HETATM   13  O   UNL     1      24.485  45.120  51.961  1.00  0.00    -0.350 OA
HETATM   14  C   UNL     1      24.864  44.240  50.982  1.00  0.00     0.075 A 
HETATM   15  C   UNL     1      24.089  43.086  50.863  1.00  0.00     0.037 A 
HETATM   16  C   UNL     1      25.914  44.480  50.090  1.00  0.00    -0.024 A 
HETATM   17  C   UNL     1      24.375  42.150  49.870  1.00  0.00     0.003 A 
HETATM   18  C   UNL     1      25.433  42.370  48.992  1.00  0.00     0.001 A 
HETATM   19  C   UNL     1      26.202  43.528  49.102  1.00  0.00     0.010 A 
HETATM   20  C   UNL     1      26.750  45.727  50.191  1.00  0.00     0.056 C 
ENDBRANCH   6  11
BRANCH   1  21
HETATM   21  C   UNL     1      20.232  49.691  47.530  1.00  0.00     0.017 A 
HETATM   22  C   UNL     1      19.471  50.820  47.780  1.00  0.00     0.036 A 
HETATM   23  C   UNL     1      19.717  52.063  48.550  1.00  0.00     0.070 C 
HETATM   24  N   UNL     1      18.275  50.605  47.145  1.00  0.00    -0.282 N 
HETATM   25  H   UNL     1      17.468  51.220  47.110  1.00  0.00     0.189 HD
HETATM   26  N   UNL     1      18.194  49.422  46.521  1.00  0.00    -0.186 NA
HETATM   27  C   UNL     1      19.382  48.864  46.758  1.00  0.00     0.153 A 
ENDBRANCH   1  21
TORSDOF 2
ENDMDL
MODEL 6
REMARK VINA RESULT:      -9.1      7.106      9.567
REMARK  2 active torsions:
REMARK  status: ('A' for Active; 'I' for Inactive)
REMARK    1  A    between atoms: C_7  and  C_8 
REMARK    2  A    between atoms: C_13  and  C_18 
ROOT
HETATM    1  C   UNL     1      25.889  46.498  50.165  1.00  0.00    -0.020 A 
HETATM    2  C   UNL     1      26.809  47.425  49.648  1.00  0.00     0.015 A 
HETATM    3  C   UNL     1      26.394  48.670  49.150  1.00  0.00     0.035 A 
HETATM    4  C   UNL     1      25.029  48.983  49.181  1.00  0.00     0.085 A 
HETATM    5  N   UNL     1      24.376  50.118  48.765  1.00  0.00    -0.233 NA
HETATM    6  C   UNL     1      23.101  49.915  49.032  1.00  0.00     0.111 A 
HETATM    7  N   UNL     1      22.915  48.674  49.598  1.00  0.00    -0.342 N 
HETATM    8  H   UNL     1      22.028  48.298  49.906  1.00  0.00     0.167 HD
HETATM    9  C   UNL     1      24.134  48.057  49.698  1.00  0.00     0.063 A 
HETATM   10  C   UNL     1      24.518  46.805  50.190  1.00  0.00     0.044 A 
ENDROOT
BRANCH   6  11
HETATM   11  C   UNL     1      21.989  50.903  48.801  1.00  0.00     0.084 C 
HETATM   12  C   UNL     1      21.218  50.665  47.504  1.00  0.00     0.188 C 
HETATM   13  O   UNL     1      20.484  49.431  47.490  1.00  0.00    -0.350 OA
HETATM   14  C   UNL     1      19.755  49.181  48.622  1.00  0.00     0.075 A 
HETATM   15  C   UNL     1      18.802  48.166  48.524  1.00  0.00     0.037 A 
HETATM   16  C   UNL     1      19.971  49.832  49.841  1.00  0.00    -0.024 A 
HETATM   17  C   UNL     1      18.039  47.814  49.636  1.00  0.00     0.003 A 
HETATM   18  C   UNL     1      18.230  48.472  50.848  1.00  0.00     0.001 A 
HETATM   19  C   UNL     1      19.190  49.479  50.951  1.00  0.00     0.010 A 
HETATM   20  C   UNL     1      21.005  50.915  49.971  1.00  0.00     0.056 C 
ENDBRANCH   6  11
BRANCH   1  21
HETATM   21  C   UNL     1      26.366  45.213  50.649  1.00  0.00     0.017 A 
HETATM   22  C   UNL     1      26.571  44.857  51.971  1.00  0.00     0.036 A 
HETATM   23  C   UNL     1      26.404  45.577  53.256  1.00  0.00     0.070 C 
HETATM   24  N   UNL     1      27.033  43.567  51.937  1.00  0.00    -0.282 N 
HETATM   25  H   UNL     1      27.292  42.975  52.720  1.00  0.00     0.189 HD
HETATM   26  N   UNL     1      27.162  43.065  50.700  1.00  0.00    -0.186 NA
HETATM   27  C   UNL     1      26.761  44.068  49.916  1.00  0.00     0.153 A 
ENDBRANCH   1  21
TORSDOF 2
ENDMDL
MODEL 7
REMARK VINA RESULT:      -9.0      9.376     11.895
REMARK  2 active torsions:
REMARK  status: ('A' for Active; 'I' for Inactive)
REMARK    1  A    between atoms: C_7  and  C_8 
REMARK    2  A    between atoms: C_13  and  C_18 
ROOT
HETATM    1  C   UNL     1      24.578  49.287  48.680  1.00  0.00    -0.020 A 
HETATM    2  C   UNL     1      24.093  50.293  47.828  1.00  0.00     0.015 A 
HETATM    3  C   UNL     1      22.719  50.445  47.582  1.00  0.00     0.035 A 
HETATM    4  C   UNL     1      21.824  49.570  48.210  1.00  0.00     0.085 A 
HETATM    5  N   UNL     1      20.454  49.511  48.139  1.00  0.00    -0.233 NA
HETATM    6  C   UNL     1      20.097  48.520  48.932  1.00  0.00     0.111 A 
HETATM    7  N   UNL     1      21.203  47.932  49.502  1.00  0.00    -0.342 N 
HETATM    8  H   UNL     1      21.183  47.164  50.161  1.00  0.00     0.167 HD
HETATM    9  C   UNL     1      22.320  48.583  49.051  1.00  0.00     0.063 A 
HETATM   10  C   UNL     1      23.683  48.401  49.305  1.00  0.00     0.044 A 
ENDROOT
BRANCH   6  11
HETATM   11  C   UNL     1      18.682  48.098  49.225  1.00  0.00     0.084 C 
HETATM   12  C   UNL     1      18.181  48.548  50.596  1.00  0.00     0.188 C 
HETATM   13  O   UNL     1      18.065  49.973  50.727  1.00  0.00    -0.350 OA
HETATM   14  C   UNL     1      17.448  50.601  49.678  1.00  0.00     0.075 A 
HETATM   15  C   UNL     1      17.046  51.918  49.904  1.00  0.00     0.037 A 
HETATM   16  C   UNL     1      17.275  50.016  48.419  1.00  0.00    -0.024 A 
HETATM   17  C   UNL     1      16.444  52.651  48.882  1.00  0.00     0.003 A 
HETATM   18  C   UNL     1      16.246  52.069  47.632  1.00  0.00     0.001 A 
HETATM   19  C   UNL     1      16.658  50.756  47.401  1.00  0.00     0.010 A 
HETATM   20  C   UNL     1      17.717  48.604  48.152  1.00  0.00     0.056 C 
ENDBRANCH   6  11
BRANCH   1  21
HETATM   21  C   UNL     1      26.011  49.156  48.886  1.00  0.00     0.017 A 
HETATM   22  C   UNL     1      26.666  48.067  49.435  1.00  0.00     0.036 A 
HETATM   23  C   UNL     1      26.202  46.764  49.969  1.00  0.00     0.070 C 
HETATM   24  N   UNL     1      27.995  48.401  49.439  1.00  0.00    -0.282 N 
HETATM   25  H   UNL     1      28.778  47.846  49.770  1.00  0.00     0.189 HD
HETATM   26  N   UNL     1      28.252  49.625  48.955  1.00  0.00    -0.186 NA
HETATM   27  C   UNL     1      27.045  50.086  48.622  1.00  0.00     0.153 A 
ENDBRANCH   1  21
TORSDOF 2
ENDMDL
MODEL 8
REMARK VINA RESULT:      -9.0     15.025     18.134
REMARK  2 active torsions:
REMARK  status: ('A' for Active; 'I' for Inactive)
REMARK    1  A    between atoms: C_7  and  C_8 
REMARK    2  A    between atoms: C_13  and  C_18 
ROOT
HETATM    1  C   UNL     1      38.653  41.507  63.813  1.00  0.00    -0.020 A 
HETATM    2  C   UNL     1      38.860  40.807  62.613  1.00  0.00     0.015 A 
HETATM    3  C   UNL     1      39.653  39.649  62.568  1.00  0.00     0.035 A 
HETATM    4  C   UNL     1      40.241  39.192  63.754  1.00  0.00     0.085 A 
HETATM    5  N   UNL     1      41.046  38.102  63.975  1.00  0.00    -0.233 NA
HETATM    6  C   UNL     1      41.314  38.110  65.266  1.00  0.00     0.111 A 
HETATM    7  N   UNL     1      40.712  39.185  65.879  1.00  0.00    -0.342 N 
HETATM    8  H   UNL     1      40.755  39.394  66.868  1.00  0.00     0.167 HD
HETATM    9  C   UNL     1      40.025  39.896  64.931  1.00  0.00     0.063 A 
HETATM   10  C   UNL     1      39.250  41.057  65.003  1.00  0.00     0.044 A 
ENDROOT
BRANCH   6  11
HETATM   11  C   UNL     1      42.124  37.075  65.999  1.00  0.00     0.084 C 
HETATM   12  C   UNL     1      42.150  37.278  67.513  1.00  0.00     0.188 C 
HETATM   13  O   UNL     1      40.869  37.104  68.138  1.00  0.00    -0.350 OA
HETATM   14  C   UNL     1      40.179  35.990  67.740  1.00  0.00     0.075 A 
HETATM   15  C   UNL     1      39.092  35.626  68.536  1.00  0.00     0.037 A 
HETATM   16  C   UNL     1      40.471  35.274  66.574  1.00  0.00    -0.024 A 
HETATM   17  C   UNL     1      38.306  34.528  68.188  1.00  0.00     0.003 A 
HETATM   18  C   UNL     1      38.604  33.796  67.041  1.00  0.00     0.001 A 
HETATM   19  C   UNL     1      39.683  34.165  66.238  1.00  0.00     0.010 A 
HETATM   20  C   UNL     1      41.628  35.662  65.694  1.00  0.00     0.056 C 
ENDBRANCH   6  11
BRANCH   1  21
HETATM   21  C   UNL     1      37.842  42.713  63.804  1.00  0.00     0.017 A 
HETATM   22  C   UNL     1      36.624  42.888  64.439  1.00  0.00     0.036 A 
HETATM   23  C   UNL     1      35.776  42.005  65.275  1.00  0.00     0.070 C 
HETATM   24  N   UNL     1      36.234  44.168  64.139  1.00  0.00    -0.282 N 
HETATM   25  H   UNL     1      35.389  44.648  64.433  1.00  0.00     0.189 HD
HETATM   26  N   UNL     1      37.091  44.829  63.347  1.00  0.00    -0.186 NA
HETATM   27  C   UNL     1      38.066  43.943  63.139  1.00  0.00     0.153 A 
ENDBRANCH   1  21
TORSDOF 2
ENDMDL
MODEL 9
REMARK VINA RESULT:      -8.8      7.913     11.226
REMARK  2 active torsions:
REMARK  status: ('A' for Active; 'I' for Inactive)
REMARK    1  A    between atoms: C_7  and  C_8 
REMARK    2  A    between atoms: C_13  and  C_18 
ROOT
HETATM    1  C   UNL     1      20.145  50.068  49.092  1.00  0.00    -0.020 A 
HETATM    2  C   UNL     1      21.054  51.103  49.370  1.00  0.00     0.015 A 
HETATM    3  C   UNL     1      22.422  50.847  49.550  1.00  0.00     0.035 A 
HETATM    4  C   UNL     1      22.878  49.527  49.443  1.00  0.00     0.085 A 
HETATM    5  N   UNL     1      24.148  49.020  49.570  1.00  0.00    -0.233 NA
HETATM    6  C   UNL     1      24.039  47.723  49.361  1.00  0.00     0.111 A 
HETATM    7  N   UNL     1      22.729  47.380  49.113  1.00  0.00    -0.342 N 
HETATM    8  H   UNL     1      22.398  46.447  48.904  1.00  0.00     0.167 HD
HETATM    9  C   UNL     1      21.967  48.517  49.166  1.00  0.00     0.063 A 
HETATM   10  C   UNL     1      20.597  48.741  48.994  1.00  0.00     0.044 A 
ENDROOT
BRANCH   6  11
HETATM   11  C   UNL     1      25.178  46.739  49.344  1.00  0.00     0.084 C 
HETATM   12  C   UNL     1      26.526  47.357  49.711  1.00  0.00     0.188 C 
HETATM   13  O   UNL     1      26.596  47.820  51.068  1.00  0.00    -0.350 OA
HETATM   14  C   UNL     1      26.115  46.942  52.003  1.00  0.00     0.075 A 
HETATM   15  C   UNL     1      26.445  47.220  53.330  1.00  0.00     0.037 A 
HETATM   16  C   UNL     1      25.283  45.860  51.694  1.00  0.00    -0.024 A 
HETATM   17  C   UNL     1      25.969  46.403  54.355  1.00  0.00     0.003 A 
HETATM   18  C   UNL     1      25.159  45.311  54.054  1.00  0.00     0.001 A 
HETATM   19  C   UNL     1      24.819  45.038  52.729  1.00  0.00     0.010 A 
HETATM   20  C   UNL     1      24.903  45.555  50.271  1.00  0.00     0.056 C 
ENDBRANCH   6  11
BRANCH   1  21
HETATM   21  C   UNL     1      18.734  50.381  48.936  1.00  0.00     0.017 A 
HETATM   22  C   UNL     1      17.979  50.216  47.788  1.00  0.00     0.036 A 
HETATM   23  C   UNL     1      18.291  49.717  46.427  1.00  0.00     0.070 C 
HETATM   24  N   UNL     1      16.720  50.654  48.110  1.00  0.00    -0.282 N 
HETATM   25  H   UNL     1      15.898  50.684  47.516  1.00  0.00     0.189 HD
HETATM   26  N   UNL     1      16.605  51.106  49.367  1.00  0.00    -0.186 NA
HETATM   27  C   UNL     1      17.830  50.944  49.869  1.00  0.00     0.153 A 
ENDBRANCH   1  21
TORSDOF 2
ENDMDL
MODEL 10
REMARK VINA RESULT:      -8.7     14.679     15.645
REMARK  2 active torsions:
REMARK  status: ('A' for Active; 'I' for Inactive)
REMARK    1  A    between atoms: C_7  and  C_8 
REMARK    2  A    between atoms: C_13  and  C_18 
ROOT
HETATM    1  C   UNL     1      37.319  53.717  43.996  1.00  0.00    -0.020 A 
HETATM    2  C   UNL     1      37.940  53.449  42.765  1.00  0.00     0.015 A 
HETATM    3  C   UNL     1      37.390  52.538  41.850  1.00  0.00     0.035 A 
HETATM    4  C   UNL     1      36.193  51.892  42.183  1.00  0.00     0.085 A 
HETATM    5  N   UNL     1      35.460  50.974  41.473  1.00  0.00    -0.233 NA
HETATM    6  C   UNL     1      34.412  50.694  42.223  1.00  0.00     0.111 A 
HETATM    7  N   UNL     1      34.458  51.401  43.403  1.00  0.00    -0.342 N 
HETATM    8  H   UNL     1      33.757  51.369  44.132  1.00  0.00     0.167 HD
HETATM    9  C   UNL     1      35.591  52.170  43.404  1.00  0.00     0.063 A 
HETATM   10  C   UNL     1      36.122  53.063  44.339  1.00  0.00     0.044 A 
ENDROOT
BRANCH   6  11
HETATM   11  C   UNL     1      33.285  49.771  41.845  1.00  0.00     0.084 C 
HETATM   12  C   UNL     1      32.176  49.698  42.893  1.00  0.00     0.188 C 
HETATM   13  O   UNL     1      31.462  50.932  43.061  1.00  0.00    -0.350 OA
HETATM   14  C   UNL     1      31.084  51.543  41.895  1.00  0.00     0.075 A 
HETATM   15  C   UNL     1      30.138  52.562  42.017  1.00  0.00     0.037 A 
HETATM   16  C   UNL     1      31.641  51.243  40.647  1.00  0.00    -0.024 A 
HETATM   17  C   UNL     1      29.721  53.268  40.889  1.00  0.00     0.003 A 
HETATM   18  C   UNL     1      30.252  52.959  39.639  1.00  0.00     0.001 A 
HETATM   19  C   UNL     1      31.207  51.950  39.518  1.00  0.00     0.010 A 
HETATM   20  C   UNL     1      32.674  50.160  40.499  1.00  0.00     0.056 C 
ENDBRANCH   6  11
BRANCH   1  21
HETATM   21  C   UNL     1      37.939  54.653  44.920  1.00  0.00     0.017 A 
HETATM   22  C   UNL     1      38.414  54.362  46.188  1.00  0.00     0.036 A 
HETATM   23  C   UNL     1      38.458  53.122  46.999  1.00  0.00     0.070 C 
HETATM   24  N   UNL     1      38.895  55.548  46.681  1.00  0.00    -0.282 N 
HETATM   25  H   UNL     1      39.320  55.721  47.586  1.00  0.00     0.189 HD
HETATM   26  N   UNL     1      38.753  56.585  45.842  1.00  0.00    -0.186 NA
HETATM   27  C   UNL     1      38.168  56.042  44.773  1.00  0.00     0.153 A 
ENDBRANCH   1  21
TORSDOF 2
ENDMDL
