MODEL 1
REMARK VINA RESULT:      -8.7      0.000      0.000
REMARK  3 active torsions:
REMARK  status: ('A' for Active; 'I' for Inactive)
REMARK    1  A    between atoms: C_9  and  C_10 
REMARK    2  A    between atoms: C_16  and  C_17 
REMARK       I    between atoms: C_17  and  N_18 
REMARK    3  A    between atoms: N_18  and  C_19 
ROOT
HETATM    1  C   UNL     1      28.721  40.788  52.179  1.00  0.00     0.070 C 
HETATM    2  C   UNL     1      27.533  41.524  51.611  1.00  0.00     0.037 C 
HETATM    3  N   UNL     1      27.004  40.994  50.436  1.00  0.00    -0.191 N 
HETATM    4  C   UNL     1      25.800  41.365  49.949  1.00  0.00     0.735 A 
HETATM    5  N   UNL     1      25.137  42.412  50.527  1.00  0.00    -0.092 N 
HETATM    6  N   UNL     1      23.934  42.572  49.953  1.00  0.00     0.012 NA
HETATM    7  N   UNL     1      23.895  41.647  49.000  1.00  0.00     0.033 NA
HETATM    8  N   UNL     1      25.051  40.888  48.986  1.00  0.00     0.030 NA
HETATM    9  C   UNL     1      25.653  43.209  51.638  1.00  0.00     0.198 C 
HETATM   10  C   UNL     1      26.927  42.586  52.202  1.00  0.00     0.062 C 
HETATM   11  H   UNL     1      27.424  40.140  50.076  1.00  0.00     0.184 HD
ENDROOT
BRANCH  10  12
HETATM   12  C   UNL     1      27.347  43.160  53.507  1.00  0.00     0.257 C 
HETATM   13  N   UNL     1      28.596  43.733  53.469  1.00  0.00    -0.308 N 
HETATM   14  H   UNL     1      29.079  43.768  52.583  1.00  0.00     0.170 HD
HETATM   15  O   UNL     1      26.554  43.112  54.438  1.00  0.00    -0.267 OA
BRANCH  13  16
HETATM   16  C   UNL     1      29.271  44.272  54.574  1.00  0.00     0.129 A 
HETATM   17  N   UNL     1      28.896  45.451  55.096  1.00  0.00    -0.243 NA
HETATM   18  C   UNL     1      29.568  45.911  56.174  1.00  0.00     0.119 A 
HETATM   19  C   UNL     1      30.610  45.231  56.777  1.00  0.00     0.019 A 
HETATM   20  C   UNL     1      30.987  44.010  56.236  1.00  0.00     0.005 A 
HETATM   21  C   UNL     1      30.312  43.524  55.116  1.00  0.00     0.050 A 
ENDBRANCH  13  16
ENDBRANCH  10  12
BRANCH   9  22
HETATM   22  C   UNL     1      25.876  44.656  51.201  1.00  0.00    -0.029 A 
HETATM   23  C   UNL     1      25.262  45.696  51.920  1.00  0.00     0.009 A 
HETATM   24  C   UNL     1      25.450  47.028  51.548  1.00  0.00     0.001 A 
HETATM   25  C   UNL     1      26.261  47.340  50.459  1.00  0.00     0.000 A 
HETATM   26  C   UNL     1      26.891  46.324  49.746  1.00  0.00     0.001 A 
HETATM   27  C   UNL     1      26.708  44.990  50.118  1.00  0.00     0.009 A 
ENDBRANCH   9  22
TORSDOF 3
ENDMDL
MODEL 2
REMARK VINA RESULT:      -8.0      2.056      2.988
REMARK  3 active torsions:
REMARK  status: ('A' for Active; 'I' for Inactive)
REMARK    1  A    between atoms: C_9  and  C_10 
REMARK    2  A    between atoms: C_16  and  C_17 
REMARK       I    between atoms: C_17  and  N_18 
REMARK    3  A    between atoms: N_18  and  C_19 
ROOT
HETATM    1  C   UNL     1      30.020  42.652  53.550  1.00  0.00     0.070 C 
HETATM    2  C   UNL     1      28.876  42.241  52.657  1.00  0.00     0.037 C 
HETATM    3  N   UNL     1      29.173  41.261  51.712  1.00  0.00    -0.191 N 
HETATM    4  C   UNL     1      28.217  40.600  51.025  1.00  0.00     0.735 A 
HETATM    5  N   UNL     1      26.915  41.007  51.128  1.00  0.00    -0.092 N 
HETATM    6  N   UNL     1      26.115  40.181  50.436  1.00  0.00     0.012 NA
HETATM    7  N   UNL     1      26.944  39.302  49.882  1.00  0.00     0.033 NA
HETATM    8  N   UNL     1      28.256  39.551  50.240  1.00  0.00     0.030 NA
HETATM    9  C   UNL     1      26.464  42.153  51.914  1.00  0.00     0.198 C 
HETATM   10  C   UNL     1      27.603  42.701  52.770  1.00  0.00     0.062 C 
HETATM   11  H   UNL     1      30.112  40.870  51.722  1.00  0.00     0.184 HD
ENDROOT
BRANCH  10  12
HETATM   12  C   UNL     1      27.160  43.666  53.810  1.00  0.00     0.257 C 
HETATM   13  N   UNL     1      27.401  44.976  53.469  1.00  0.00    -0.308 N 
HETATM   14  H   UNL     1      27.787  45.169  52.557  1.00  0.00     0.170 HD
HETATM   15  O   UNL     1      26.604  43.223  54.806  1.00  0.00    -0.267 OA
BRANCH  13  16
HETATM   16  C   UNL     1      27.162  46.082  54.298  1.00  0.00     0.129 A 
HETATM   17  N   UNL     1      27.909  46.290  55.395  1.00  0.00    -0.243 NA
HETATM   18  C   UNL     1      27.649  47.383  56.143  1.00  0.00     0.119 A 
HETATM   19  C   UNL     1      26.667  48.307  55.838  1.00  0.00     0.019 A 
HETATM   20  C   UNL     1      25.904  48.089  54.699  1.00  0.00     0.005 A 
HETATM   21  C   UNL     1      26.150  46.960  53.920  1.00  0.00     0.050 A 
ENDBRANCH  13  16
ENDBRANCH  10  12
BRANCH   9  22
HETATM   22  C   UNL     1      25.873  43.228  51.005  1.00  0.00    -0.029 A 
HETATM   23  C   UNL     1      24.495  43.502  51.065  1.00  0.00     0.009 A 
HETATM   24  C   UNL     1      23.927  44.482  50.250  1.00  0.00     0.001 A 
HETATM   25  C   UNL     1      24.726  45.207  49.370  1.00  0.00     0.000 A 
HETATM   26  C   UNL     1      26.095  44.963  49.309  1.00  0.00     0.001 A 
HETATM   27  C   UNL     1      26.668  43.985  50.126  1.00  0.00     0.009 A 
ENDBRANCH   9  22
TORSDOF 3
ENDMDL
MODEL 3
REMARK VINA RESULT:      -7.7      2.203      5.450
REMARK  3 active torsions:
REMARK  status: ('A' for Active; 'I' for Inactive)
REMARK    1  A    between atoms: C_9  and  C_10 
REMARK    2  A    between atoms: C_16  and  C_17 
REMARK       I    between atoms: C_17  and  N_18 
REMARK    3  A    between atoms: N_18  and  C_19 
ROOT
HETATM    1  C   UNL     1      23.586  43.835  50.561  1.00  0.00     0.070 C 
HETATM    2  C   UNL     1      24.910  43.127  50.713  1.00  0.00     0.037 C 
HETATM    3  N   UNL     1      24.867  41.740  50.593  1.00  0.00    -0.191 N 
HETATM    4  C   UNL     1      25.979  40.990  50.440  1.00  0.00     0.735 A 
HETATM    5  N   UNL     1      27.207  41.577  50.569  1.00  0.00    -0.092 N 
HETATM    6  N   UNL     1      28.177  40.687  50.307  1.00  0.00     0.012 NA
HETATM    7  N   UNL     1      27.529  39.552  50.062  1.00  0.00     0.033 NA
HETATM    8  N   UNL     1      26.160  39.726  50.142  1.00  0.00     0.030 NA
HETATM    9  C   UNL     1      27.423  42.983  50.904  1.00  0.00     0.198 C 
HETATM   10  C   UNL     1      26.104  43.751  50.879  1.00  0.00     0.062 C 
HETATM   11  H   UNL     1      23.969  41.316  50.371  1.00  0.00     0.184 HD
ENDROOT
BRANCH  10  12
HETATM   12  C   UNL     1      26.271  45.228  50.914  1.00  0.00     0.257 C 
HETATM   13  N   UNL     1      26.273  45.801  49.665  1.00  0.00    -0.308 N 
HETATM   14  H   UNL     1      26.109  45.207  48.866  1.00  0.00     0.170 HD
HETATM   15  O   UNL     1      26.339  45.773  52.008  1.00  0.00    -0.267 OA
BRANCH  13  16
HETATM   16  C   UNL     1      26.498  47.160  49.401  1.00  0.00     0.129 A 
HETATM   17  N   UNL     1      27.742  47.620  49.186  1.00  0.00    -0.243 NA
HETATM   18  C   UNL     1      27.896  48.933  48.915  1.00  0.00     0.119 A 
HETATM   19  C   UNL     1      26.846  49.830  48.834  1.00  0.00     0.019 A 
HETATM   20  C   UNL     1      25.564  49.346  49.051  1.00  0.00     0.005 A 
HETATM   21  C   UNL     1      25.385  47.995  49.343  1.00  0.00     0.050 A 
ENDBRANCH  13  16
ENDBRANCH  10  12
BRANCH   9  22
HETATM   22  C   UNL     1      28.127  43.111  52.253  1.00  0.00    -0.029 A 
HETATM   23  C   UNL     1      27.382  42.968  53.436  1.00  0.00     0.009 A 
HETATM   24  C   UNL     1      27.998  43.076  54.684  1.00  0.00     0.001 A 
HETATM   25  C   UNL     1      29.367  43.320  54.768  1.00  0.00     0.000 A 
HETATM   26  C   UNL     1      30.124  43.447  53.607  1.00  0.00     0.001 A 
HETATM   27  C   UNL     1      29.512  43.336  52.356  1.00  0.00     0.009 A 
ENDBRANCH   9  22
TORSDOF 3
ENDMDL
MODEL 4
REMARK VINA RESULT:      -7.6     12.980     15.542
REMARK  3 active torsions:
REMARK  status: ('A' for Active; 'I' for Inactive)
REMARK    1  A    between atoms: C_9  and  C_10 
REMARK    2  A    between atoms: C_16  and  C_17 
REMARK       I    between atoms: C_17  and  N_18 
REMARK    3  A    between atoms: N_18  and  C_19 
ROOT
HETATM    1  C   UNL     1      32.108  48.357  42.349  1.00  0.00     0.070 C 
HETATM    2  C   UNL     1      32.319  49.524  41.417  1.00  0.00     0.037 C 
HETATM    3  N   UNL     1      33.312  50.424  41.796  1.00  0.00    -0.191 N 
HETATM    4  C   UNL     1      33.802  51.361  40.957  1.00  0.00     0.735 A 
HETATM    5  N   UNL     1      33.203  51.553  39.743  1.00  0.00    -0.092 N 
HETATM    6  N   UNL     1      33.881  52.467  39.030  1.00  0.00     0.012 NA
HETATM    7  N   UNL     1      34.864  52.855  39.837  1.00  0.00     0.033 NA
HETATM    8  N   UNL     1      34.827  52.174  41.040  1.00  0.00     0.030 NA
HETATM    9  C   UNL     1      32.019  50.834  39.279  1.00  0.00     0.198 C 
HETATM   10  C   UNL     1      31.671  49.696  40.235  1.00  0.00     0.062 C 
HETATM   11  H   UNL     1      33.842  50.210  42.637  1.00  0.00     0.184 HD
ENDROOT
BRANCH  10  12
HETATM   12  C   UNL     1      30.672  48.739  39.690  1.00  0.00     0.257 C 
HETATM   13  N   UNL     1      29.410  48.928  40.199  1.00  0.00    -0.308 N 
HETATM   14  H   UNL     1      29.259  49.703  40.828  1.00  0.00     0.170 HD
HETATM   15  O   UNL     1      31.046  47.941  38.840  1.00  0.00    -0.267 OA
BRANCH  13  16
HETATM   16  C   UNL     1      28.299  48.117  39.924  1.00  0.00     0.129 A 
HETATM   17  N   UNL     1      27.577  48.303  38.806  1.00  0.00    -0.243 NA
HETATM   18  C   UNL     1      26.531  47.478  38.581  1.00  0.00     0.119 A 
HETATM   19  C   UNL     1      26.171  46.446  39.428  1.00  0.00     0.019 A 
HETATM   20  C   UNL     1      26.926  46.256  40.577  1.00  0.00     0.005 A 
HETATM   21  C   UNL     1      28.003  47.105  40.832  1.00  0.00     0.050 A 
ENDBRANCH  13  16
ENDBRANCH  10  12
BRANCH   9  22
HETATM   22  C   UNL     1      30.846  51.794  39.093  1.00  0.00    -0.029 A 
HETATM   23  C   UNL     1      30.495  52.666  40.139  1.00  0.00     0.009 A 
HETATM   24  C   UNL     1      29.430  53.557  39.997  1.00  0.00     0.001 A 
HETATM   25  C   UNL     1      28.707  53.597  38.807  1.00  0.00     0.000 A 
HETATM   26  C   UNL     1      29.052  52.754  37.754  1.00  0.00     0.001 A 
HETATM   27  C   UNL     1      30.119  51.863  37.891  1.00  0.00     0.009 A 
ENDBRANCH   9  22
TORSDOF 3
ENDMDL
MODEL 5
REMARK VINA RESULT:      -7.6      2.466      6.744
REMARK  3 active torsions:
REMARK  status: ('A' for Active; 'I' for Inactive)
REMARK    1  A    between atoms: C_9  and  C_10 
REMARK    2  A    between atoms: C_16  and  C_17 
REMARK       I    between atoms: C_17  and  N_18 
REMARK    3  A    between atoms: N_18  and  C_19 
ROOT
HETATM    1  C   UNL     1      24.497  46.003  49.442  1.00  0.00     0.070 C 
HETATM    2  C   UNL     1      25.045  45.806  50.834  1.00  0.00     0.037 C 
HETATM    3  N   UNL     1      25.336  46.974  51.536  1.00  0.00    -0.191 N 
HETATM    4  C   UNL     1      25.579  46.982  52.865  1.00  0.00     0.735 A 
HETATM    5  N   UNL     1      25.707  45.794  53.529  1.00  0.00    -0.092 N 
HETATM    6  N   UNL     1      25.867  46.013  54.844  1.00  0.00     0.012 NA
HETATM    7  N   UNL     1      25.877  47.337  54.961  1.00  0.00     0.033 NA
HETATM    8  N   UNL     1      25.699  47.953  53.736  1.00  0.00     0.030 NA
HETATM    9  C   UNL     1      25.638  44.478  52.898  1.00  0.00     0.198 C 
HETATM   10  C   UNL     1      25.193  44.602  51.443  1.00  0.00     0.062 C 
HETATM   11  H   UNL     1      25.121  47.859  51.084  1.00  0.00     0.184 HD
ENDROOT
BRANCH  10  12
HETATM   12  C   UNL     1      24.813  43.306  50.821  1.00  0.00     0.257 C 
HETATM   13  N   UNL     1      25.722  42.867  49.888  1.00  0.00    -0.308 N 
HETATM   14  H   UNL     1      26.564  43.406  49.752  1.00  0.00     0.170 HD
HETATM   15  O   UNL     1      23.794  42.755  51.217  1.00  0.00    -0.267 OA
BRANCH  13  16
HETATM   16  C   UNL     1      25.572  41.723  49.091  1.00  0.00     0.129 A 
HETATM   17  N   UNL     1      24.665  41.692  48.101  1.00  0.00    -0.243 NA
HETATM   18  C   UNL     1      24.579  40.573  47.352  1.00  0.00     0.119 A 
HETATM   19  C   UNL     1      25.381  39.461  47.537  1.00  0.00     0.019 A 
HETATM   20  C   UNL     1      26.321  39.503  48.557  1.00  0.00     0.005 A 
HETATM   21  C   UNL     1      26.417  40.647  49.349  1.00  0.00     0.050 A 
ENDBRANCH  13  16
ENDBRANCH  10  12
BRANCH   9  22
HETATM   22  C   UNL     1      26.977  43.753  53.019  1.00  0.00    -0.029 A 
HETATM   23  C   UNL     1      28.031  44.101  52.155  1.00  0.00     0.009 A 
HETATM   24  C   UNL     1      29.267  43.459  52.245  1.00  0.00     0.001 A 
HETATM   25  C   UNL     1      29.471  42.469  53.203  1.00  0.00     0.000 A 
HETATM   26  C   UNL     1      28.445  42.124  54.079  1.00  0.00     0.001 A 
HETATM   27  C   UNL     1      27.208  42.766  53.995  1.00  0.00     0.009 A 
ENDBRANCH   9  22
TORSDOF 3
ENDMDL
MODEL 6
REMARK VINA RESULT:      -7.4      5.472      8.591
REMARK  3 active torsions:
REMARK  status: ('A' for Active; 'I' for Inactive)
REMARK    1  A    between atoms: C_9  and  C_10 
REMARK    2  A    between atoms: C_16  and  C_17 
REMARK       I    between atoms: C_17  and  N_18 
REMARK    3  A    between atoms: N_18  and  C_19 
ROOT
HETATM    1  C   UNL     1      25.227  48.217  49.520  1.00  0.00     0.070 C 
HETATM    2  C   UNL     1      24.500  46.895  49.524  1.00  0.00     0.037 C 
HETATM    3  N   UNL     1      25.182  45.837  50.121  1.00  0.00    -0.191 N 
HETATM    4  C   UNL     1      24.579  44.672  50.441  1.00  0.00     0.735 A 
HETATM    5  N   UNL     1      23.296  44.446  50.026  1.00  0.00    -0.092 N 
HETATM    6  N   UNL     1      22.852  43.273  50.508  1.00  0.00     0.012 NA
HETATM    7  N   UNL     1      23.888  42.777  51.178  1.00  0.00     0.033 NA
HETATM    8  N   UNL     1      24.970  43.637  51.144  1.00  0.00     0.030 NA
HETATM    9  C   UNL     1      22.512  45.370  49.211  1.00  0.00     0.198 C 
HETATM   10  C   UNL     1      23.237  46.707  49.065  1.00  0.00     0.062 C 
HETATM   11  H   UNL     1      26.086  46.039  50.541  1.00  0.00     0.184 HD
ENDROOT
BRANCH  10  12
HETATM   12  C   UNL     1      22.386  47.791  48.508  1.00  0.00     0.257 C 
HETATM   13  N   UNL     1      21.680  48.472  49.471  1.00  0.00    -0.308 N 
HETATM   14  H   UNL     1      21.836  48.231  50.439  1.00  0.00     0.170 HD
HETATM   15  O   UNL     1      22.431  47.995  47.302  1.00  0.00    -0.267 OA
BRANCH  13  16
HETATM   16  C   UNL     1      20.741  49.483  49.220  1.00  0.00     0.129 A 
HETATM   17  N   UNL     1      19.427  49.253  49.385  1.00  0.00    -0.243 NA
HETATM   18  C   UNL     1      18.570  50.268  49.149  1.00  0.00     0.119 A 
HETATM   19  C   UNL     1      18.967  51.535  48.760  1.00  0.00     0.019 A 
HETATM   20  C   UNL     1      20.326  51.766  48.599  1.00  0.00     0.005 A 
HETATM   21  C   UNL     1      21.226  50.726  48.827  1.00  0.00     0.050 A 
ENDBRANCH  13  16
ENDBRANCH  10  12
BRANCH   9  22
HETATM   22  C   UNL     1      22.193  44.750  47.852  1.00  0.00    -0.029 A 
HETATM   23  C   UNL     1      20.852  44.609  47.456  1.00  0.00     0.009 A 
HETATM   24  C   UNL     1      20.529  44.049  46.218  1.00  0.00     0.001 A 
HETATM   25  C   UNL     1      21.540  43.630  45.357  1.00  0.00     0.000 A 
HETATM   26  C   UNL     1      22.875  43.779  45.725  1.00  0.00     0.001 A 
HETATM   27  C   UNL     1      23.202  44.341  46.961  1.00  0.00     0.009 A 
ENDBRANCH   9  22
TORSDOF 3
ENDMDL
MODEL 7
REMARK VINA RESULT:      -7.3      2.300      4.179
REMARK  3 active torsions:
REMARK  status: ('A' for Active; 'I' for Inactive)
REMARK    1  A    between atoms: C_9  and  C_10 
REMARK    2  A    between atoms: C_16  and  C_17 
REMARK       I    between atoms: C_17  and  N_18 
REMARK    3  A    between atoms: N_18  and  C_19 
ROOT
HETATM    1  C   UNL     1      23.482  44.501  50.561  1.00  0.00     0.070 C 
HETATM    2  C   UNL     1      24.745  43.719  50.296  1.00  0.00     0.037 C 
HETATM    3  N   UNL     1      24.590  42.575  49.516  1.00  0.00    -0.191 N 
HETATM    4  C   UNL     1      25.638  41.919  48.973  1.00  0.00     0.735 A 
HETATM    5  N   UNL     1      26.909  42.280  49.323  1.00  0.00    -0.092 N 
HETATM    6  N   UNL     1      27.804  41.566  48.621  1.00  0.00     0.012 NA
HETATM    7  N   UNL     1      27.066  40.744  47.881  1.00  0.00     0.033 NA
HETATM    8  N   UNL     1      25.715  40.953  48.090  1.00  0.00     0.030 NA
HETATM    9  C   UNL     1      27.239  43.322  50.292  1.00  0.00     0.198 C 
HETATM   10  C   UNL     1      25.986  44.096  50.698  1.00  0.00     0.062 C 
HETATM   11  H   UNL     1      23.661  42.378  49.152  1.00  0.00     0.184 HD
ENDROOT
BRANCH  10  12
HETATM   12  C   UNL     1      26.272  45.350  51.442  1.00  0.00     0.257 C 
HETATM   13  N   UNL     1      26.386  45.159  52.798  1.00  0.00    -0.308 N 
HETATM   14  H   UNL     1      26.328  44.217  53.155  1.00  0.00     0.170 HD
HETATM   15  O   UNL     1      26.419  46.380  50.797  1.00  0.00    -0.267 OA
BRANCH  13  16
HETATM   16  C   UNL     1      26.568  46.179  53.744  1.00  0.00     0.129 A 
HETATM   17  N   UNL     1      25.662  47.162  53.874  1.00  0.00    -0.243 NA
HETATM   18  C   UNL     1      25.878  48.105  54.816  1.00  0.00     0.119 A 
HETATM   19  C   UNL     1      26.972  48.110  55.662  1.00  0.00     0.019 A 
HETATM   20  C   UNL     1      27.900  47.087  55.526  1.00  0.00     0.005 A 
HETATM   21  C   UNL     1      27.700  46.110  54.551  1.00  0.00     0.050 A 
ENDBRANCH  13  16
ENDBRANCH  10  12
BRANCH   9  22
HETATM   22  C   UNL     1      27.950  42.724  51.503  1.00  0.00    -0.029 A 
HETATM   23  C   UNL     1      29.141  43.312  51.964  1.00  0.00     0.009 A 
HETATM   24  C   UNL     1      29.812  42.790  53.071  1.00  0.00     0.001 A 
HETATM   25  C   UNL     1      29.299  41.680  53.738  1.00  0.00     0.000 A 
HETATM   26  C   UNL     1      28.111  41.096  53.308  1.00  0.00     0.001 A 
HETATM   27  C   UNL     1      27.436  41.617  52.202  1.00  0.00     0.009 A 
ENDBRANCH   9  22
TORSDOF 3
ENDMDL
MODEL 8
REMARK VINA RESULT:      -7.3      2.554      5.850
REMARK  3 active torsions:
REMARK  status: ('A' for Active; 'I' for Inactive)
REMARK    1  A    between atoms: C_9  and  C_10 
REMARK    2  A    between atoms: C_16  and  C_17 
REMARK       I    between atoms: C_17  and  N_18 
REMARK    3  A    between atoms: N_18  and  C_19 
ROOT
HETATM    1  C   UNL     1      24.233  43.364  50.872  1.00  0.00     0.070 C 
HETATM    2  C   UNL     1      25.587  43.477  51.529  1.00  0.00     0.037 C 
HETATM    3  N   UNL     1      26.177  42.271  51.901  1.00  0.00    -0.191 N 
HETATM    4  C   UNL     1      27.477  42.177  52.252  1.00  0.00     0.735 A 
HETATM    5  N   UNL     1      28.214  43.318  52.409  1.00  0.00    -0.092 N 
HETATM    6  N   UNL     1      29.493  43.011  52.681  1.00  0.00     0.012 NA
HETATM    7  N   UNL     1      29.512  41.683  52.729  1.00  0.00     0.033 NA
HETATM    8  N   UNL     1      28.264  41.150  52.464  1.00  0.00     0.030 NA
HETATM    9  C   UNL     1      27.687  44.673  52.261  1.00  0.00     0.198 C 
HETATM   10  C   UNL     1      26.267  44.640  51.700  1.00  0.00     0.062 C 
HETATM   11  H   UNL     1      25.680  41.415  51.668  1.00  0.00     0.184 HD
ENDROOT
BRANCH  10  12
HETATM   12  C   UNL     1      25.774  45.965  51.243  1.00  0.00     0.257 C 
HETATM   13  N   UNL     1      26.414  46.420  50.115  1.00  0.00    -0.308 N 
HETATM   14  H   UNL     1      27.094  45.818  49.675  1.00  0.00     0.170 HD
HETATM   15  O   UNL     1      24.851  46.479  51.861  1.00  0.00    -0.267 OA
BRANCH  13  16
HETATM   16  C   UNL     1      26.207  47.673  49.520  1.00  0.00     0.129 A 
HETATM   17  N   UNL     1      24.963  48.113  49.264  1.00  0.00    -0.243 NA
HETATM   18  C   UNL     1      24.822  49.336  48.711  1.00  0.00     0.119 A 
HETATM   19  C   UNL     1      25.884  50.167  48.404  1.00  0.00     0.019 A 
HETATM   20  C   UNL     1      27.166  49.709  48.677  1.00  0.00     0.005 A 
HETATM   21  C   UNL     1      27.331  48.444  49.239  1.00  0.00     0.050 A 
ENDBRANCH  13  16
ENDBRANCH  10  12
BRANCH   9  22
HETATM   22  C   UNL     1      27.753  45.423  53.589  1.00  0.00    -0.029 A 
HETATM   23  C   UNL     1      27.548  46.813  53.607  1.00  0.00     0.009 A 
HETATM   24  C   UNL     1      27.598  47.526  54.807  1.00  0.00     0.001 A 
HETATM   25  C   UNL     1      27.844  46.859  56.005  1.00  0.00     0.000 A 
HETATM   26  C   UNL     1      28.032  45.479  56.008  1.00  0.00     0.001 A 
HETATM   27  C   UNL     1      27.979  44.763  54.811  1.00  0.00     0.009 A 
ENDBRANCH   9  22
TORSDOF 3
ENDMDL
MODEL 9
REMARK VINA RESULT:      -7.3      6.782     10.051
REMARK  3 active torsions:
REMARK  status: ('A' for Active; 'I' for Inactive)
REMARK    1  A    between atoms: C_9  and  C_10 
REMARK    2  A    between atoms: C_16  and  C_17 
REMARK       I    between atoms: C_17  and  N_18 
REMARK    3  A    between atoms: N_18  and  C_19 
ROOT
HETATM    1  C   UNL     1      23.492  45.510  49.807  1.00  0.00     0.070 C 
HETATM    2  C   UNL     1      23.520  46.905  49.235  1.00  0.00     0.037 C 
HETATM    3  N   UNL     1      24.695  47.621  49.454  1.00  0.00    -0.191 N 
HETATM    4  C   UNL     1      24.983  48.764  48.794  1.00  0.00     0.735 A 
HETATM    5  N   UNL     1      24.029  49.338  48.001  1.00  0.00    -0.092 N 
HETATM    6  N   UNL     1      24.533  50.415  47.376  1.00  0.00     0.012 NA
HETATM    7  N   UNL     1      25.778  50.510  47.831  1.00  0.00     0.033 NA
HETATM    8  N   UNL     1      26.072  49.488  48.714  1.00  0.00     0.030 NA
HETATM    9  C   UNL     1      22.672  48.825  47.830  1.00  0.00     0.198 C 
HETATM   10  C   UNL     1      22.530  47.452  48.483  1.00  0.00     0.062 C 
HETATM   11  H   UNL     1      25.451  47.143  49.937  1.00  0.00     0.184 HD
ENDROOT
BRANCH  10  12
HETATM   12  C   UNL     1      21.284  46.735  48.104  1.00  0.00     0.257 C 
HETATM   13  N   UNL     1      21.374  46.104  46.886  1.00  0.00    -0.308 N 
HETATM   14  H   UNL     1      22.257  46.128  46.399  1.00  0.00     0.170 HD
HETATM   15  O   UNL     1      20.356  46.736  48.900  1.00  0.00    -0.267 OA
BRANCH  13  16
HETATM   16  C   UNL     1      20.323  45.428  46.249  1.00  0.00     0.129 A 
HETATM   17  N   UNL     1      19.338  46.111  45.641  1.00  0.00    -0.243 NA
HETATM   18  C   UNL     1      18.364  45.408  45.025  1.00  0.00     0.119 A 
HETATM   19  C   UNL     1      18.329  44.027  44.972  1.00  0.00     0.019 A 
HETATM   20  C   UNL     1      19.354  43.328  45.595  1.00  0.00     0.005 A 
HETATM   21  C   UNL     1      20.363  44.037  46.247  1.00  0.00     0.050 A 
ENDBRANCH  13  16
ENDBRANCH  10  12
BRANCH   9  22
HETATM   22  C   UNL     1      21.649  49.819  48.376  1.00  0.00    -0.029 A 
HETATM   23  C   UNL     1      20.708  50.390  47.503  1.00  0.00     0.009 A 
HETATM   24  C   UNL     1      19.758  51.298  47.974  1.00  0.00     0.001 A 
HETATM   25  C   UNL     1      19.730  51.642  49.323  1.00  0.00     0.000 A 
HETATM   26  C   UNL     1      20.643  51.072  50.206  1.00  0.00     0.001 A 
HETATM   27  C   UNL     1      21.592  50.160  49.740  1.00  0.00     0.009 A 
ENDBRANCH   9  22
TORSDOF 3
ENDMDL
MODEL 10
REMARK VINA RESULT:      -7.2      2.554      5.077
REMARK  3 active torsions:
REMARK  status: ('A' for Active; 'I' for Inactive)
REMARK    1  A    between atoms: C_9  and  C_10 
REMARK    2  A    between atoms: C_16  and  C_17 
REMARK       I    between atoms: C_17  and  N_18 
REMARK    3  A    between atoms: N_18  and  C_19 
ROOT
HETATM    1  C   UNL     1      24.811  42.589  50.699  1.00  0.00     0.070 C 
HETATM    2  C   UNL     1      25.813  41.814  49.880  1.00  0.00     0.037 C 
HETATM    3  N   UNL     1      25.466  41.605  48.547  1.00  0.00    -0.191 N 
HETATM    4  C   UNL     1      26.353  41.169  47.625  1.00  0.00     0.735 A 
HETATM    5  N   UNL     1      27.593  40.760  48.030  1.00  0.00    -0.092 N 
HETATM    6  N   UNL     1      28.346  40.440  46.965  1.00  0.00     0.012 NA
HETATM    7  N   UNL     1      27.540  40.617  45.923  1.00  0.00     0.033 NA
HETATM    8  N   UNL     1      26.295  41.071  46.320  1.00  0.00     0.030 NA
HETATM    9  C   UNL     1      28.041  40.718  49.420  1.00  0.00     0.198 C 
HETATM   10  C   UNL     1      27.020  41.391  50.335  1.00  0.00     0.062 C 
HETATM   11  H   UNL     1      24.599  42.021  48.217  1.00  0.00     0.184 HD
ENDROOT
BRANCH  10  12
HETATM   12  C   UNL     1      27.529  41.655  51.707  1.00  0.00     0.257 C 
HETATM   13  N   UNL     1      28.133  42.883  51.832  1.00  0.00    -0.308 N 
HETATM   14  H   UNL     1      28.130  43.501  51.034  1.00  0.00     0.170 HD
HETATM   15  O   UNL     1      27.326  40.809  52.567  1.00  0.00    -0.267 OA
BRANCH  13  16
HETATM   16  C   UNL     1      28.773  43.353  52.988  1.00  0.00     0.129 A 
HETATM   17  N   UNL     1      28.230  44.342  53.717  1.00  0.00    -0.243 NA
HETATM   18  C   UNL     1      28.879  44.740  54.832  1.00  0.00     0.119 A 
HETATM   19  C   UNL     1      30.063  44.178  55.274  1.00  0.00     0.019 A 
HETATM   20  C   UNL     1      30.614  43.151  54.519  1.00  0.00     0.005 A 
HETATM   21  C   UNL     1      29.964  42.735  53.358  1.00  0.00     0.050 A 
ENDBRANCH  13  16
ENDBRANCH  10  12
BRANCH   9  22
HETATM   22  C   UNL     1      28.323  39.280  49.850  1.00  0.00    -0.029 A 
HETATM   23  C   UNL     1      27.371  38.280  49.584  1.00  0.00     0.009 A 
HETATM   24  C   UNL     1      27.603  36.957  49.961  1.00  0.00     0.001 A 
HETATM   25  C   UNL     1      28.791  36.611  50.601  1.00  0.00     0.000 A 
HETATM   26  C   UNL     1      29.753  37.585  50.857  1.00  0.00     0.001 A 
HETATM   27  C   UNL     1      29.526  38.909  50.478  1.00  0.00     0.009 A 
ENDBRANCH   9  22
TORSDOF 3
ENDMDL
