MODEL 1
REMARK VINA RESULT:      -8.7      0.000      0.000
REMARK  5 active torsions:
REMARK  status: ('A' for Active; 'I' for Inactive)
REMARK    1  A    between atoms: C_4  and  C_5 
REMARK       I    between atoms: C_5  and  N_6 
REMARK    2  A    between atoms: N_6  and  C_7 
REMARK    3  A    between atoms: C_7  and  C_8 
REMARK    4  A    between atoms: C_8  and  C_9 
REMARK    5  A    between atoms: C_18  and  O_19 
ROOT
HETATM    1  C   UNL     1      26.593  46.233  53.892  1.00  0.00     0.254 C 
HETATM    2  N   UNL     1      26.590  46.427  52.526  1.00  0.00    -0.356 N 
HETATM    3  O   UNL     1      25.640  46.517  54.613  1.00  0.00    -0.268 OA
HETATM    4  H   UNL     1      27.246  45.890  51.970  1.00  0.00     0.162 HD
ENDROOT
BRANCH   1   5
HETATM    5  C   UNL     1      27.804  45.608  54.494  1.00  0.00     0.066 A 
HETATM    6  C   UNL     1      28.344  46.088  55.696  1.00  0.00     0.026 A 
HETATM    7  C   UNL     1      29.487  45.497  56.251  1.00  0.00    -0.060 A 
HETATM    8  C   UNL     1      30.043  45.978  57.559  1.00  0.00     0.048 C 
HETATM    9  C   UNL     1      30.075  44.403  55.602  1.00  0.00     0.016 A 
HETATM   10  C   UNL     1      29.548  43.900  54.403  1.00  0.00    -0.027 A 
HETATM   11  C   UNL     1      28.397  44.495  53.869  1.00  0.00     0.087 A 
HETATM   12  C   UNL     1      30.178  42.696  53.762  1.00  0.00     0.051 C 
BRANCH  11  13
HETATM   13  O   UNL     1      27.878  43.941  52.724  1.00  0.00    -0.359 OA
HETATM   14  H   UNL     1      28.481  43.220  52.436  1.00  0.00     0.218 HD
ENDBRANCH  11  13
ENDBRANCH   1   5
BRANCH   2  15
HETATM   15  C   UNL     1      25.401  46.917  51.846  1.00  0.00     0.136 C 
BRANCH  15  16
HETATM   16  C   UNL     1      25.431  46.691  50.306  1.00  0.00    -0.004 C 
HETATM   17  C   UNL     1      26.453  45.573  49.997  1.00  0.00     0.021 C 
HETATM   18  C   UNL     1      24.041  46.160  49.878  1.00  0.00     0.021 C 
BRANCH  16  19
HETATM   19  C   UNL     1      25.858  47.970  49.562  1.00  0.00    -0.046 A 
HETATM   20  C   UNL     1      24.901  48.772  48.917  1.00  0.00     0.027 A 
HETATM   21  C   UNL     1      25.304  49.919  48.249  1.00  0.00     0.116 A 
HETATM   22  N   UNL     1      26.585  50.330  48.173  1.00  0.00    -0.273 NA
HETATM   23  C   UNL     1      27.497  49.566  48.803  1.00  0.00     0.116 A 
HETATM   24  C   UNL     1      27.189  48.400  49.495  1.00  0.00     0.027 A 
ENDBRANCH  16  19
ENDBRANCH  15  16
ENDBRANCH   2  15
TORSDOF 5
ENDMDL
MODEL 2
REMARK VINA RESULT:      -8.7      0.841      2.098
REMARK  5 active torsions:
REMARK  status: ('A' for Active; 'I' for Inactive)
REMARK    1  A    between atoms: C_4  and  C_5 
REMARK       I    between atoms: C_5  and  N_6 
REMARK    2  A    between atoms: N_6  and  C_7 
REMARK    3  A    between atoms: C_7  and  C_8 
REMARK    4  A    between atoms: C_8  and  C_9 
REMARK    5  A    between atoms: C_18  and  O_19 
ROOT
HETATM    1  C   UNL     1      26.601  46.213  53.814  1.00  0.00     0.254 C 
HETATM    2  N   UNL     1      26.532  46.315  52.440  1.00  0.00    -0.356 N 
HETATM    3  O   UNL     1      25.717  46.623  54.564  1.00  0.00    -0.268 OA
HETATM    4  H   UNL     1      27.108  45.689  51.890  1.00  0.00     0.162 HD
ENDROOT
BRANCH   1   5
HETATM    5  C   UNL     1      27.791  45.530  54.394  1.00  0.00     0.066 A 
HETATM    6  C   UNL     1      28.388  44.440  53.743  1.00  0.00     0.026 A 
HETATM    7  C   UNL     1      29.504  43.801  54.299  1.00  0.00    -0.060 A 
HETATM    8  C   UNL     1      30.173  42.663  53.585  1.00  0.00     0.048 C 
HETATM    9  C   UNL     1      30.032  44.275  55.507  1.00  0.00     0.016 A 
HETATM   10  C   UNL     1      29.457  45.368  56.172  1.00  0.00    -0.027 A 
HETATM   11  C   UNL     1      28.350  46.005  55.595  1.00  0.00     0.087 A 
HETATM   12  C   UNL     1      30.082  45.878  57.440  1.00  0.00     0.051 C 
BRANCH  11  13
HETATM   13  O   UNL     1      27.848  47.105  56.247  1.00  0.00    -0.359 OA
HETATM   14  H   UNL     1      27.273  46.787  56.979  1.00  0.00     0.218 HD
ENDBRANCH  11  13
ENDBRANCH   1   5
BRANCH   2  15
HETATM   15  C   UNL     1      25.348  46.857  51.792  1.00  0.00     0.136 C 
BRANCH  15  16
HETATM   16  C   UNL     1      25.348  46.670  50.246  1.00  0.00    -0.004 C 
HETATM   17  C   UNL     1      26.320  45.520  49.894  1.00  0.00     0.021 C 
HETATM   18  C   UNL     1      23.932  46.207  49.824  1.00  0.00     0.021 C 
BRANCH  16  19
HETATM   19  C   UNL     1      25.817  47.950  49.530  1.00  0.00    -0.046 A 
HETATM   20  C   UNL     1      24.886  48.800  48.909  1.00  0.00     0.027 A 
HETATM   21  C   UNL     1      25.327  49.948  48.265  1.00  0.00     0.116 A 
HETATM   22  N   UNL     1      26.621  50.314  48.191  1.00  0.00    -0.273 NA
HETATM   23  C   UNL     1      27.508  49.503  48.798  1.00  0.00     0.116 A 
HETATM   24  C   UNL     1      27.163  48.334  49.465  1.00  0.00     0.027 A 
ENDBRANCH  16  19
ENDBRANCH  15  16
ENDBRANCH   2  15
TORSDOF 5
ENDMDL
MODEL 3
REMARK VINA RESULT:      -8.1      1.632      3.181
REMARK  5 active torsions:
REMARK  status: ('A' for Active; 'I' for Inactive)
REMARK    1  A    between atoms: C_4  and  C_5 
REMARK       I    between atoms: C_5  and  N_6 
REMARK    2  A    between atoms: N_6  and  C_7 
REMARK    3  A    between atoms: C_7  and  C_8 
REMARK    4  A    between atoms: C_8  and  C_9 
REMARK    5  A    between atoms: C_18  and  O_19 
ROOT
HETATM    1  C   UNL     1      26.498  46.094  54.008  1.00  0.00     0.254 C 
HETATM    2  N   UNL     1      26.615  46.826  52.844  1.00  0.00    -0.356 N 
HETATM    3  O   UNL     1      25.420  45.850  54.544  1.00  0.00    -0.268 OA
HETATM    4  H   UNL     1      27.461  46.714  52.298  1.00  0.00     0.162 HD
ENDROOT
BRANCH   1   5
HETATM    5  C   UNL     1      27.749  45.546  54.603  1.00  0.00     0.066 A 
HETATM    6  C   UNL     1      28.249  46.037  55.818  1.00  0.00     0.026 A 
HETATM    7  C   UNL     1      29.430  45.519  56.366  1.00  0.00    -0.060 A 
HETATM    8  C   UNL     1      29.944  46.010  57.687  1.00  0.00     0.048 C 
HETATM    9  C   UNL     1      30.099  44.487  55.696  1.00  0.00     0.016 A 
HETATM   10  C   UNL     1      29.615  43.974  54.483  1.00  0.00    -0.027 A 
HETATM   11  C   UNL     1      28.425  44.494  53.956  1.00  0.00     0.087 A 
HETATM   12  C   UNL     1      30.334  42.833  53.820  1.00  0.00     0.051 C 
BRANCH  11  13
HETATM   13  O   UNL     1      27.952  43.930  52.797  1.00  0.00    -0.359 OA
HETATM   14  H   UNL     1      28.529  43.164  52.576  1.00  0.00     0.218 HD
ENDBRANCH  11  13
ENDBRANCH   1   5
BRANCH   2  15
HETATM   15  C   UNL     1      25.433  47.290  52.136  1.00  0.00     0.136 C 
BRANCH  15  16
HETATM   16  C   UNL     1      25.415  46.888  50.631  1.00  0.00    -0.004 C 
HETATM   17  C   UNL     1      24.083  47.375  50.013  1.00  0.00     0.021 C 
HETATM   18  C   UNL     1      26.551  47.664  49.920  1.00  0.00     0.021 C 
BRANCH  16  19
HETATM   19  C   UNL     1      25.509  45.361  50.460  1.00  0.00    -0.046 A 
HETATM   20  C   UNL     1      24.585  44.515  51.098  1.00  0.00     0.027 A 
HETATM   21  C   UNL     1      24.687  43.141  50.936  1.00  0.00     0.116 A 
HETATM   22  N   UNL     1      25.636  42.543  50.189  1.00  0.00    -0.273 NA
HETATM   23  C   UNL     1      26.510  43.358  49.568  1.00  0.00     0.116 A 
HETATM   24  C   UNL     1      26.490  44.744  49.673  1.00  0.00     0.027 A 
ENDBRANCH  16  19
ENDBRANCH  15  16
ENDBRANCH   2  15
TORSDOF 5
ENDMDL
MODEL 4
REMARK VINA RESULT:      -8.1      2.153      7.474
REMARK  5 active torsions:
REMARK  status: ('A' for Active; 'I' for Inactive)
REMARK    1  A    between atoms: C_4  and  C_5 
REMARK       I    between atoms: C_5  and  N_6 
REMARK    2  A    between atoms: N_6  and  C_7 
REMARK    3  A    between atoms: C_7  and  C_8 
REMARK    4  A    between atoms: C_8  and  C_9 
REMARK    5  A    between atoms: C_18  and  O_19 
ROOT
HETATM    1  C   UNL     1      26.226  45.552  50.671  1.00  0.00     0.254 C 
HETATM    2  N   UNL     1      26.699  45.667  51.961  1.00  0.00    -0.356 N 
HETATM    3  O   UNL     1      26.193  44.487  50.058  1.00  0.00    -0.268 OA
HETATM    4  H   UNL     1      26.404  46.469  52.505  1.00  0.00     0.162 HD
ENDROOT
BRANCH   1   5
HETATM    5  C   UNL     1      25.692  46.783  50.023  1.00  0.00     0.066 A 
HETATM    6  C   UNL     1      26.547  47.821  49.625  1.00  0.00     0.026 A 
HETATM    7  C   UNL     1      26.034  48.977  49.022  1.00  0.00    -0.060 A 
HETATM    8  C   UNL     1      26.949  50.070  48.554  1.00  0.00     0.048 C 
HETATM    9  C   UNL     1      24.654  49.079  48.802  1.00  0.00     0.016 A 
HETATM   10  C   UNL     1      23.779  48.051  49.185  1.00  0.00    -0.027 A 
HETATM   11  C   UNL     1      24.311  46.895  49.774  1.00  0.00     0.087 A 
HETATM   12  C   UNL     1      22.312  48.176  48.888  1.00  0.00     0.051 C 
BRANCH  11  13
HETATM   13  O   UNL     1      23.431  45.888  50.085  1.00  0.00    -0.359 OA
HETATM   14  H   UNL     1      23.243  45.936  51.050  1.00  0.00     0.218 HD
ENDBRANCH  11  13
ENDBRANCH   1   5
BRANCH   2  15
HETATM   15  C   UNL     1      27.123  44.491  52.705  1.00  0.00     0.136 C 
BRANCH  15  16
HETATM   16  C   UNL     1      27.114  44.699  54.249  1.00  0.00    -0.004 C 
HETATM   17  C   UNL     1      26.610  46.130  54.545  1.00  0.00     0.021 C 
HETATM   18  C   UNL     1      26.076  43.722  54.853  1.00  0.00     0.021 C 
BRANCH  16  19
HETATM   19  C   UNL     1      28.527  44.541  54.841  1.00  0.00    -0.046 A 
HETATM   20  C   UNL     1      29.052  45.522  55.701  1.00  0.00     0.027 A 
HETATM   21  C   UNL     1      30.328  45.365  56.223  1.00  0.00     0.116 A 
HETATM   22  N   UNL     1      31.122  44.311  55.956  1.00  0.00    -0.273 NA
HETATM   23  C   UNL     1      30.610  43.367  55.142  1.00  0.00     0.116 A 
HETATM   24  C   UNL     1      29.345  43.437  54.570  1.00  0.00     0.027 A 
ENDBRANCH  16  19
ENDBRANCH  15  16
ENDBRANCH   2  15
TORSDOF 5
ENDMDL
MODEL 5
REMARK VINA RESULT:      -8.0      1.685      3.108
REMARK  5 active torsions:
REMARK  status: ('A' for Active; 'I' for Inactive)
REMARK    1  A    between atoms: C_4  and  C_5 
REMARK       I    between atoms: C_5  and  N_6 
REMARK    2  A    between atoms: N_6  and  C_7 
REMARK    3  A    between atoms: C_7  and  C_8 
REMARK    4  A    between atoms: C_8  and  C_9 
REMARK    5  A    between atoms: C_18  and  O_19 
ROOT
HETATM    1  C   UNL     1      26.608  46.096  53.817  1.00  0.00     0.254 C 
HETATM    2  N   UNL     1      26.497  46.101  52.442  1.00  0.00    -0.356 N 
HETATM    3  O   UNL     1      25.746  46.554  54.564  1.00  0.00    -0.268 OA
HETATM    4  H   UNL     1      27.060  45.440  51.919  1.00  0.00     0.162 HD
ENDROOT
BRANCH   1   5
HETATM    5  C   UNL     1      27.820  45.460  54.406  1.00  0.00     0.066 A 
HETATM    6  C   UNL     1      28.449  44.377  53.773  1.00  0.00     0.026 A 
HETATM    7  C   UNL     1      29.584  43.782  54.338  1.00  0.00    -0.060 A 
HETATM    8  C   UNL     1      30.286  42.652  53.642  1.00  0.00     0.048 C 
HETATM    9  C   UNL     1      30.100  44.293  55.536  1.00  0.00     0.016 A 
HETATM   10  C   UNL     1      29.494  45.379  56.183  1.00  0.00    -0.027 A 
HETATM   11  C   UNL     1      28.366  45.972  55.597  1.00  0.00     0.087 A 
HETATM   12  C   UNL     1      30.105  45.930  57.441  1.00  0.00     0.051 C 
BRANCH  11  13
HETATM   13  O   UNL     1      27.833  47.067  56.231  1.00  0.00    -0.359 OA
HETATM   14  H   UNL     1      27.508  47.689  55.541  1.00  0.00     0.218 HD
ENDBRANCH  11  13
ENDBRANCH   1   5
BRANCH   2  15
HETATM   15  C   UNL     1      25.290  46.592  51.795  1.00  0.00     0.136 C 
BRANCH  15  16
HETATM   16  C   UNL     1      25.450  46.795  50.260  1.00  0.00    -0.004 C 
HETATM   17  C   UNL     1      26.439  47.961  50.023  1.00  0.00     0.021 C 
HETATM   18  C   UNL     1      26.110  45.521  49.679  1.00  0.00     0.021 C 
BRANCH  16  19
HETATM   19  C   UNL     1      24.104  47.148  49.600  1.00  0.00    -0.046 A 
HETATM   20  C   UNL     1      23.663  48.482  49.555  1.00  0.00     0.027 A 
HETATM   21  C   UNL     1      22.446  48.782  48.959  1.00  0.00     0.116 A 
HETATM   22  N   UNL     1      21.635  47.859  48.407  1.00  0.00    -0.273 NA
HETATM   23  C   UNL     1      22.068  46.585  48.441  1.00  0.00     0.116 A 
HETATM   24  C   UNL     1      23.270  46.188  49.016  1.00  0.00     0.027 A 
ENDBRANCH  16  19
ENDBRANCH  15  16
ENDBRANCH   2  15
TORSDOF 5
ENDMDL
MODEL 6
REMARK VINA RESULT:      -7.9      2.520      4.341
REMARK  5 active torsions:
REMARK  status: ('A' for Active; 'I' for Inactive)
REMARK    1  A    between atoms: C_4  and  C_5 
REMARK       I    between atoms: C_5  and  N_6 
REMARK    2  A    between atoms: N_6  and  C_7 
REMARK    3  A    between atoms: C_7  and  C_8 
REMARK    4  A    between atoms: C_8  and  C_9 
REMARK    5  A    between atoms: C_18  and  O_19 
ROOT
HETATM    1  C   UNL     1      28.673  42.165  53.198  1.00  0.00     0.254 C 
HETATM    2  N   UNL     1      28.584  42.577  51.884  1.00  0.00    -0.356 N 
HETATM    3  O   UNL     1      28.415  41.021  53.563  1.00  0.00    -0.268 OA
HETATM    4  H   UNL     1      29.106  43.400  51.609  1.00  0.00     0.162 HD
ENDROOT
BRANCH   1   5
HETATM    5  C   UNL     1      29.150  43.160  54.198  1.00  0.00     0.066 A 
HETATM    6  C   UNL     1      30.216  42.865  55.062  1.00  0.00     0.026 A 
HETATM    7  C   UNL     1      30.653  43.806  56.003  1.00  0.00    -0.060 A 
HETATM    8  C   UNL     1      31.820  43.512  56.899  1.00  0.00     0.048 C 
HETATM    9  C   UNL     1      30.026  45.058  56.061  1.00  0.00     0.016 A 
HETATM   10  C   UNL     1      28.964  45.379  55.203  1.00  0.00    -0.027 A 
HETATM   11  C   UNL     1      28.548  44.431  54.257  1.00  0.00     0.087 A 
HETATM   12  C   UNL     1      28.350  46.750  55.262  1.00  0.00     0.051 C 
BRANCH  11  13
HETATM   13  O   UNL     1      27.543  44.801  53.398  1.00  0.00    -0.359 OA
HETATM   14  H   UNL     1      27.031  45.525  53.824  1.00  0.00     0.218 HD
ENDBRANCH  11  13
ENDBRANCH   1   5
BRANCH   2  15
HETATM   15  C   UNL     1      28.245  41.633  50.830  1.00  0.00     0.136 C 
BRANCH  15  16
HETATM   16  C   UNL     1      26.841  41.882  50.205  1.00  0.00    -0.004 C 
HETATM   17  C   UNL     1      26.955  41.721  48.671  1.00  0.00     0.021 C 
HETATM   18  C   UNL     1      25.894  40.763  50.704  1.00  0.00     0.021 C 
BRANCH  16  19
HETATM   19  C   UNL     1      26.335  43.302  50.516  1.00  0.00    -0.046 A 
HETATM   20  C   UNL     1      25.249  43.496  51.388  1.00  0.00     0.027 A 
HETATM   21  C   UNL     1      24.805  44.783  51.654  1.00  0.00     0.116 A 
HETATM   22  N   UNL     1      25.355  45.891  51.122  1.00  0.00    -0.273 NA
HETATM   23  C   UNL     1      26.403  45.702  50.298  1.00  0.00     0.116 A 
HETATM   24  C   UNL     1      26.918  44.453  49.970  1.00  0.00     0.027 A 
ENDBRANCH  16  19
ENDBRANCH  15  16
ENDBRANCH   2  15
TORSDOF 5
ENDMDL
MODEL 7
REMARK VINA RESULT:      -7.8      1.486      2.302
REMARK  5 active torsions:
REMARK  status: ('A' for Active; 'I' for Inactive)
REMARK    1  A    between atoms: C_4  and  C_5 
REMARK       I    between atoms: C_5  and  N_6 
REMARK    2  A    between atoms: N_6  and  C_7 
REMARK    3  A    between atoms: C_7  and  C_8 
REMARK    4  A    between atoms: C_8  and  C_9 
REMARK    5  A    between atoms: C_18  and  O_19 
ROOT
HETATM    1  C   UNL     1      26.598  46.198  53.863  1.00  0.00     0.254 C 
HETATM    2  N   UNL     1      26.501  46.195  52.487  1.00  0.00    -0.356 N 
HETATM    3  O   UNL     1      25.721  46.646  54.598  1.00  0.00    -0.268 OA
HETATM    4  H   UNL     1      27.079  45.540  51.972  1.00  0.00     0.162 HD
ENDROOT
BRANCH   1   5
HETATM    5  C   UNL     1      27.813  45.583  54.467  1.00  0.00     0.066 A 
HETATM    6  C   UNL     1      28.351  46.072  55.667  1.00  0.00     0.026 A 
HETATM    7  C   UNL     1      29.498  45.490  56.224  1.00  0.00    -0.060 A 
HETATM    8  C   UNL     1      30.052  45.981  57.529  1.00  0.00     0.048 C 
HETATM    9  C   UNL     1      30.093  44.397  55.579  1.00  0.00     0.016 A 
HETATM   10  C   UNL     1      29.568  43.886  54.382  1.00  0.00    -0.027 A 
HETATM   11  C   UNL     1      28.412  44.471  53.846  1.00  0.00     0.087 A 
HETATM   12  C   UNL     1      30.205  42.683  53.747  1.00  0.00     0.051 C 
BRANCH  11  13
HETATM   13  O   UNL     1      27.896  43.909  52.704  1.00  0.00    -0.359 OA
HETATM   14  H   UNL     1      27.854  44.608  52.014  1.00  0.00     0.218 HD
ENDBRANCH  11  13
ENDBRANCH   1   5
BRANCH   2  15
HETATM   15  C   UNL     1      25.294  46.664  51.825  1.00  0.00     0.136 C 
BRANCH  15  16
HETATM   16  C   UNL     1      25.455  46.826  50.284  1.00  0.00    -0.004 C 
HETATM   17  C   UNL     1      26.434  47.993  50.017  1.00  0.00     0.021 C 
HETATM   18  C   UNL     1      26.128  45.542  49.740  1.00  0.00     0.021 C 
BRANCH  16  19
HETATM   19  C   UNL     1      24.108  47.148  49.613  1.00  0.00    -0.046 A 
HETATM   20  C   UNL     1      23.628  48.470  49.578  1.00  0.00     0.027 A 
HETATM   21  C   UNL     1      22.410  48.742  48.972  1.00  0.00     0.116 A 
HETATM   22  N   UNL     1      21.633  47.803  48.397  1.00  0.00    -0.273 NA
HETATM   23  C   UNL     1      22.103  46.541  48.420  1.00  0.00     0.116 A 
HETATM   24  C   UNL     1      23.309  46.172  49.006  1.00  0.00     0.027 A 
ENDBRANCH  16  19
ENDBRANCH  15  16
ENDBRANCH   2  15
TORSDOF 5
ENDMDL
MODEL 8
REMARK VINA RESULT:      -7.7      4.992      7.692
REMARK  5 active torsions:
REMARK  status: ('A' for Active; 'I' for Inactive)
REMARK    1  A    between atoms: C_4  and  C_5 
REMARK       I    between atoms: C_5  and  N_6 
REMARK    2  A    between atoms: N_6  and  C_7 
REMARK    3  A    between atoms: C_7  and  C_8 
REMARK    4  A    between atoms: C_8  and  C_9 
REMARK    5  A    between atoms: C_18  and  O_19 
ROOT
HETATM    1  C   UNL     1      23.246  50.068  48.171  1.00  0.00     0.254 C 
HETATM    2  N   UNL     1      22.262  50.541  49.014  1.00  0.00    -0.356 N 
HETATM    3  O   UNL     1      23.302  50.352  46.977  1.00  0.00    -0.268 OA
HETATM    4  H   UNL     1      22.451  50.541  50.010  1.00  0.00     0.162 HD
ENDROOT
BRANCH   1   5
HETATM    5  C   UNL     1      24.307  49.209  48.768  1.00  0.00     0.066 A 
HETATM    6  C   UNL     1      25.660  49.571  48.689  1.00  0.00     0.026 A 
HETATM    7  C   UNL     1      26.651  48.754  49.248  1.00  0.00    -0.060 A 
HETATM    8  C   UNL     1      28.096  49.158  49.205  1.00  0.00     0.048 C 
HETATM    9  C   UNL     1      26.275  47.576  49.908  1.00  0.00     0.016 A 
HETATM   10  C   UNL     1      24.927  47.197  50.006  1.00  0.00    -0.027 A 
HETATM   11  C   UNL     1      23.948  48.034  49.453  1.00  0.00     0.087 A 
HETATM   12  C   UNL     1      24.560  45.953  50.764  1.00  0.00     0.051 C 
BRANCH  11  13
HETATM   13  O   UNL     1      22.637  47.659  49.617  1.00  0.00    -0.359 OA
HETATM   14  H   UNL     1      22.365  47.152  48.820  1.00  0.00     0.218 HD
ENDBRANCH  11  13
ENDBRANCH   1   5
BRANCH   2  15
HETATM   15  C   UNL     1      21.262  51.483  48.536  1.00  0.00     0.136 C 
BRANCH  15  16
HETATM   16  C   UNL     1      19.800  51.039  48.838  1.00  0.00    -0.004 C 
HETATM   17  C   UNL     1      19.592  51.059  50.371  1.00  0.00     0.021 C 
HETATM   18  C   UNL     1      18.848  52.105  48.241  1.00  0.00     0.021 C 
BRANCH  16  19
HETATM   19  C   UNL     1      19.531  49.614  48.322  1.00  0.00    -0.046 A 
HETATM   20  C   UNL     1      19.237  48.575  49.223  1.00  0.00     0.027 A 
HETATM   21  C   UNL     1      19.000  47.295  48.741  1.00  0.00     0.116 A 
HETATM   22  N   UNL     1      19.033  46.969  47.435  1.00  0.00    -0.273 NA
HETATM   23  C   UNL     1      19.301  47.970  46.575  1.00  0.00     0.116 A 
HETATM   24  C   UNL     1      19.554  49.281  46.962  1.00  0.00     0.027 A 
ENDBRANCH  16  19
ENDBRANCH  15  16
ENDBRANCH   2  15
TORSDOF 5
ENDMDL
MODEL 9
REMARK VINA RESULT:      -7.6      5.068      7.782
REMARK  5 active torsions:
REMARK  status: ('A' for Active; 'I' for Inactive)
REMARK    1  A    between atoms: C_4  and  C_5 
REMARK       I    between atoms: C_5  and  N_6 
REMARK    2  A    between atoms: N_6  and  C_7 
REMARK    3  A    between atoms: C_7  and  C_8 
REMARK    4  A    between atoms: C_8  and  C_9 
REMARK    5  A    between atoms: C_18  and  O_19 
ROOT
HETATM    1  C   UNL     1      22.867  49.078  48.342  1.00  0.00     0.254 C 
HETATM    2  N   UNL     1      22.410  50.341  48.657  1.00  0.00    -0.356 N 
HETATM    3  O   UNL     1      22.329  48.356  47.506  1.00  0.00    -0.268 OA
HETATM    4  H   UNL     1      23.060  50.986  49.090  1.00  0.00     0.162 HD
ENDROOT
BRANCH   1   5
HETATM    5  C   UNL     1      24.101  48.604  49.029  1.00  0.00     0.066 A 
HETATM    6  C   UNL     1      24.053  47.565  49.970  1.00  0.00     0.026 A 
HETATM    7  C   UNL     1      25.218  47.130  50.615  1.00  0.00    -0.060 A 
HETATM    8  C   UNL     1      25.178  45.990  51.589  1.00  0.00     0.048 C 
HETATM    9  C   UNL     1      26.442  47.733  50.295  1.00  0.00     0.016 A 
HETATM   10  C   UNL     1      26.517  48.770  49.352  1.00  0.00    -0.027 A 
HETATM   11  C   UNL     1      25.343  49.182  48.706  1.00  0.00     0.087 A 
HETATM   12  C   UNL     1      27.854  49.357  49.000  1.00  0.00     0.051 C 
BRANCH  11  13
HETATM   13  O   UNL     1      25.464  50.160  47.750  1.00  0.00    -0.359 OA
HETATM   14  H   UNL     1      26.303  50.646  47.917  1.00  0.00     0.218 HD
ENDBRANCH  11  13
ENDBRANCH   1   5
BRANCH   2  15
HETATM   15  C   UNL     1      21.285  50.923  47.942  1.00  0.00     0.136 C 
BRANCH  15  16
HETATM   16  C   UNL     1      19.969  50.952  48.775  1.00  0.00    -0.004 C 
HETATM   17  C   UNL     1      20.344  50.956  50.276  1.00  0.00     0.021 C 
HETATM   18  C   UNL     1      19.254  52.294  48.487  1.00  0.00     0.021 C 
BRANCH  16  19
HETATM   19  C   UNL     1      19.099  49.715  48.487  1.00  0.00    -0.046 A 
HETATM   20  C   UNL     1      18.824  49.331  47.163  1.00  0.00     0.027 A 
HETATM   21  C   UNL     1      18.035  48.216  46.922  1.00  0.00     0.116 A 
HETATM   22  N   UNL     1      17.500  47.453  47.894  1.00  0.00    -0.273 NA
HETATM   23  C   UNL     1      17.777  47.816  49.161  1.00  0.00     0.116 A 
HETATM   24  C   UNL     1      18.554  48.917  49.501  1.00  0.00     0.027 A 
ENDBRANCH  16  19
ENDBRANCH  15  16
ENDBRANCH   2  15
TORSDOF 5
ENDMDL
MODEL 10
REMARK VINA RESULT:      -7.4      4.523      7.744
REMARK  5 active torsions:
REMARK  status: ('A' for Active; 'I' for Inactive)
REMARK    1  A    between atoms: C_4  and  C_5 
REMARK       I    between atoms: C_5  and  N_6 
REMARK    2  A    between atoms: N_6  and  C_7 
REMARK    3  A    between atoms: C_7  and  C_8 
REMARK    4  A    between atoms: C_8  and  C_9 
REMARK    5  A    between atoms: C_18  and  O_19 
ROOT
HETATM    1  C   UNL     1      27.563  41.919  50.680  1.00  0.00     0.254 C 
HETATM    2  N   UNL     1      28.485  42.468  51.547  1.00  0.00    -0.356 N 
HETATM    3  O   UNL     1      26.433  42.375  50.522  1.00  0.00    -0.268 OA
HETATM    4  H   UNL     1      29.464  42.257  51.394  1.00  0.00     0.162 HD
ENDROOT
BRANCH   1   5
HETATM    5  C   UNL     1      27.995  40.742  49.875  1.00  0.00     0.066 A 
HETATM    6  C   UNL     1      27.733  40.673  48.498  1.00  0.00     0.026 A 
HETATM    7  C   UNL     1      28.138  39.559  47.750  1.00  0.00    -0.060 A 
HETATM    8  C   UNL     1      27.899  39.500  46.270  1.00  0.00     0.048 C 
HETATM    9  C   UNL     1      28.827  38.520  48.389  1.00  0.00     0.016 A 
HETATM   10  C   UNL     1      29.107  38.571  49.763  1.00  0.00    -0.027 A 
HETATM   11  C   UNL     1      28.707  39.699  50.493  1.00  0.00     0.087 A 
HETATM   12  C   UNL     1      29.892  37.460  50.402  1.00  0.00     0.051 C 
BRANCH  11  13
HETATM   13  O   UNL     1      29.047  39.737  51.823  1.00  0.00    -0.359 OA
HETATM   14  H   UNL     1      28.346  39.269  52.329  1.00  0.00     0.218 HD
ENDBRANCH  11  13
ENDBRANCH   1   5
BRANCH   2  15
HETATM   15  C   UNL     1      28.184  43.689  52.278  1.00  0.00     0.136 C 
BRANCH  15  16
HETATM   16  C   UNL     1      27.813  43.443  53.770  1.00  0.00    -0.004 C 
HETATM   17  C   UNL     1      26.369  43.946  54.003  1.00  0.00     0.021 C 
HETATM   18  C   UNL     1      27.799  41.913  54.008  1.00  0.00     0.021 C 
BRANCH  16  19
HETATM   19  C   UNL     1      28.760  44.206  54.714  1.00  0.00    -0.046 A 
HETATM   20  C   UNL     1      30.009  43.661  55.062  1.00  0.00     0.027 A 
HETATM   21  C   UNL     1      30.849  44.361  55.916  1.00  0.00     0.116 A 
HETATM   22  N   UNL     1      30.543  45.559  56.451  1.00  0.00    -0.273 NA
HETATM   23  C   UNL     1      29.352  46.083  56.104  1.00  0.00     0.116 A 
HETATM   24  C   UNL     1      28.444  45.457  55.258  1.00  0.00     0.027 A 
ENDBRANCH  16  19
ENDBRANCH  15  16
ENDBRANCH   2  15
TORSDOF 5
ENDMDL
