MODEL 1
REMARK VINA RESULT:      -7.6      0.000      0.000
REMARK  4 active torsions:
REMARK  status: ('A' for Active; 'I' for Inactive)
REMARK    1  A    between atoms: C_2  and  C_3 
REMARK    2  A    between atoms: C_4  and  N_5 
REMARK       I    between atoms: N_5  and  C_6 
REMARK       I    between atoms: C_6  and  N_7 
REMARK    3  A    between atoms: C_8  and  C_9 
REMARK    4  A    between atoms: C_21  and  C_22 
ROOT
HETATM    1  N   UNL     1      25.851  45.194  49.203  1.00  0.00    -0.209 NA
HETATM    2  C   UNL     1      26.701  44.799  50.200  1.00  0.00     0.301 C 
HETATM    3  N   UNL     1      26.220  44.528  51.455  1.00  0.00    -0.330 N 
HETATM    4  C   UNL     1      27.110  44.008  52.497  1.00  0.00     0.125 C 
HETATM    5  C   UNL     1      26.219  43.866  53.739  1.00  0.00     0.032 C 
HETATM    6  C   UNL     1      25.162  44.933  53.530  1.00  0.00     0.022 C 
HETATM    7  C   UNL     1      24.928  44.887  52.027  1.00  0.00     0.128 C 
HETATM    8  O   UNL     1      27.881  44.622  49.886  1.00  0.00    -0.254 OA
HETATM    9  H   UNL     1      26.449  45.293  48.388  1.00  0.00     0.138 HD
ENDROOT
BRANCH   1  10
HETATM   10  C   UNL     1      24.945  46.273  49.277  1.00  0.00     0.029 A 
HETATM   11  C   UNL     1      25.410  47.592  49.512  1.00  0.00    -0.036 A 
HETATM   12  C   UNL     1      24.479  48.641  49.590  1.00  0.00     0.009 A 
HETATM   13  C   UNL     1      23.125  48.408  49.394  1.00  0.00     0.001 A 
HETATM   14  C   UNL     1      22.685  47.125  49.089  1.00  0.00     0.009 A 
HETATM   15  C   UNL     1      23.576  46.032  49.013  1.00  0.00    -0.036 A 
BRANCH  11  16
HETATM   16  C   UNL     1      26.875  47.964  49.638  1.00  0.00     0.036 C 
HETATM   17  C   UNL     1      27.222  49.259  48.919  1.00  0.00     0.010 C 
ENDBRANCH  11  16
BRANCH  15  18
HETATM   18  C   UNL     1      22.954  44.727  48.548  1.00  0.00     0.036 C 
HETATM   19  C   UNL     1      22.621  43.624  49.539  1.00  0.00     0.010 C 
ENDBRANCH  15  18
ENDBRANCH   1  10
BRANCH   4  20
HETATM   20  C   UNL     1      27.774  42.705  52.159  1.00  0.00     0.014 A 
HETATM   21  C   UNL     1      27.262  41.566  51.469  1.00  0.00     0.061 A 
HETATM   22  C   UNL     1      25.928  41.371  50.851  1.00  0.00     0.073 C 
HETATM   23  N   UNL     1      28.161  40.576  51.399  1.00  0.00    -0.179 NA
HETATM   24  N   UNL     1      29.248  41.080  51.991  1.00  0.00    -0.282 N 
HETATM   25  H   UNL     1      30.082  40.505  52.025  1.00  0.00     0.189 HD
HETATM   26  C   UNL     1      29.068  42.334  52.495  1.00  0.00     0.034 A 
HETATM   27  C   UNL     1      30.141  43.056  53.217  1.00  0.00     0.070 C 
ENDBRANCH   4  20
TORSDOF 4
ENDMDL
MODEL 2
REMARK VINA RESULT:      -7.3      0.308      2.671
REMARK  4 active torsions:
REMARK  status: ('A' for Active; 'I' for Inactive)
REMARK    1  A    between atoms: C_2  and  C_3 
REMARK    2  A    between atoms: C_4  and  N_5 
REMARK       I    between atoms: N_5  and  C_6 
REMARK       I    between atoms: C_6  and  N_7 
REMARK    3  A    between atoms: C_8  and  C_9 
REMARK    4  A    between atoms: C_21  and  C_22 
ROOT
HETATM    1  N   UNL     1      25.806  45.159  49.145  1.00  0.00    -0.209 NA
HETATM    2  C   UNL     1      26.656  44.793  50.154  1.00  0.00     0.301 C 
HETATM    3  N   UNL     1      26.169  44.522  51.407  1.00  0.00    -0.330 N 
HETATM    4  C   UNL     1      27.061  44.033  52.463  1.00  0.00     0.125 C 
HETATM    5  C   UNL     1      26.161  43.880  53.697  1.00  0.00     0.032 C 
HETATM    6  C   UNL     1      25.081  44.919  53.468  1.00  0.00     0.022 C 
HETATM    7  C   UNL     1      24.863  44.855  51.963  1.00  0.00     0.128 C 
HETATM    8  O   UNL     1      27.842  44.642  49.854  1.00  0.00    -0.254 OA
HETATM    9  H   UNL     1      26.410  45.265  48.336  1.00  0.00     0.138 HD
ENDROOT
BRANCH   1  10
HETATM   10  C   UNL     1      24.874  46.217  49.201  1.00  0.00     0.029 A 
HETATM   11  C   UNL     1      23.489  45.969  49.029  1.00  0.00    -0.036 A 
HETATM   12  C   UNL     1      22.590  47.048  49.081  1.00  0.00     0.009 A 
HETATM   13  C   UNL     1      23.037  48.335  49.343  1.00  0.00     0.001 A 
HETATM   14  C   UNL     1      24.388  48.558  49.586  1.00  0.00     0.009 A 
HETATM   15  C   UNL     1      25.335  47.513  49.532  1.00  0.00    -0.036 A 
BRANCH  11  16
HETATM   16  C   UNL     1      22.892  44.588  48.839  1.00  0.00     0.036 C 
HETATM   17  C   UNL     1      22.744  44.202  47.374  1.00  0.00     0.010 C 
ENDBRANCH  11  16
BRANCH  15  18
HETATM   18  C   UNL     1      26.745  47.901  49.944  1.00  0.00     0.036 C 
HETATM   19  C   UNL     1      27.553  48.891  49.122  1.00  0.00     0.010 C 
ENDBRANCH  15  18
ENDBRANCH   1  10
BRANCH   4  20
HETATM   20  C   UNL     1      27.758  42.743  52.143  1.00  0.00     0.014 A 
HETATM   21  C   UNL     1      27.281  41.586  51.458  1.00  0.00     0.061 A 
HETATM   22  C   UNL     1      25.958  41.353  50.829  1.00  0.00     0.073 C 
HETATM   23  N   UNL     1      28.204  40.617  51.406  1.00  0.00    -0.179 NA
HETATM   24  N   UNL     1      29.273  41.153  52.003  1.00  0.00    -0.282 N 
HETATM   25  H   UNL     1      30.120  40.598  52.050  1.00  0.00     0.189 HD
HETATM   26  C   UNL     1      29.058  42.406  52.494  1.00  0.00     0.034 A 
HETATM   27  C   UNL     1      30.107  43.160  53.220  1.00  0.00     0.070 C 
ENDBRANCH   4  20
TORSDOF 4
ENDMDL
MODEL 3
REMARK VINA RESULT:      -7.1     12.553     14.116
REMARK  4 active torsions:
REMARK  status: ('A' for Active; 'I' for Inactive)
REMARK    1  A    between atoms: C_2  and  C_3 
REMARK    2  A    between atoms: C_4  and  N_5 
REMARK       I    between atoms: N_5  and  C_6 
REMARK       I    between atoms: C_6  and  N_7 
REMARK    3  A    between atoms: C_8  and  C_9 
REMARK    4  A    between atoms: C_21  and  C_22 
ROOT
HETATM    1  N   UNL     1      30.733  49.968  38.224  1.00  0.00    -0.209 NA
HETATM    2  C   UNL     1      31.608  50.860  38.782  1.00  0.00     0.301 C 
HETATM    3  N   UNL     1      31.676  51.007  40.144  1.00  0.00    -0.330 N 
HETATM    4  C   UNL     1      32.681  51.886  40.749  1.00  0.00     0.125 C 
HETATM    5  C   UNL     1      32.417  51.803  42.258  1.00  0.00     0.032 C 
HETATM    6  C   UNL     1      30.933  51.499  42.333  1.00  0.00     0.022 C 
HETATM    7  C   UNL     1      30.719  50.564  41.151  1.00  0.00     0.128 C 
HETATM    8  O   UNL     1      32.373  51.444  38.010  1.00  0.00    -0.254 OA
HETATM    9  H   UNL     1      30.909  50.035  37.226  1.00  0.00     0.138 HD
ENDROOT
BRANCH   1  10
HETATM   10  C   UNL     1      29.344  49.917  38.473  1.00  0.00     0.029 A 
HETATM   11  C   UNL     1      28.556  51.093  38.407  1.00  0.00    -0.036 A 
HETATM   12  C   UNL     1      27.178  51.007  38.670  1.00  0.00     0.009 A 
HETATM   13  C   UNL     1      26.580  49.785  38.945  1.00  0.00     0.001 A 
HETATM   14  C   UNL     1      27.348  48.625  38.932  1.00  0.00     0.009 A 
HETATM   15  C   UNL     1      28.738  48.657  38.688  1.00  0.00    -0.036 A 
BRANCH  11  16
HETATM   16  C   UNL     1      29.095  52.455  38.018  1.00  0.00     0.036 C 
HETATM   17  C   UNL     1      29.103  53.444  39.175  1.00  0.00     0.010 C 
ENDBRANCH  11  16
BRANCH  15  18
HETATM   18  C   UNL     1      29.403  47.296  38.585  1.00  0.00     0.036 C 
HETATM   19  C   UNL     1      30.221  46.738  39.738  1.00  0.00     0.010 C 
ENDBRANCH  15  18
ENDBRANCH   1  10
BRANCH   4  20
HETATM   20  C   UNL     1      34.101  51.522  40.430  1.00  0.00     0.014 A 
HETATM   21  C   UNL     1      35.121  52.281  39.781  1.00  0.00     0.061 A 
HETATM   22  C   UNL     1      35.066  53.674  39.275  1.00  0.00     0.073 C 
HETATM   23  N   UNL     1      36.258  51.586  39.650  1.00  0.00    -0.179 NA
HETATM   24  N   UNL     1      35.995  50.416  40.242  1.00  0.00    -0.282 N 
HETATM   25  H   UNL     1      36.739  49.730  40.291  1.00  0.00     0.189 HD
HETATM   26  C   UNL     1      34.714  50.306  40.697  1.00  0.00     0.034 A 
HETATM   27  C   UNL     1      34.215  49.076  41.355  1.00  0.00     0.070 C 
ENDBRANCH   4  20
TORSDOF 4
ENDMDL
MODEL 4
REMARK VINA RESULT:      -7.0     12.471     14.235
REMARK  4 active torsions:
REMARK  status: ('A' for Active; 'I' for Inactive)
REMARK    1  A    between atoms: C_2  and  C_3 
REMARK    2  A    between atoms: C_4  and  N_5 
REMARK       I    between atoms: N_5  and  C_6 
REMARK       I    between atoms: C_6  and  N_7 
REMARK    3  A    between atoms: C_8  and  C_9 
REMARK    4  A    between atoms: C_21  and  C_22 
ROOT
HETATM    1  N   UNL     1      30.861  49.754  38.380  1.00  0.00    -0.209 NA
HETATM    2  C   UNL     1      31.668  50.755  38.850  1.00  0.00     0.301 C 
HETATM    3  N   UNL     1      31.741  51.013  40.195  1.00  0.00    -0.330 N 
HETATM    4  C   UNL     1      32.679  52.014  40.711  1.00  0.00     0.125 C 
HETATM    5  C   UNL     1      32.442  52.030  42.227  1.00  0.00     0.032 C 
HETATM    6  C   UNL     1      30.989  51.614  42.354  1.00  0.00     0.022 C 
HETATM    7  C   UNL     1      30.837  50.576  41.251  1.00  0.00     0.128 C 
HETATM    8  O   UNL     1      32.373  51.335  38.021  1.00  0.00    -0.254 OA
HETATM    9  H   UNL     1      31.018  49.757  37.376  1.00  0.00     0.138 HD
ENDROOT
BRANCH   1  10
HETATM   10  C   UNL     1      29.485  49.612  38.658  1.00  0.00     0.029 A 
HETATM   11  C   UNL     1      28.985  48.420  39.241  1.00  0.00    -0.036 A 
HETATM   12  C   UNL     1      27.608  48.309  39.495  1.00  0.00     0.009 A 
HETATM   13  C   UNL     1      26.746  49.363  39.226  1.00  0.00     0.001 A 
HETATM   14  C   UNL     1      27.256  50.557  38.725  1.00  0.00     0.009 A 
HETATM   15  C   UNL     1      28.629  50.716  38.438  1.00  0.00    -0.036 A 
BRANCH  11  16
HETATM   16  C   UNL     1      29.856  47.253  39.664  1.00  0.00     0.036 C 
HETATM   17  C   UNL     1      29.215  45.902  39.385  1.00  0.00     0.010 C 
ENDBRANCH  11  16
BRANCH  15  18
HETATM   18  C   UNL     1      29.039  52.117  38.017  1.00  0.00     0.036 C 
HETATM   19  C   UNL     1      29.059  53.259  39.019  1.00  0.00     0.010 C 
ENDBRANCH  15  18
ENDBRANCH   1  10
BRANCH   4  20
HETATM   20  C   UNL     1      34.121  51.741  40.395  1.00  0.00     0.014 A 
HETATM   21  C   UNL     1      34.925  50.601  40.690  1.00  0.00     0.061 A 
HETATM   22  C   UNL     1      34.541  49.336  41.364  1.00  0.00     0.073 C 
HETATM   23  N   UNL     1      36.188  50.754  40.270  1.00  0.00    -0.179 NA
HETATM   24  N   UNL     1      36.189  51.951  39.673  1.00  0.00    -0.282 N 
HETATM   25  H   UNL     1      37.051  52.267  39.243  1.00  0.00     0.189 HD
HETATM   26  C   UNL     1      34.993  52.602  39.746  1.00  0.00     0.034 A 
HETATM   27  C   UNL     1      34.797  53.955  39.174  1.00  0.00     0.070 C 
ENDBRANCH   4  20
TORSDOF 4
ENDMDL
MODEL 5
REMARK VINA RESULT:      -6.8     17.587     19.895
REMARK  4 active torsions:
REMARK  status: ('A' for Active; 'I' for Inactive)
REMARK    1  A    between atoms: C_2  and  C_3 
REMARK    2  A    between atoms: C_4  and  N_5 
REMARK       I    between atoms: N_5  and  C_6 
REMARK       I    between atoms: C_6  and  N_7 
REMARK    3  A    between atoms: C_8  and  C_9 
REMARK    4  A    between atoms: C_21  and  C_22 
ROOT
HETATM    1  N   UNL     1      36.854  45.482  64.404  1.00  0.00    -0.209 NA
HETATM    2  C   UNL     1      36.931  46.362  65.450  1.00  0.00     0.301 C 
HETATM    3  N   UNL     1      38.042  46.389  66.254  1.00  0.00    -0.330 N 
HETATM    4  C   UNL     1      38.173  47.395  67.311  1.00  0.00     0.125 C 
HETATM    5  C   UNL     1      39.512  47.079  67.991  1.00  0.00     0.032 C 
HETATM    6  C   UNL     1      39.666  45.587  67.774  1.00  0.00     0.022 C 
HETATM    7  C   UNL     1      39.095  45.388  66.377  1.00  0.00     0.128 C 
HETATM    8  O   UNL     1      36.004  47.166  65.569  1.00  0.00    -0.254 OA
HETATM    9  H   UNL     1      35.963  45.693  63.966  1.00  0.00     0.138 HD
ENDROOT
BRANCH   1  10
HETATM   10  C   UNL     1      37.037  44.086  64.492  1.00  0.00     0.029 A 
HETATM   11  C   UNL     1      36.104  43.278  65.190  1.00  0.00    -0.036 A 
HETATM   12  C   UNL     1      36.323  41.892  65.266  1.00  0.00     0.009 A 
HETATM   13  C   UNL     1      37.409  41.306  64.630  1.00  0.00     0.001 A 
HETATM   14  C   UNL     1      38.277  42.096  63.884  1.00  0.00     0.009 A 
HETATM   15  C   UNL     1      38.112  43.495  63.787  1.00  0.00    -0.036 A 
BRANCH  11  16
HETATM   16  C   UNL     1      34.836  43.807  65.831  1.00  0.00     0.036 C 
HETATM   17  C   UNL     1      33.752  42.748  65.966  1.00  0.00     0.010 C 
ENDBRANCH  11  16
BRANCH  15  18
HETATM   18  C   UNL     1      39.069  44.191  62.835  1.00  0.00     0.036 C 
HETATM   19  C   UNL     1      40.560  44.245  63.129  1.00  0.00     0.010 C 
ENDBRANCH  15  18
ENDBRANCH   1  10
BRANCH   4  20
HETATM   20  C   UNL     1      38.136  48.816  66.828  1.00  0.00     0.014 A 
HETATM   21  C   UNL     1      38.823  49.434  65.741  1.00  0.00     0.061 A 
HETATM   22  C   UNL     1      39.741  48.823  64.749  1.00  0.00     0.073 C 
HETATM   23  N   UNL     1      38.553  50.743  65.655  1.00  0.00    -0.179 NA
HETATM   24  N   UNL     1      37.673  50.959  66.639  1.00  0.00    -0.282 N 
HETATM   25  H   UNL     1      37.297  51.894  66.744  1.00  0.00     0.189 HD
HETATM   26  C   UNL     1      37.412  49.855  67.395  1.00  0.00     0.034 A 
HETATM   27  C   UNL     1      36.489  49.892  68.553  1.00  0.00     0.070 C 
ENDBRANCH   4  20
TORSDOF 4
ENDMDL
MODEL 6
REMARK VINA RESULT:      -6.8     17.794     19.836
REMARK  4 active torsions:
REMARK  status: ('A' for Active; 'I' for Inactive)
REMARK    1  A    between atoms: C_2  and  C_3 
REMARK    2  A    between atoms: C_4  and  N_5 
REMARK       I    between atoms: N_5  and  C_6 
REMARK       I    between atoms: C_6  and  N_7 
REMARK    3  A    between atoms: C_8  and  C_9 
REMARK    4  A    between atoms: C_21  and  C_22 
ROOT
HETATM    1  N   UNL     1      36.716  45.824  64.345  1.00  0.00    -0.209 NA
HETATM    2  C   UNL     1      36.815  46.679  65.409  1.00  0.00     0.301 C 
HETATM    3  N   UNL     1      37.924  46.656  66.216  1.00  0.00    -0.330 N 
HETATM    4  C   UNL     1      38.080  47.636  67.294  1.00  0.00     0.125 C 
HETATM    5  C   UNL     1      39.407  47.267  67.971  1.00  0.00     0.032 C 
HETATM    6  C   UNL     1      39.518  45.776  67.723  1.00  0.00     0.022 C 
HETATM    7  C   UNL     1      38.946  45.622  66.321  1.00  0.00     0.128 C 
HETATM    8  O   UNL     1      35.912  47.508  65.541  1.00  0.00    -0.254 OA
HETATM    9  H   UNL     1      35.832  46.070  63.908  1.00  0.00     0.138 HD
ENDROOT
BRANCH   1  10
HETATM   10  C   UNL     1      36.857  44.421  64.404  1.00  0.00     0.029 A 
HETATM   11  C   UNL     1      37.866  43.764  63.655  1.00  0.00    -0.036 A 
HETATM   12  C   UNL     1      37.972  42.365  63.730  1.00  0.00     0.009 A 
HETATM   13  C   UNL     1      37.135  41.631  64.560  1.00  0.00     0.001 A 
HETATM   14  C   UNL     1      36.198  42.290  65.349  1.00  0.00     0.009 A 
HETATM   15  C   UNL     1      36.041  43.692  65.300  1.00  0.00    -0.036 A 
BRANCH  11  16
HETATM   16  C   UNL     1      38.891  44.484  62.800  1.00  0.00     0.036 C 
HETATM   17  C   UNL     1      40.325  44.151  63.186  1.00  0.00     0.010 C 
ENDBRANCH  11  16
BRANCH  15  18
HETATM   18  C   UNL     1      35.064  44.264  66.313  1.00  0.00     0.036 C 
HETATM   19  C   UNL     1      35.474  44.474  67.761  1.00  0.00     0.010 C 
ENDBRANCH  15  18
ENDBRANCH   1  10
BRANCH   4  20
HETATM   20  C   UNL     1      38.088  49.067  66.840  1.00  0.00     0.014 A 
HETATM   21  C   UNL     1      38.776  49.682  65.752  1.00  0.00     0.061 A 
HETATM   22  C   UNL     1      39.651  49.058  64.730  1.00  0.00     0.073 C 
HETATM   23  N   UNL     1      38.553  51.001  65.698  1.00  0.00    -0.179 NA
HETATM   24  N   UNL     1      37.701  51.229  66.703  1.00  0.00    -0.282 N 
HETATM   25  H   UNL     1      37.362  52.175  66.835  1.00  0.00     0.189 HD
HETATM   26  C   UNL     1      37.413  50.120  67.442  1.00  0.00     0.034 A 
HETATM   27  C   UNL     1      36.516  50.168  68.620  1.00  0.00     0.070 C 
ENDBRANCH   4  20
TORSDOF 4
ENDMDL
MODEL 7
REMARK VINA RESULT:      -6.7     10.325     12.973
REMARK  4 active torsions:
REMARK  status: ('A' for Active; 'I' for Inactive)
REMARK    1  A    between atoms: C_2  and  C_3 
REMARK    2  A    between atoms: C_4  and  N_5 
REMARK       I    between atoms: N_5  and  C_6 
REMARK       I    between atoms: C_6  and  N_7 
REMARK    3  A    between atoms: C_8  and  C_9 
REMARK    4  A    between atoms: C_21  and  C_22 
ROOT
HETATM    1  N   UNL     1      28.880  50.916  41.647  1.00  0.00    -0.209 NA
HETATM    2  C   UNL     1      27.969  50.416  40.757  1.00  0.00     0.301 C 
HETATM    3  N   UNL     1      28.283  49.332  39.978  1.00  0.00    -0.330 N 
HETATM    4  C   UNL     1      27.277  48.732  39.097  1.00  0.00     0.125 C 
HETATM    5  C   UNL     1      28.011  47.586  38.387  1.00  0.00     0.032 C 
HETATM    6  C   UNL     1      29.451  48.059  38.364  1.00  0.00     0.022 C 
HETATM    7  C   UNL     1      29.597  48.763  39.706  1.00  0.00     0.128 C 
HETATM    8  O   UNL     1      26.848  50.932  40.761  1.00  0.00    -0.254 OA
HETATM    9  H   UNL     1      28.390  51.678  42.106  1.00  0.00     0.138 HD
ENDROOT
BRANCH   1  10
HETATM   10  C   UNL     1      30.202  51.303  41.338  1.00  0.00     0.029 A 
HETATM   11  C   UNL     1      31.306  50.599  41.881  1.00  0.00    -0.036 A 
HETATM   12  C   UNL     1      32.608  51.018  41.560  1.00  0.00     0.009 A 
HETATM   13  C   UNL     1      32.821  52.076  40.686  1.00  0.00     0.001 A 
HETATM   14  C   UNL     1      31.733  52.712  40.099  1.00  0.00     0.009 A 
HETATM   15  C   UNL     1      30.405  52.341  40.398  1.00  0.00    -0.036 A 
BRANCH  11  16
HETATM   16  C   UNL     1      31.179  49.371  42.762  1.00  0.00     0.036 C 
HETATM   17  C   UNL     1      32.118  48.246  42.352  1.00  0.00     0.010 C 
ENDBRANCH  11  16
BRANCH  15  18
HETATM   18  C   UNL     1      29.339  53.049  39.579  1.00  0.00     0.036 C 
HETATM   19  C   UNL     1      29.023  52.606  38.160  1.00  0.00     0.010 C 
ENDBRANCH  15  18
ENDBRANCH   1  10
BRANCH   4  20
HETATM   20  C   UNL     1      26.050  48.231  39.801  1.00  0.00     0.014 A 
HETATM   21  C   UNL     1      25.910  47.208  40.787  1.00  0.00     0.061 A 
HETATM   22  C   UNL     1      26.960  46.378  41.425  1.00  0.00     0.073 C 
HETATM   23  N   UNL     1      24.633  47.028  41.146  1.00  0.00    -0.179 NA
HETATM   24  N   UNL     1      23.964  47.947  40.441  1.00  0.00    -0.282 N 
HETATM   25  H   UNL     1      22.962  48.018  40.581  1.00  0.00     0.189 HD
HETATM   26  C   UNL     1      24.751  48.672  39.596  1.00  0.00     0.034 A 
HETATM   27  C   UNL     1      24.197  49.717  38.705  1.00  0.00     0.070 C 
ENDBRANCH   4  20
TORSDOF 4
ENDMDL
MODEL 8
REMARK VINA RESULT:      -6.6     10.300     12.959
REMARK  4 active torsions:
REMARK  status: ('A' for Active; 'I' for Inactive)
REMARK    1  A    between atoms: C_2  and  C_3 
REMARK    2  A    between atoms: C_4  and  N_5 
REMARK       I    between atoms: N_5  and  C_6 
REMARK       I    between atoms: C_6  and  N_7 
REMARK    3  A    between atoms: C_8  and  C_9 
REMARK    4  A    between atoms: C_21  and  C_22 
ROOT
HETATM    1  N   UNL     1      28.908  50.976  41.457  1.00  0.00    -0.209 NA
HETATM    2  C   UNL     1      27.997  50.414  40.604  1.00  0.00     0.301 C 
HETATM    3  N   UNL     1      28.321  49.290  39.887  1.00  0.00    -0.330 N 
HETATM    4  C   UNL     1      27.317  48.627  39.050  1.00  0.00     0.125 C 
HETATM    5  C   UNL     1      28.061  47.451  38.403  1.00  0.00     0.032 C 
HETATM    6  C   UNL     1      29.495  47.941  38.341  1.00  0.00     0.022 C 
HETATM    7  C   UNL     1      29.641  48.723  39.639  1.00  0.00     0.128 C 
HETATM    8  O   UNL     1      26.870  50.914  40.586  1.00  0.00    -0.254 OA
HETATM    9  H   UNL     1      28.410  51.757  41.875  1.00  0.00     0.138 HD
ENDROOT
BRANCH   1  10
HETATM   10  C   UNL     1      30.222  51.362  41.117  1.00  0.00     0.029 A 
HETATM   11  C   UNL     1      30.451  52.468  40.260  1.00  0.00    -0.036 A 
HETATM   12  C   UNL     1      31.772  52.817  39.934  1.00  0.00     0.009 A 
HETATM   13  C   UNL     1      32.847  52.125  40.475  1.00  0.00     0.001 A 
HETATM   14  C   UNL     1      32.615  51.089  41.374  1.00  0.00     0.009 A 
HETATM   15  C   UNL     1      31.308  50.688  41.724  1.00  0.00    -0.036 A 
BRANCH  11  16
HETATM   16  C   UNL     1      29.352  53.348  39.700  1.00  0.00     0.036 C 
HETATM   17  C   UNL     1      28.921  52.941  38.298  1.00  0.00     0.010 C 
ENDBRANCH  11  16
BRANCH  15  18
HETATM   18  C   UNL     1      31.230  49.629  42.810  1.00  0.00     0.036 C 
HETATM   19  C   UNL     1      31.753  48.223  42.568  1.00  0.00     0.010 C 
ENDBRANCH  15  18
ENDBRANCH   1  10
BRANCH   4  20
HETATM   20  C   UNL     1      26.102  48.152  39.791  1.00  0.00     0.014 A 
HETATM   21  C   UNL     1      25.975  47.153  40.802  1.00  0.00     0.061 A 
HETATM   22  C   UNL     1      27.032  46.328  41.437  1.00  0.00     0.073 C 
HETATM   23  N   UNL     1      24.704  46.991  41.192  1.00  0.00    -0.179 NA
HETATM   24  N   UNL     1      24.027  47.900  40.481  1.00  0.00    -0.282 N 
HETATM   25  H   UNL     1      23.030  47.982  40.640  1.00  0.00     0.189 HD
HETATM   26  C   UNL     1      24.802  48.599  39.603  1.00  0.00     0.034 A 
HETATM   27  C   UNL     1      24.237  49.629  38.701  1.00  0.00     0.070 C 
ENDBRANCH   4  20
TORSDOF 4
ENDMDL
MODEL 9
REMARK VINA RESULT:      -6.6      2.676      5.419
REMARK  4 active torsions:
REMARK  status: ('A' for Active; 'I' for Inactive)
REMARK    1  A    between atoms: C_2  and  C_3 
REMARK    2  A    between atoms: C_4  and  N_5 
REMARK       I    between atoms: N_5  and  C_6 
REMARK       I    between atoms: C_6  and  N_7 
REMARK    3  A    between atoms: C_8  and  C_9 
REMARK    4  A    between atoms: C_21  and  C_22 
ROOT
HETATM    1  N   UNL     1      27.046  44.296  49.695  1.00  0.00    -0.209 NA
HETATM    2  C   UNL     1      26.448  43.142  49.267  1.00  0.00     0.301 C 
HETATM    3  N   UNL     1      25.086  42.998  49.341  1.00  0.00    -0.330 N 
HETATM    4  C   UNL     1      24.432  41.807  48.792  1.00  0.00     0.125 C 
HETATM    5  C   UNL     1      22.940  42.005  49.091  1.00  0.00     0.032 C 
HETATM    6  C   UNL     1      22.949  42.860  50.343  1.00  0.00     0.022 C 
HETATM    7  C   UNL     1      24.132  43.789  50.109  1.00  0.00     0.128 C 
HETATM    8  O   UNL     1      27.179  42.298  48.744  1.00  0.00    -0.254 OA
HETATM    9  H   UNL     1      28.033  44.153  49.500  1.00  0.00     0.138 HD
ENDROOT
BRANCH   1  10
HETATM   10  C   UNL     1      26.880  44.883  50.967  1.00  0.00     0.029 A 
HETATM   11  C   UNL     1      27.407  44.257  52.125  1.00  0.00    -0.036 A 
HETATM   12  C   UNL     1      27.214  44.865  53.377  1.00  0.00     0.009 A 
HETATM   13  C   UNL     1      26.559  46.084  53.485  1.00  0.00     0.001 A 
HETATM   14  C   UNL     1      26.112  46.728  52.335  1.00  0.00     0.009 A 
HETATM   15  C   UNL     1      26.267  46.154  51.055  1.00  0.00    -0.036 A 
BRANCH  11  16
HETATM   16  C   UNL     1      28.223  42.980  52.102  1.00  0.00     0.036 C 
HETATM   17  C   UNL     1      29.594  43.139  52.743  1.00  0.00     0.010 C 
ENDBRANCH  11  16
BRANCH  15  18
HETATM   18  C   UNL     1      25.837  47.041  49.898  1.00  0.00     0.036 C 
HETATM   19  C   UNL     1      26.636  48.279  49.525  1.00  0.00     0.010 C 
ENDBRANCH  15  18
ENDBRANCH   1  10
BRANCH   4  20
HETATM   20  C   UNL     1      24.662  41.589  47.324  1.00  0.00     0.014 A 
HETATM   21  C   UNL     1      25.394  40.565  46.652  1.00  0.00     0.061 A 
HETATM   22  C   UNL     1      26.102  39.394  47.225  1.00  0.00     0.073 C 
HETATM   23  N   UNL     1      25.396  40.739  45.324  1.00  0.00    -0.179 NA
HETATM   24  N   UNL     1      24.643  41.829  45.137  1.00  0.00    -0.282 N 
HETATM   25  H   UNL     1      24.477  42.134  44.185  1.00  0.00     0.189 HD
HETATM   26  C   UNL     1      24.205  42.399  46.295  1.00  0.00     0.034 A 
HETATM   27  C   UNL     1      23.384  43.632  46.305  1.00  0.00     0.070 C 
ENDBRANCH   4  20
TORSDOF 4
ENDMDL
MODEL 10
REMARK VINA RESULT:      -6.4     18.068     20.007
REMARK  4 active torsions:
REMARK  status: ('A' for Active; 'I' for Inactive)
REMARK    1  A    between atoms: C_2  and  C_3 
REMARK    2  A    between atoms: C_4  and  N_5 
REMARK       I    between atoms: N_5  and  C_6 
REMARK       I    between atoms: C_6  and  N_7 
REMARK    3  A    between atoms: C_8  and  C_9 
REMARK    4  A    between atoms: C_21  and  C_22 
ROOT
HETATM    1  N   UNL     1      39.217  45.539  66.475  1.00  0.00    -0.209 NA
HETATM    2  C   UNL     1      39.081  44.245  66.051  1.00  0.00     0.301 C 
HETATM    3  N   UNL     1      39.334  43.913  64.744  1.00  0.00    -0.330 N 
HETATM    4  C   UNL     1      39.288  42.515  64.309  1.00  0.00     0.125 C 
HETATM    5  C   UNL     1      39.593  42.561  62.806  1.00  0.00     0.032 C 
HETATM    6  C   UNL     1      39.089  43.930  62.393  1.00  0.00     0.022 C 
HETATM    7  C   UNL     1      39.448  44.798  63.591  1.00  0.00     0.128 C 
HETATM    8  O   UNL     1      38.810  43.404  66.911  1.00  0.00    -0.254 OA
HETATM    9  H   UNL     1      39.006  45.500  67.468  1.00  0.00     0.138 HD
ENDROOT
BRANCH   1  10
HETATM   10  C   UNL     1      38.599  46.664  65.889  1.00  0.00     0.029 A 
HETATM   11  C   UNL     1      37.188  46.729  65.763  1.00  0.00    -0.036 A 
HETATM   12  C   UNL     1      36.607  47.860  65.165  1.00  0.00     0.009 A 
HETATM   13  C   UNL     1      37.391  48.924  64.742  1.00  0.00     0.001 A 
HETATM   14  C   UNL     1      38.767  48.885  64.938  1.00  0.00     0.009 A 
HETATM   15  C   UNL     1      39.403  47.768  65.520  1.00  0.00    -0.036 A 
BRANCH  11  16
HETATM   16  C   UNL     1      36.241  45.666  66.284  1.00  0.00     0.036 C 
HETATM   17  C   UNL     1      35.704  44.759  65.187  1.00  0.00     0.010 C 
ENDBRANCH  11  16
BRANCH  15  18
HETATM   18  C   UNL     1      40.891  47.937  65.776  1.00  0.00     0.036 C 
HETATM   19  C   UNL     1      41.914  47.117  65.006  1.00  0.00     0.010 C 
ENDBRANCH  15  18
ENDBRANCH   1  10
BRANCH   4  20
HETATM   20  C   UNL     1      40.245  41.606  65.024  1.00  0.00     0.014 A 
HETATM   21  C   UNL     1      41.544  41.873  65.552  1.00  0.00     0.061 A 
HETATM   22  C   UNL     1      42.297  43.151  65.576  1.00  0.00     0.073 C 
HETATM   23  N   UNL     1      42.101  40.781  66.090  1.00  0.00    -0.179 NA
HETATM   24  N   UNL     1      41.164  39.837  65.956  1.00  0.00    -0.282 N 
HETATM   25  H   UNL     1      41.359  38.915  66.331  1.00  0.00     0.189 HD
HETATM   26  C   UNL     1      40.048  40.260  65.296  1.00  0.00     0.034 A 
HETATM   27  C   UNL     1      38.907  39.357  65.016  1.00  0.00     0.070 C 
ENDBRANCH   4  20
TORSDOF 4
ENDMDL
