MODEL 1
REMARK VINA RESULT:      -8.4      0.000      0.000
REMARK  9 active torsions:
REMARK  status: ('A' for Active; 'I' for Inactive)
REMARK    1  A    between atoms: C_2  and  C_3 
REMARK    2  A    between atoms: C_6  and  N_7 
REMARK    3  A    between atoms: C_8  and  O_9 
REMARK    4  A    between atoms: C_8  and  C_10 
REMARK       I    between atoms: C_10  and  N_11 
REMARK    5  A    between atoms: N_11  and  C_12 
REMARK    6  A    between atoms: C_12  and  C_13 
REMARK    7  A    between atoms: C_13  and  N_14 
REMARK    8  A    between atoms: N_14  and  C_16 
REMARK    9  A    between atoms: N_14  and  C_18 
ROOT
HETATM    1  N   UNL     1      27.498  43.716  53.614  1.00  0.00    -0.254 N 
HETATM    2  C   UNL     1      27.645  43.528  52.167  1.00  0.00     0.256 C 
HETATM    3  C   UNL     1      26.735  44.449  51.401  1.00  0.00     0.034 A 
HETATM    4  C   UNL     1      25.499  44.732  51.988  1.00  0.00     0.048 A 
HETATM    5  N   UNL     1      25.231  44.194  53.248  1.00  0.00    -0.308 N 
HETATM    6  C   UNL     1      26.192  43.696  54.103  1.00  0.00     0.330 C 
HETATM    7  O   UNL     1      25.835  43.312  55.214  1.00  0.00    -0.246 OA
HETATM    8  C   UNL     1      27.020  44.958  50.129  1.00  0.00     0.015 A 
HETATM    9  C   UNL     1      26.074  45.737  49.463  1.00  0.00     0.001 A 
HETATM   10  C   UNL     1      24.839  46.000  50.055  1.00  0.00     0.002 A 
HETATM   11  C   UNL     1      24.543  45.491  51.320  1.00  0.00     0.030 A 
HETATM   12  H   UNL     1      24.331  44.363  53.684  1.00  0.00     0.170 HD
ENDROOT
BRANCH   2  13
HETATM   13  O   UNL     1      28.987  43.676  51.710  1.00  0.00    -0.359 OA
HETATM   14  H   UNL     1      29.184  44.629  51.779  1.00  0.00     0.213 HD
ENDBRANCH   2  13
BRANCH   2  15
HETATM   15  C   UNL     1      27.328  41.982  51.941  1.00  0.00     0.279 C 
HETATM   16  N   UNL     1      26.314  41.617  51.077  1.00  0.00    -0.355 N 
HETATM   17  H   UNL     1      25.998  42.333  50.429  1.00  0.00     0.162 HD
HETATM   18  O   UNL     1      27.867  41.111  52.638  1.00  0.00    -0.268 OA
BRANCH  16  19
HETATM   19  C   UNL     1      26.014  40.246  50.671  1.00  0.00     0.150 C 
BRANCH  19  20
HETATM   20  C   UNL     1      26.931  39.551  49.638  1.00  0.00     0.254 C 
BRANCH  20  21
HETATM   21  N   UNL     1      27.715  38.376  50.193  1.00  0.00    -0.070 N 
HETATM   22  H   UNL     1      27.454  38.377  51.197  1.00  0.00     0.279 HD
BRANCH  21  23
HETATM   23  C   UNL     1      27.330  37.011  49.668  1.00  0.00     0.230 C 
HETATM   24  C   UNL     1      26.527  37.102  48.383  1.00  0.00     0.034 C 
ENDBRANCH  21  23
BRANCH  21  25
HETATM   25  C   UNL     1      29.214  38.605  50.175  1.00  0.00     0.230 C 
HETATM   26  C   UNL     1      29.938  37.569  51.015  1.00  0.00     0.034 C 
ENDBRANCH  21  25
ENDBRANCH  20  21
ENDBRANCH  19  20
ENDBRANCH  16  19
ENDBRANCH   2  15
BRANCH   1  27
HETATM   27  C   UNL     1      28.617  43.847  54.495  1.00  0.00     0.043 A 
HETATM   28  C   UNL     1      29.537  42.810  54.684  1.00  0.00     0.030 A 
HETATM   29  C   UNL     1      30.608  42.949  55.578  1.00  0.00     0.009 A 
HETATM   30  C   UNL     1      30.770  44.122  56.322  1.00  0.00    -0.058 A 
HETATM   31  C   UNL     1      29.837  45.148  56.163  1.00  0.00     0.009 A 
HETATM   32  C   UNL     1      28.775  45.008  55.264  1.00  0.00     0.030 A 
BRANCH  30  33
HETATM   33  C   UNL     1      31.910  44.270  57.299  1.00  0.00     0.034 C 
HETATM   34  C   UNL     1      31.512  45.060  58.538  1.00  0.00     0.010 C 
ENDBRANCH  30  33
ENDBRANCH   1  27
TORSDOF 9
ENDMDL
MODEL 2
REMARK VINA RESULT:      -8.0      3.706      7.450
REMARK  9 active torsions:
REMARK  status: ('A' for Active; 'I' for Inactive)
REMARK    1  A    between atoms: C_2  and  C_3 
REMARK    2  A    between atoms: C_6  and  N_7 
REMARK    3  A    between atoms: C_8  and  O_9 
REMARK    4  A    between atoms: C_8  and  C_10 
REMARK       I    between atoms: C_10  and  N_11 
REMARK    5  A    between atoms: N_11  and  C_12 
REMARK    6  A    between atoms: C_12  and  C_13 
REMARK    7  A    between atoms: C_13  and  N_14 
REMARK    8  A    between atoms: N_14  and  C_16 
REMARK    9  A    between atoms: N_14  and  C_18 
ROOT
HETATM    1  N   UNL     1      26.160  45.040  51.186  1.00  0.00    -0.254 N 
HETATM    2  C   UNL     1      24.701  44.957  51.060  1.00  0.00     0.256 C 
HETATM    3  C   UNL     1      24.294  43.801  50.186  1.00  0.00     0.034 A 
HETATM    4  C   UNL     1      25.148  43.494  49.123  1.00  0.00     0.048 A 
HETATM    5  N   UNL     1      26.325  44.233  48.990  1.00  0.00    -0.308 N 
HETATM    6  C   UNL     1      26.880  45.001  49.992  1.00  0.00     0.330 C 
HETATM    7  O   UNL     1      27.957  45.550  49.771  1.00  0.00    -0.246 OA
HETATM    8  C   UNL     1      23.098  43.090  50.329  1.00  0.00     0.015 A 
HETATM    9  C   UNL     1      22.770  42.089  49.415  1.00  0.00     0.001 A 
HETATM   10  C   UNL     1      23.625  41.801  48.351  1.00  0.00     0.002 A 
HETATM   11  C   UNL     1      24.817  42.510  48.197  1.00  0.00     0.030 A 
HETATM   12  H   UNL     1      26.948  44.048  48.212  1.00  0.00     0.170 HD
ENDROOT
BRANCH   2  13
HETATM   13  O   UNL     1      24.027  44.883  52.313  1.00  0.00    -0.359 OA
HETATM   14  H   UNL     1      24.276  44.020  52.693  1.00  0.00     0.213 HD
ENDBRANCH   2  13
BRANCH   2  15
HETATM   15  C   UNL     1      24.279  46.379  50.477  1.00  0.00     0.279 C 
HETATM   16  N   UNL     1      23.429  46.441  49.390  1.00  0.00    -0.355 N 
HETATM   17  H   UNL     1      22.905  45.595  49.180  1.00  0.00     0.162 HD
HETATM   18  O   UNL     1      24.816  47.420  50.880  1.00  0.00    -0.268 OA
BRANCH  16  19
HETATM   19  C   UNL     1      22.852  47.669  48.848  1.00  0.00     0.150 C 
BRANCH  19  20
HETATM   20  C   UNL     1      21.314  47.801  48.759  1.00  0.00     0.254 C 
BRANCH  20  21
HETATM   21  N   UNL     1      20.724  48.841  49.696  1.00  0.00    -0.070 N 
HETATM   22  H   UNL     1      21.000  48.493  50.632  1.00  0.00     0.279 HD
BRANCH  21  23
HETATM   23  C   UNL     1      21.298  50.235  49.588  1.00  0.00     0.230 C 
HETATM   24  C   UNL     1      20.807  50.959  48.347  1.00  0.00     0.034 C 
ENDBRANCH  21  23
BRANCH  21  25
HETATM   25  C   UNL     1      19.207  48.835  49.704  1.00  0.00     0.230 C 
HETATM   26  C   UNL     1      18.667  48.697  51.116  1.00  0.00     0.034 C 
ENDBRANCH  21  25
ENDBRANCH  20  21
ENDBRANCH  19  20
ENDBRANCH  16  19
ENDBRANCH   2  15
BRANCH   1  27
HETATM   27  C   UNL     1      26.818  45.220  52.443  1.00  0.00     0.043 A 
HETATM   28  C   UNL     1      26.694  46.400  53.183  1.00  0.00     0.030 A 
HETATM   29  C   UNL     1      27.375  46.566  54.398  1.00  0.00     0.009 A 
HETATM   30  C   UNL     1      28.216  45.562  54.888  1.00  0.00    -0.058 A 
HETATM   31  C   UNL     1      28.371  44.395  54.138  1.00  0.00     0.009 A 
HETATM   32  C   UNL     1      27.684  44.231  52.931  1.00  0.00     0.030 A 
BRANCH  30  33
HETATM   33  C   UNL     1      28.966  45.743  56.184  1.00  0.00     0.034 C 
HETATM   34  C   UNL     1      30.358  45.127  56.139  1.00  0.00     0.010 C 
ENDBRANCH  30  33
ENDBRANCH   1  27
TORSDOF 9
ENDMDL
MODEL 3
REMARK VINA RESULT:      -7.6      2.587      6.586
REMARK  9 active torsions:
REMARK  status: ('A' for Active; 'I' for Inactive)
REMARK    1  A    between atoms: C_2  and  C_3 
REMARK    2  A    between atoms: C_6  and  N_7 
REMARK    3  A    between atoms: C_8  and  O_9 
REMARK    4  A    between atoms: C_8  and  C_10 
REMARK       I    between atoms: C_10  and  N_11 
REMARK    5  A    between atoms: N_11  and  C_12 
REMARK    6  A    between atoms: C_12  and  C_13 
REMARK    7  A    between atoms: C_13  and  N_14 
REMARK    8  A    between atoms: N_14  and  C_16 
REMARK    9  A    between atoms: N_14  and  C_18 
ROOT
HETATM    1  N   UNL     1      25.335  45.307  50.460  1.00  0.00    -0.254 N 
HETATM    2  C   UNL     1      24.901  44.284  51.418  1.00  0.00     0.256 C 
HETATM    3  C   UNL     1      25.762  44.293  52.653  1.00  0.00     0.034 A 
HETATM    4  C   UNL     1      27.110  44.611  52.470  1.00  0.00     0.048 A 
HETATM    5  N   UNL     1      27.537  44.948  51.184  1.00  0.00    -0.308 N 
HETATM    6  C   UNL     1      26.696  45.321  50.157  1.00  0.00     0.330 C 
HETATM    7  O   UNL     1      27.202  45.661  49.089  1.00  0.00    -0.246 OA
HETATM    8  C   UNL     1      25.313  43.930  53.928  1.00  0.00     0.015 A 
HETATM    9  C   UNL     1      26.208  43.889  54.995  1.00  0.00     0.001 A 
HETATM   10  C   UNL     1      27.554  44.195  54.796  1.00  0.00     0.002 A 
HETATM   11  C   UNL     1      28.012  44.552  53.527  1.00  0.00     0.030 A 
HETATM   12  H   UNL     1      28.516  45.157  51.020  1.00  0.00     0.170 HD
ENDROOT
BRANCH   2  13
HETATM   13  O   UNL     1      23.527  44.392  51.780  1.00  0.00    -0.359 OA
HETATM   14  H   UNL     1      23.223  45.239  51.402  1.00  0.00     0.213 HD
ENDBRANCH   2  13
BRANCH   2  15
HETATM   15  C   UNL     1      24.979  42.922  50.594  1.00  0.00     0.279 C 
HETATM   16  N   UNL     1      25.831  41.921  51.019  1.00  0.00    -0.355 N 
HETATM   17  H   UNL     1      26.167  41.993  51.976  1.00  0.00     0.162 HD
HETATM   18  O   UNL     1      24.408  42.803  49.502  1.00  0.00    -0.268 OA
BRANCH  16  19
HETATM   19  C   UNL     1      25.895  40.578  50.446  1.00  0.00     0.150 C 
BRANCH  19  20
HETATM   20  C   UNL     1      27.255  40.037  49.951  1.00  0.00     0.254 C 
BRANCH  20  21
HETATM   21  N   UNL     1      28.224  39.676  51.064  1.00  0.00    -0.070 N 
HETATM   22  H   UNL     1      27.614  39.201  51.755  1.00  0.00     0.279 HD
BRANCH  21  23
HETATM   23  C   UNL     1      29.302  38.677  50.709  1.00  0.00     0.230 C 
HETATM   24  C   UNL     1      29.138  38.139  49.298  1.00  0.00     0.034 C 
ENDBRANCH  21  23
BRANCH  21  25
HETATM   25  C   UNL     1      28.770  40.891  51.788  1.00  0.00     0.230 C 
HETATM   26  C   UNL     1      28.423  40.850  53.265  1.00  0.00     0.034 C 
ENDBRANCH  21  25
ENDBRANCH  20  21
ENDBRANCH  19  20
ENDBRANCH  16  19
ENDBRANCH   2  15
BRANCH   1  27
HETATM   27  C   UNL     1      24.422  46.199  49.816  1.00  0.00     0.043 A 
HETATM   28  C   UNL     1      23.511  45.758  48.850  1.00  0.00     0.030 A 
HETATM   29  C   UNL     1      22.647  46.657  48.208  1.00  0.00     0.009 A 
HETATM   30  C   UNL     1      22.693  48.024  48.500  1.00  0.00    -0.058 A 
HETATM   31  C   UNL     1      23.623  48.476  49.438  1.00  0.00     0.009 A 
HETATM   32  C   UNL     1      24.477  47.574  50.082  1.00  0.00     0.030 A 
BRANCH  30  33
HETATM   33  C   UNL     1      21.779  48.997  47.798  1.00  0.00     0.034 C 
HETATM   34  C   UNL     1      21.750  50.358  48.480  1.00  0.00     0.010 C 
ENDBRANCH  30  33
ENDBRANCH   1  27
TORSDOF 9
ENDMDL
MODEL 4
REMARK VINA RESULT:      -7.4     13.662     16.498
REMARK  9 active torsions:
REMARK  status: ('A' for Active; 'I' for Inactive)
REMARK    1  A    between atoms: C_2  and  C_3 
REMARK    2  A    between atoms: C_6  and  N_7 
REMARK    3  A    between atoms: C_8  and  O_9 
REMARK    4  A    between atoms: C_8  and  C_10 
REMARK       I    between atoms: C_10  and  N_11 
REMARK    5  A    between atoms: N_11  and  C_12 
REMARK    6  A    between atoms: C_12  and  C_13 
REMARK    7  A    between atoms: C_13  and  N_14 
REMARK    8  A    between atoms: N_14  and  C_16 
REMARK    9  A    between atoms: N_14  and  C_18 
ROOT
HETATM    1  N   UNL     1      33.025  50.621  41.319  1.00  0.00    -0.254 N 
HETATM    2  C   UNL     1      33.935  51.401  40.473  1.00  0.00     0.256 C 
HETATM    3  C   UNL     1      35.281  51.565  41.125  1.00  0.00     0.034 A 
HETATM    4  C   UNL     1      35.289  51.677  42.517  1.00  0.00     0.048 A 
HETATM    5  N   UNL     1      34.071  51.571  43.193  1.00  0.00    -0.308 N 
HETATM    6  C   UNL     1      32.923  51.034  42.648  1.00  0.00     0.330 C 
HETATM    7  O   UNL     1      31.933  50.934  43.369  1.00  0.00    -0.246 OA
HETATM    8  C   UNL     1      36.485  51.690  40.423  1.00  0.00     0.015 A 
HETATM    9  C   UNL     1      37.673  51.924  41.115  1.00  0.00     0.001 A 
HETATM   10  C   UNL     1      37.664  52.047  42.504  1.00  0.00     0.002 A 
HETATM   11  C   UNL     1      36.467  51.931  43.212  1.00  0.00     0.030 A 
HETATM   12  H   UNL     1      34.046  51.674  44.201  1.00  0.00     0.170 HD
ENDROOT
BRANCH   2  13
HETATM   13  O   UNL     1      34.089  50.864  39.162  1.00  0.00    -0.359 OA
HETATM   14  H   UNL     1      34.138  49.896  39.280  1.00  0.00     0.213 HD
ENDBRANCH   2  13
BRANCH   2  15
HETATM   15  C   UNL     1      33.165  52.777  40.239  1.00  0.00     0.279 C 
HETATM   16  N   UNL     1      31.845  52.890  40.627  1.00  0.00    -0.355 N 
HETATM   17  H   UNL     1      31.507  52.187  41.280  1.00  0.00     0.162 HD
HETATM   18  O   UNL     1      33.679  53.691  39.580  1.00  0.00    -0.268 OA
BRANCH  16  19
HETATM   19  C   UNL     1      31.069  54.128  40.604  1.00  0.00     0.150 C 
BRANCH  19  20
HETATM   20  C   UNL     1      29.595  54.081  40.140  1.00  0.00     0.254 C 
BRANCH  20  21
HETATM   21  N   UNL     1      28.994  52.686  40.116  1.00  0.00    -0.070 N 
HETATM   22  H   UNL     1      29.814  52.078  40.295  1.00  0.00     0.279 HD
BRANCH  21  23
HETATM   23  C   UNL     1      28.000  52.371  41.210  1.00  0.00     0.230 C 
HETATM   24  C   UNL     1      27.663  50.891  41.265  1.00  0.00     0.034 C 
ENDBRANCH  21  23
BRANCH  21  25
HETATM   25  C   UNL     1      28.496  52.282  38.742  1.00  0.00     0.230 C 
HETATM   26  C   UNL     1      29.646  52.137  37.762  1.00  0.00     0.034 C 
ENDBRANCH  21  25
ENDBRANCH  20  21
ENDBRANCH  19  20
ENDBRANCH  16  19
ENDBRANCH   2  15
BRANCH   1  27
HETATM   27  C   UNL     1      32.232  49.544  40.815  1.00  0.00     0.043 A 
HETATM   28  C   UNL     1      31.035  49.763  40.126  1.00  0.00     0.030 A 
HETATM   29  C   UNL     1      30.258  48.689  39.669  1.00  0.00     0.009 A 
HETATM   30  C   UNL     1      30.649  47.369  39.912  1.00  0.00    -0.058 A 
HETATM   31  C   UNL     1      31.826  47.143  40.629  1.00  0.00     0.009 A 
HETATM   32  C   UNL     1      32.602  48.217  41.076  1.00  0.00     0.030 A 
BRANCH  30  33
HETATM   33  C   UNL     1      29.807  46.211  39.440  1.00  0.00     0.034 C 
HETATM   34  C   UNL     1      28.467  46.138  40.159  1.00  0.00     0.010 C 
ENDBRANCH  30  33
ENDBRANCH   1  27
TORSDOF 9
ENDMDL
MODEL 5
REMARK VINA RESULT:      -7.4     12.713     14.602
REMARK  9 active torsions:
REMARK  status: ('A' for Active; 'I' for Inactive)
REMARK    1  A    between atoms: C_2  and  C_3 
REMARK    2  A    between atoms: C_6  and  N_7 
REMARK    3  A    between atoms: C_8  and  O_9 
REMARK    4  A    between atoms: C_8  and  C_10 
REMARK       I    between atoms: C_10  and  N_11 
REMARK    5  A    between atoms: N_11  and  C_12 
REMARK    6  A    between atoms: C_12  and  C_13 
REMARK    7  A    between atoms: C_13  and  N_14 
REMARK    8  A    between atoms: N_14  and  C_16 
REMARK    9  A    between atoms: N_14  and  C_18 
ROOT
HETATM    1  N   UNL     1      29.650  49.175  40.481  1.00  0.00    -0.254 N 
HETATM    2  C   UNL     1      28.328  48.602  40.758  1.00  0.00     0.256 C 
HETATM    3  C   UNL     1      28.240  47.179  40.277  1.00  0.00     0.034 A 
HETATM    4  C   UNL     1      28.951  46.869  39.116  1.00  0.00     0.048 A 
HETATM    5  N   UNL     1      29.726  47.872  38.531  1.00  0.00    -0.308 N 
HETATM    6  C   UNL     1      30.117  49.028  39.175  1.00  0.00     0.330 C 
HETATM    7  O   UNL     1      30.857  49.803  38.573  1.00  0.00    -0.246 OA
HETATM    8  C   UNL     1      27.438  46.196  40.870  1.00  0.00     0.015 A 
HETATM    9  C   UNL     1      27.357  44.927  40.299  1.00  0.00     0.001 A 
HETATM   10  C   UNL     1      28.062  44.635  39.132  1.00  0.00     0.002 A 
HETATM   11  C   UNL     1      28.858  45.609  38.530  1.00  0.00     0.030 A 
HETATM   12  H   UNL     1      30.231  47.680  37.673  1.00  0.00     0.170 HD
ENDROOT
BRANCH   2  13
HETATM   13  O   UNL     1      27.955  48.678  42.131  1.00  0.00    -0.359 OA
HETATM   14  H   UNL     1      28.606  48.132  42.610  1.00  0.00     0.213 HD
ENDBRANCH   2  13
BRANCH   2  15
HETATM   15  C   UNL     1      27.314  49.589  40.025  1.00  0.00     0.279 C 
HETATM   16  N   UNL     1      26.555  49.121  38.970  1.00  0.00    -0.355 N 
HETATM   17  H   UNL     1      26.483  48.110  38.882  1.00  0.00     0.162 HD
HETATM   18  O   UNL     1      27.304  50.800  40.282  1.00  0.00    -0.268 OA
BRANCH  16  19
HETATM   19  C   UNL     1      25.491  49.871  38.307  1.00  0.00     0.150 C 
BRANCH  19  20
HETATM   20  C   UNL     1      24.050  49.313  38.335  1.00  0.00     0.254 C 
BRANCH  20  21
HETATM   21  N   UNL     1      23.307  49.574  39.634  1.00  0.00    -0.070 N 
HETATM   22  H   UNL     1      24.059  49.896  40.270  1.00  0.00     0.279 HD
BRANCH  21  23
HETATM   23  C   UNL     1      22.285  50.688  39.605  1.00  0.00     0.230 C 
HETATM   24  C   UNL     1      21.169  50.465  40.610  1.00  0.00     0.034 C 
ENDBRANCH  21  23
BRANCH  21  25
HETATM   25  C   UNL     1      22.768  48.307  40.270  1.00  0.00     0.230 C 
HETATM   26  C   UNL     1      23.890  47.337  40.596  1.00  0.00     0.034 C 
ENDBRANCH  21  25
ENDBRANCH  20  21
ENDBRANCH  19  20
ENDBRANCH  16  19
ENDBRANCH   2  15
BRANCH   1  27
HETATM   27  C   UNL     1      30.397  49.904  41.457  1.00  0.00     0.043 A 
HETATM   28  C   UNL     1      30.305  51.295  41.577  1.00  0.00     0.030 A 
HETATM   29  C   UNL     1      31.072  51.991  42.521  1.00  0.00     0.009 A 
HETATM   30  C   UNL     1      31.969  51.313  43.354  1.00  0.00    -0.058 A 
HETATM   31  C   UNL     1      32.090  49.929  43.217  1.00  0.00     0.009 A 
HETATM   32  C   UNL     1      31.317  49.237  42.279  1.00  0.00     0.030 A 
BRANCH  30  33
HETATM   33  C   UNL     1      32.811  52.059  44.358  1.00  0.00     0.034 C 
HETATM   34  C   UNL     1      34.296  51.996  44.030  1.00  0.00     0.010 C 
ENDBRANCH  30  33
ENDBRANCH   1  27
TORSDOF 9
ENDMDL
MODEL 6
REMARK VINA RESULT:      -7.3     11.509     14.905
REMARK  9 active torsions:
REMARK  status: ('A' for Active; 'I' for Inactive)
REMARK    1  A    between atoms: C_2  and  C_3 
REMARK    2  A    between atoms: C_6  and  N_7 
REMARK    3  A    between atoms: C_8  and  O_9 
REMARK    4  A    between atoms: C_8  and  C_10 
REMARK       I    between atoms: C_10  and  N_11 
REMARK    5  A    between atoms: N_11  and  C_12 
REMARK    6  A    between atoms: C_12  and  C_13 
REMARK    7  A    between atoms: C_13  and  N_14 
REMARK    8  A    between atoms: N_14  and  C_16 
REMARK    9  A    between atoms: N_14  and  C_18 
ROOT
HETATM    1  N   UNL     1      27.668  48.346  40.214  1.00  0.00    -0.254 N 
HETATM    2  C   UNL     1      28.560  49.148  41.059  1.00  0.00     0.256 C 
HETATM    3  C   UNL     1      28.625  50.574  40.583  1.00  0.00     0.034 A 
HETATM    4  C   UNL     1      28.535  50.775  39.203  1.00  0.00     0.048 A 
HETATM    5  N   UNL     1      28.336  49.659  38.388  1.00  0.00    -0.308 N 
HETATM    6  C   UNL     1      27.886  48.435  38.839  1.00  0.00     0.330 C 
HETATM    7  O   UNL     1      27.686  47.551  38.009  1.00  0.00    -0.246 OA
HETATM    8  C   UNL     1      28.846  51.674  41.420  1.00  0.00     0.015 A 
HETATM    9  C   UNL     1      28.976  52.950  40.873  1.00  0.00     0.001 A 
HETATM   10  C   UNL     1      28.897  53.134  39.492  1.00  0.00     0.002 A 
HETATM   11  C   UNL     1      28.683  52.043  38.650  1.00  0.00     0.030 A 
HETATM   12  H   UNL     1      28.293  49.774  37.381  1.00  0.00     0.170 HD
ENDROOT
BRANCH   2  13
HETATM   13  O   UNL     1      28.216  49.110  42.441  1.00  0.00    -0.359 OA
HETATM   14  H   UNL     1      29.022  48.812  42.903  1.00  0.00     0.213 HD
ENDBRANCH   2  13
BRANCH   2  15
HETATM   15  C   UNL     1      29.957  48.385  40.986  1.00  0.00     0.279 C 
HETATM   16  N   UNL     1      31.119  49.069  41.283  1.00  0.00    -0.355 N 
HETATM   17  H   UNL     1      31.008  49.945  41.788  1.00  0.00     0.162 HD
HETATM   18  O   UNL     1      30.036  47.240  40.522  1.00  0.00    -0.268 OA
BRANCH  16  19
HETATM   19  C   UNL     1      32.443  48.461  41.395  1.00  0.00     0.150 C 
BRANCH  19  20
HETATM   20  C   UNL     1      33.688  49.376  41.453  1.00  0.00     0.254 C 
BRANCH  20  21
HETATM   21  N   UNL     1      33.372  50.839  41.710  1.00  0.00    -0.070 N 
HETATM   22  H   UNL     1      32.336  50.852  41.731  1.00  0.00     0.279 HD
BRANCH  21  23
HETATM   23  C   UNL     1      33.819  51.391  43.045  1.00  0.00     0.230 C 
HETATM   24  C   UNL     1      32.650  51.622  43.986  1.00  0.00     0.034 C 
ENDBRANCH  21  23
BRANCH  21  25
HETATM   25  C   UNL     1      33.755  51.738  40.551  1.00  0.00     0.230 C 
HETATM   26  C   UNL     1      32.524  52.299  39.861  1.00  0.00     0.034 C 
ENDBRANCH  21  25
ENDBRANCH  20  21
ENDBRANCH  19  20
ENDBRANCH  16  19
ENDBRANCH   2  15
BRANCH   1  27
HETATM   27  C   UNL     1      26.677  47.468  40.752  1.00  0.00     0.043 A 
HETATM   28  C   UNL     1      27.004  46.215  41.281  1.00  0.00     0.030 A 
HETATM   29  C   UNL     1      26.010  45.357  41.773  1.00  0.00     0.009 A 
HETATM   30  C   UNL     1      24.661  45.724  41.725  1.00  0.00    -0.058 A 
HETATM   31  C   UNL     1      24.324  46.958  41.167  1.00  0.00     0.009 A 
HETATM   32  C   UNL     1      25.320  47.814  40.685  1.00  0.00     0.030 A 
BRANCH  30  33
HETATM   33  C   UNL     1      23.586  44.796  42.235  1.00  0.00     0.034 C 
HETATM   34  C   UNL     1      23.723  44.517  43.726  1.00  0.00     0.010 C 
ENDBRANCH  30  33
ENDBRANCH   1  27
TORSDOF 9
ENDMDL
MODEL 7
REMARK VINA RESULT:      -7.2     15.087     17.085
REMARK  9 active torsions:
REMARK  status: ('A' for Active; 'I' for Inactive)
REMARK    1  A    between atoms: C_2  and  C_3 
REMARK    2  A    between atoms: C_6  and  N_7 
REMARK    3  A    between atoms: C_8  and  O_9 
REMARK    4  A    between atoms: C_8  and  C_10 
REMARK       I    between atoms: C_10  and  N_11 
REMARK    5  A    between atoms: N_11  and  C_12 
REMARK    6  A    between atoms: C_12  and  C_13 
REMARK    7  A    between atoms: C_13  and  N_14 
REMARK    8  A    between atoms: N_14  and  C_16 
REMARK    9  A    between atoms: N_14  and  C_18 
ROOT
HETATM    1  N   UNL     1      37.799  44.018  65.464  1.00  0.00    -0.254 N 
HETATM    2  C   UNL     1      36.739  44.865  64.905  1.00  0.00     0.256 C 
HETATM    3  C   UNL     1      37.119  46.320  64.959  1.00  0.00     0.034 A 
HETATM    4  C   UNL     1      37.887  46.722  66.054  1.00  0.00     0.048 A 
HETATM    5  N   UNL     1      38.287  45.748  66.971  1.00  0.00    -0.308 N 
HETATM    6  C   UNL     1      38.282  44.392  66.717  1.00  0.00     0.330 C 
HETATM    7  O   UNL     1      38.724  43.641  67.583  1.00  0.00    -0.246 OA
HETATM    8  C   UNL     1      36.686  47.280  64.038  1.00  0.00     0.015 A 
HETATM    9  C   UNL     1      37.022  48.621  64.221  1.00  0.00     0.001 A 
HETATM   10  C   UNL     1      37.778  49.011  65.326  1.00  0.00     0.002 A 
HETATM   11  C   UNL     1      38.208  48.062  66.253  1.00  0.00     0.030 A 
HETATM   12  H   UNL     1      38.823  46.019  67.788  1.00  0.00     0.170 HD
ENDROOT
BRANCH   2  13
HETATM   13  O   UNL     1      36.369  44.505  63.576  1.00  0.00    -0.359 OA
HETATM   14  H   UNL     1      37.093  43.942  63.246  1.00  0.00     0.213 HD
ENDBRANCH   2  13
BRANCH   2  15
HETATM   15  C   UNL     1      35.453  44.506  65.776  1.00  0.00     0.279 C 
HETATM   16  N   UNL     1      34.580  43.536  65.326  1.00  0.00    -0.355 N 
HETATM   17  H   UNL     1      34.932  42.914  64.603  1.00  0.00     0.162 HD
HETATM   18  O   UNL     1      35.143  45.184  66.764  1.00  0.00    -0.268 OA
BRANCH  16  19
HETATM   19  C   UNL     1      33.448  43.011  66.088  1.00  0.00     0.150 C 
BRANCH  19  20
HETATM   20  C   UNL     1      33.676  42.543  67.544  1.00  0.00     0.254 C 
BRANCH  20  21
HETATM   21  N   UNL     1      32.943  43.371  68.585  1.00  0.00    -0.070 N 
HETATM   22  H   UNL     1      33.057  44.339  68.233  1.00  0.00     0.279 HD
BRANCH  21  23
HETATM   23  C   UNL     1      31.452  43.142  68.687  1.00  0.00     0.230 C 
HETATM   24  C   UNL     1      30.988  43.048  70.130  1.00  0.00     0.034 C 
ENDBRANCH  21  23
BRANCH  21  25
HETATM   25  C   UNL     1      33.628  43.359  69.938  1.00  0.00     0.230 C 
HETATM   26  C   UNL     1      34.915  44.163  69.907  1.00  0.00     0.034 C 
ENDBRANCH  21  25
ENDBRANCH  20  21
ENDBRANCH  19  20
ENDBRANCH  16  19
ENDBRANCH   2  15
BRANCH   1  27
HETATM   27  C   UNL     1      38.271  42.838  64.809  1.00  0.00     0.043 A 
HETATM   28  C   UNL     1      37.633  41.602  64.955  1.00  0.00     0.030 A 
HETATM   29  C   UNL     1      38.134  40.452  64.330  1.00  0.00     0.009 A 
HETATM   30  C   UNL     1      39.301  40.507  63.561  1.00  0.00    -0.058 A 
HETATM   31  C   UNL     1      39.962  41.730  63.439  1.00  0.00     0.009 A 
HETATM   32  C   UNL     1      39.455  42.877  64.058  1.00  0.00     0.030 A 
BRANCH  30  33
HETATM   33  C   UNL     1      39.855  39.268  62.902  1.00  0.00     0.034 C 
HETATM   34  C   UNL     1      40.768  38.478  63.829  1.00  0.00     0.010 C 
ENDBRANCH  30  33
ENDBRANCH   1  27
TORSDOF 9
ENDMDL
MODEL 8
REMARK VINA RESULT:      -7.2      8.232     11.490
REMARK  9 active torsions:
REMARK  status: ('A' for Active; 'I' for Inactive)
REMARK    1  A    between atoms: C_2  and  C_3 
REMARK    2  A    between atoms: C_6  and  N_7 
REMARK    3  A    between atoms: C_8  and  O_9 
REMARK    4  A    between atoms: C_8  and  C_10 
REMARK       I    between atoms: C_10  and  N_11 
REMARK    5  A    between atoms: N_11  and  C_12 
REMARK    6  A    between atoms: C_12  and  C_13 
REMARK    7  A    between atoms: C_13  and  N_14 
REMARK    8  A    between atoms: N_14  and  C_16 
REMARK    9  A    between atoms: N_14  and  C_18 
ROOT
HETATM    1  N   UNL     1      19.348  50.038  48.811  1.00  0.00    -0.254 N 
HETATM    2  C   UNL     1      18.495  49.872  47.629  1.00  0.00     0.256 C 
HETATM    3  C   UNL     1      17.413  50.917  47.585  1.00  0.00     0.034 A 
HETATM    4  C   UNL     1      16.899  51.332  48.816  1.00  0.00     0.048 A 
HETATM    5  N   UNL     1      17.459  50.797  49.977  1.00  0.00    -0.308 N 
HETATM    6  C   UNL     1      18.683  50.163  50.030  1.00  0.00     0.330 C 
HETATM    7  O   UNL     1      19.096  49.795  51.128  1.00  0.00    -0.246 OA
HETATM    8  C   UNL     1      16.855  51.423  46.406  1.00  0.00     0.015 A 
HETATM    9  C   UNL     1      15.796  52.328  46.469  1.00  0.00     0.001 A 
HETATM   10  C   UNL     1      15.283  52.723  47.704  1.00  0.00     0.002 A 
HETATM   11  C   UNL     1      15.829  52.220  48.885  1.00  0.00     0.030 A 
HETATM   12  H   UNL     1      17.085  51.061  50.882  1.00  0.00     0.170 HD
ENDROOT
BRANCH   2  13
HETATM   13  O   UNL     1      19.221  49.869  46.402  1.00  0.00    -0.359 OA
HETATM   14  H   UNL     1      20.135  49.621  46.640  1.00  0.00     0.213 HD
ENDBRANCH   2  13
BRANCH   2  15
HETATM   15  C   UNL     1      17.941  48.383  47.754  1.00  0.00     0.279 C 
HETATM   16  N   UNL     1      18.642  47.347  47.169  1.00  0.00    -0.355 N 
HETATM   17  H   UNL     1      19.607  47.544  46.917  1.00  0.00     0.162 HD
HETATM   18  O   UNL     1      16.821  48.157  48.231  1.00  0.00    -0.268 OA
BRANCH  16  19
HETATM   19  C   UNL     1      18.327  45.929  47.327  1.00  0.00     0.150 C 
BRANCH  19  20
HETATM   20  C   UNL     1      19.476  44.895  47.284  1.00  0.00     0.254 C 
BRANCH  20  21
HETATM   21  N   UNL     1      20.837  45.463  47.648  1.00  0.00    -0.070 N 
HETATM   22  H   UNL     1      20.606  46.409  48.002  1.00  0.00     0.279 HD
BRANCH  21  23
HETATM   23  C   UNL     1      21.568  44.767  48.774  1.00  0.00     0.230 C 
HETATM   24  C   UNL     1      23.070  44.972  48.690  1.00  0.00     0.034 C 
ENDBRANCH  21  23
BRANCH  21  25
HETATM   25  C   UNL     1      21.721  45.699  46.439  1.00  0.00     0.230 C 
HETATM   26  C   UNL     1      21.259  44.873  45.252  1.00  0.00     0.034 C 
ENDBRANCH  21  25
ENDBRANCH  20  21
ENDBRANCH  19  20
ENDBRANCH  16  19
ENDBRANCH   2  15
BRANCH   1  27
HETATM   27  C   UNL     1      20.775  50.008  48.745  1.00  0.00     0.043 A 
HETATM   28  C   UNL     1      21.535  51.169  48.567  1.00  0.00     0.030 A 
HETATM   29  C   UNL     1      22.932  51.111  48.472  1.00  0.00     0.009 A 
HETATM   30  C   UNL     1      23.602  49.884  48.530  1.00  0.00    -0.058 A 
HETATM   31  C   UNL     1      22.848  48.718  48.674  1.00  0.00     0.009 A 
HETATM   32  C   UNL     1      21.455  48.782  48.776  1.00  0.00     0.030 A 
BRANCH  30  33
HETATM   33  C   UNL     1      25.104  49.814  48.410  1.00  0.00     0.034 C 
HETATM   34  C   UNL     1      25.698  48.673  49.224  1.00  0.00     0.010 C 
ENDBRANCH  30  33
ENDBRANCH   1  27
TORSDOF 9
ENDMDL
MODEL 9
REMARK VINA RESULT:      -7.1      2.961      6.657
REMARK  9 active torsions:
REMARK  status: ('A' for Active; 'I' for Inactive)
REMARK    1  A    between atoms: C_2  and  C_3 
REMARK    2  A    between atoms: C_6  and  N_7 
REMARK    3  A    between atoms: C_8  and  O_9 
REMARK    4  A    between atoms: C_8  and  C_10 
REMARK       I    between atoms: C_10  and  N_11 
REMARK    5  A    between atoms: N_11  and  C_12 
REMARK    6  A    between atoms: C_12  and  C_13 
REMARK    7  A    between atoms: C_13  and  N_14 
REMARK    8  A    between atoms: N_14  and  C_16 
REMARK    9  A    between atoms: N_14  and  C_18 
ROOT
HETATM    1  N   UNL     1      25.393  45.280  50.470  1.00  0.00    -0.254 N 
HETATM    2  C   UNL     1      24.898  44.312  51.455  1.00  0.00     0.256 C 
HETATM    3  C   UNL     1      25.803  44.245  52.655  1.00  0.00     0.034 A 
HETATM    4  C   UNL     1      27.167  44.427  52.418  1.00  0.00     0.048 A 
HETATM    5  N   UNL     1      27.576  44.711  51.113  1.00  0.00    -0.308 N 
HETATM    6  C   UNL     1      26.736  45.158  50.114  1.00  0.00     0.330 C 
HETATM    7  O   UNL     1      27.231  45.438  49.025  1.00  0.00    -0.246 OA
HETATM    8  C   UNL     1      25.370  43.938  53.950  1.00  0.00     0.015 A 
HETATM    9  C   UNL     1      26.298  43.816  54.984  1.00  0.00     0.001 A 
HETATM   10  C   UNL     1      27.659  43.987  54.730  1.00  0.00     0.002 A 
HETATM   11  C   UNL     1      28.100  44.287  53.441  1.00  0.00     0.030 A 
HETATM   12  H   UNL     1      28.563  44.822  50.910  1.00  0.00     0.170 HD
ENDROOT
BRANCH   2  13
HETATM   13  O   UNL     1      23.556  44.558  51.866  1.00  0.00    -0.359 OA
HETATM   14  H   UNL     1      22.995  44.069  51.235  1.00  0.00     0.213 HD
ENDBRANCH   2  13
BRANCH   2  15
HETATM   15  C   UNL     1      24.810  42.942  50.644  1.00  0.00     0.279 C 
HETATM   16  N   UNL     1      23.763  42.742  49.765  1.00  0.00    -0.355 N 
HETATM   17  H   UNL     1      23.252  43.572  49.479  1.00  0.00     0.162 HD
HETATM   18  O   UNL     1      25.570  41.999  50.899  1.00  0.00    -0.268 OA
BRANCH  16  19
HETATM   19  C   UNL     1      23.639  41.602  48.859  1.00  0.00     0.150 C 
BRANCH  19  20
HETATM   20  C   UNL     1      24.668  41.435  47.717  1.00  0.00     0.254 C 
BRANCH  20  21
HETATM   21  N   UNL     1      25.877  40.593  48.087  1.00  0.00    -0.070 N 
HETATM   22  H   UNL     1      25.741  40.427  49.101  1.00  0.00     0.279 HD
BRANCH  21  23
HETATM   23  C   UNL     1      25.954  39.224  47.451  1.00  0.00     0.230 C 
HETATM   24  C   UNL     1      24.840  39.001  46.443  1.00  0.00     0.034 C 
ENDBRANCH  21  23
BRANCH  21  25
HETATM   25  C   UNL     1      27.183  41.358  47.984  1.00  0.00     0.230 C 
HETATM   26  C   UNL     1      28.135  40.689  47.010  1.00  0.00     0.034 C 
ENDBRANCH  21  25
ENDBRANCH  20  21
ENDBRANCH  19  20
ENDBRANCH  16  19
ENDBRANCH   2  15
BRANCH   1  27
HETATM   27  C   UNL     1      24.548  46.252  49.850  1.00  0.00     0.043 A 
HETATM   28  C   UNL     1      23.532  45.892  48.958  1.00  0.00     0.030 A 
HETATM   29  C   UNL     1      22.737  46.867  48.337  1.00  0.00     0.009 A 
HETATM   30  C   UNL     1      22.956  48.227  48.577  1.00  0.00    -0.058 A 
HETATM   31  C   UNL     1      23.990  48.595  49.441  1.00  0.00     0.009 A 
HETATM   32  C   UNL     1      24.775  47.620  50.064  1.00  0.00     0.030 A 
BRANCH  30  33
HETATM   33  C   UNL     1      22.116  49.279  47.898  1.00  0.00     0.034 C 
HETATM   34  C   UNL     1      22.656  50.685  48.122  1.00  0.00     0.010 C 
ENDBRANCH  30  33
ENDBRANCH   1  27
TORSDOF 9
ENDMDL
MODEL 10
REMARK VINA RESULT:      -7.1     11.953     17.235
REMARK  9 active torsions:
REMARK  status: ('A' for Active; 'I' for Inactive)
REMARK    1  A    between atoms: C_2  and  C_3 
REMARK    2  A    between atoms: C_6  and  N_7 
REMARK    3  A    between atoms: C_8  and  O_9 
REMARK    4  A    between atoms: C_8  and  C_10 
REMARK       I    between atoms: C_10  and  N_11 
REMARK    5  A    between atoms: N_11  and  C_12 
REMARK    6  A    between atoms: C_12  and  C_13 
REMARK    7  A    between atoms: C_13  and  N_14 
REMARK    8  A    between atoms: N_14  and  C_16 
REMARK    9  A    between atoms: N_14  and  C_18 
ROOT
HETATM    1  N   UNL     1      17.473  51.261  47.000  1.00  0.00    -0.254 N 
HETATM    2  C   UNL     1      18.338  51.862  48.021  1.00  0.00     0.256 C 
HETATM    3  C   UNL     1      19.545  51.003  48.288  1.00  0.00     0.034 A 
HETATM    4  C   UNL     1      19.358  49.622  48.197  1.00  0.00     0.048 A 
HETATM    5  N   UNL     1      18.100  49.152  47.815  1.00  0.00    -0.308 N 
HETATM    6  C   UNL     1      17.136  49.922  47.198  1.00  0.00     0.330 C 
HETATM    7  O   UNL     1      16.093  49.373  46.848  1.00  0.00    -0.246 OA
HETATM    8  C   UNL     1      20.790  51.499  48.690  1.00  0.00     0.015 A 
HETATM    9  C   UNL     1      21.825  50.616  48.997  1.00  0.00     0.001 A 
HETATM   10  C   UNL     1      21.620  49.238  48.915  1.00  0.00     0.002 A 
HETATM   11  C   UNL     1      20.380  48.735  48.521  1.00  0.00     0.030 A 
HETATM   12  H   UNL     1      17.930  48.153  47.767  1.00  0.00     0.170 HD
ENDROOT
BRANCH   2  13
HETATM   13  O   UNL     1      18.745  53.192  47.707  1.00  0.00    -0.359 OA
HETATM   14  H   UNL     1      19.422  53.101  47.011  1.00  0.00     0.213 HD
ENDBRANCH   2  13
BRANCH   2  15
HETATM   15  C   UNL     1      17.385  52.037  49.286  1.00  0.00     0.279 C 
HETATM   16  N   UNL     1      16.593  53.164  49.387  1.00  0.00    -0.355 N 
HETATM   17  H   UNL     1      16.456  53.695  48.531  1.00  0.00     0.162 HD
HETATM   18  O   UNL     1      17.455  51.263  50.250  1.00  0.00    -0.268 OA
BRANCH  16  19
HETATM   19  C   UNL     1      15.575  53.382  50.413  1.00  0.00     0.150 C 
BRANCH  19  20
HETATM   20  C   UNL     1      14.938  54.783  50.552  1.00  0.00     0.254 C 
BRANCH  20  21
HETATM   21  N   UNL     1      13.823  54.860  51.581  1.00  0.00    -0.070 N 
HETATM   22  H   UNL     1      13.640  53.864  51.798  1.00  0.00     0.279 HD
BRANCH  21  23
HETATM   23  C   UNL     1      14.178  55.512  52.898  1.00  0.00     0.230 C 
HETATM   24  C   UNL     1      12.957  56.083  53.599  1.00  0.00     0.034 C 
ENDBRANCH  21  23
BRANCH  21  25
HETATM   25  C   UNL     1      12.522  55.384  51.004  1.00  0.00     0.230 C 
HETATM   26  C   UNL     1      11.913  54.389  50.033  1.00  0.00     0.034 C 
ENDBRANCH  21  25
ENDBRANCH  20  21
ENDBRANCH  19  20
ENDBRANCH  16  19
ENDBRANCH   2  15
BRANCH   1  27
HETATM   27  C   UNL     1      16.942  52.005  45.901  1.00  0.00     0.043 A 
HETATM   28  C   UNL     1      15.747  52.726  46.001  1.00  0.00     0.030 A 
HETATM   29  C   UNL     1      15.229  53.421  44.899  1.00  0.00     0.009 A 
HETATM   30  C   UNL     1      15.883  53.392  43.663  1.00  0.00    -0.058 A 
HETATM   31  C   UNL     1      17.058  52.647  43.547  1.00  0.00     0.009 A 
HETATM   32  C   UNL     1      17.576  51.961  44.651  1.00  0.00     0.030 A 
BRANCH  30  33
HETATM   33  C   UNL     1      15.320  54.123  42.470  1.00  0.00     0.034 C 
HETATM   34  C   UNL     1      16.149  53.903  41.212  1.00  0.00     0.010 C 
ENDBRANCH  30  33
ENDBRANCH   1  27
TORSDOF 9
ENDMDL
