MODEL 1
REMARK VINA RESULT:      -9.4      0.000      0.000
REMARK  6 active torsions:
REMARK  status: ('A' for Active; 'I' for Inactive)
REMARK    1  A    between atoms: O_2  and  C_3 
REMARK    2  A    between atoms: C_5  and  C_6 
REMARK    3  A    between atoms: C_12  and  C_13 
REMARK       I    between atoms: C_13  and  N_14 
REMARK    4  A    between atoms: N_14  and  C_15 
REMARK    5  A    between atoms: C_15  and  C_16 
REMARK    6  A    between atoms: C_23  and  C_24 
ROOT
HETATM    1  C   UNL     1      26.735  45.639  50.378  1.00  0.00     0.118 C 
HETATM    2  N   UNL     1      25.858  46.758  50.025  1.00  0.00    -0.365 N 
HETATM    3  C   UNL     1      24.584  46.574  49.591  1.00  0.00     0.138 A 
HETATM    4  N   UNL     1      24.094  45.310  49.363  1.00  0.00    -0.240 N 
HETATM    5  N   UNL     1      22.872  45.289  48.813  1.00  0.00    -0.181 NA
HETATM    6  C   UNL     1      22.536  46.581  48.772  1.00  0.00     0.160 A 
HETATM    7  C   UNL     1      23.556  47.438  49.258  1.00  0.00     0.096 A 
HETATM    8  C   UNL     1      24.853  44.087  49.534  1.00  0.00     0.221 C 
HETATM    9  C   UNL     1      26.359  44.395  49.553  1.00  0.00     0.066 C 
HETATM   10  H   UNL     1      26.334  47.654  49.933  1.00  0.00     0.161 HD
ENDROOT
BRANCH   7  11
HETATM   11  C   UNL     1      23.472  48.885  49.333  1.00  0.00     0.257 C 
HETATM   12  N   UNL     1      22.221  49.387  49.605  1.00  0.00    -0.352 N 
HETATM   13  H   UNL     1      21.435  48.761  49.501  1.00  0.00     0.163 HD
HETATM   14  O   UNL     1      24.449  49.600  49.135  1.00  0.00    -0.267 OA
BRANCH  12  15
HETATM   15  C   UNL     1      21.968  50.809  49.603  1.00  0.00     0.161 C 
BRANCH  15  16
HETATM   16  C   UNL     1      20.497  51.116  49.481  1.00  0.00    -0.041 A 
HETATM   17  C   UNL     1      20.034  52.035  48.527  1.00  0.00     0.009 A 
HETATM   18  C   UNL     1      18.666  52.272  48.374  1.00  0.00     0.001 A 
HETATM   19  C   UNL     1      17.747  51.585  49.161  1.00  0.00     0.000 A 
HETATM   20  C   UNL     1      18.193  50.660  50.104  1.00  0.00     0.001 A 
HETATM   21  C   UNL     1      19.560  50.424  50.262  1.00  0.00     0.009 A 
ENDBRANCH  15  16
ENDBRANCH  12  15
ENDBRANCH   7  11
BRANCH   1  22
HETATM   22  C   UNL     1      26.819  45.420  51.880  1.00  0.00    -0.033 A 
HETATM   23  C   UNL     1      26.247  46.364  52.752  1.00  0.00     0.046 A 
HETATM   24  C   UNL     1      26.303  46.211  54.142  1.00  0.00     0.068 A 
HETATM   25  C   UNL     1      26.923  45.087  54.682  1.00  0.00     0.037 A 
HETATM   26  C   UNL     1      27.477  44.126  53.836  1.00  0.00     0.003 A 
HETATM   27  C   UNL     1      27.422  44.288  52.451  1.00  0.00     0.009 A 
BRANCH  24  28
HETATM   28  O   UNL     1      25.716  47.223  54.852  1.00  0.00    -0.356 OA
HETATM   29  C   UNL     1      26.590  48.138  55.503  1.00  0.00     0.210 C 
ENDBRANCH  24  28
ENDBRANCH   1  22
BRANCH   8  30
HETATM   30  C   UNL     1      24.353  43.326  50.742  1.00  0.00     0.409 C 
HETATM   31  F   UNL     1      25.230  42.424  51.222  1.00  0.00    -0.169 F 
HETATM   32  F   UNL     1      24.029  44.154  51.762  1.00  0.00    -0.169 F 
HETATM   33  F   UNL     1      23.216  42.652  50.429  1.00  0.00    -0.169 F 
ENDBRANCH   8  30
TORSDOF 6
ENDMDL
MODEL 2
REMARK VINA RESULT:      -9.0      1.475      2.248
REMARK  6 active torsions:
REMARK  status: ('A' for Active; 'I' for Inactive)
REMARK    1  A    between atoms: O_2  and  C_3 
REMARK    2  A    between atoms: C_5  and  C_6 
REMARK    3  A    between atoms: C_12  and  C_13 
REMARK       I    between atoms: C_13  and  N_14 
REMARK    4  A    between atoms: N_14  and  C_15 
REMARK    5  A    between atoms: C_15  and  C_16 
REMARK    6  A    between atoms: C_23  and  C_24 
ROOT
HETATM    1  C   UNL     1      26.575  45.275  50.561  1.00  0.00     0.118 C 
HETATM    2  N   UNL     1      25.710  46.408  50.227  1.00  0.00    -0.365 N 
HETATM    3  C   UNL     1      24.539  46.256  49.556  1.00  0.00     0.138 A 
HETATM    4  N   UNL     1      24.165  45.028  49.065  1.00  0.00    -0.240 N 
HETATM    5  N   UNL     1      23.054  45.055  48.314  1.00  0.00    -0.181 NA
HETATM    6  C   UNL     1      22.660  46.327  48.402  1.00  0.00     0.160 A 
HETATM    7  C   UNL     1      23.535  47.131  49.178  1.00  0.00     0.096 A 
HETATM    8  C   UNL     1      24.950  43.815  49.186  1.00  0.00     0.221 C 
HETATM    9  C   UNL     1      26.412  44.161  49.511  1.00  0.00     0.066 C 
HETATM   10  H   UNL     1      26.145  47.322  50.350  1.00  0.00     0.161 HD
ENDROOT
BRANCH   7  11
HETATM   11  C   UNL     1      23.360  48.545  49.446  1.00  0.00     0.257 C 
HETATM   12  N   UNL     1      22.056  48.978  49.494  1.00  0.00    -0.352 N 
HETATM   13  H   UNL     1      21.348  48.362  49.120  1.00  0.00     0.163 HD
HETATM   14  O   UNL     1      24.319  49.299  49.588  1.00  0.00    -0.267 OA
BRANCH  12  15
HETATM   15  C   UNL     1      21.736  50.378  49.646  1.00  0.00     0.161 C 
BRANCH  15  16
HETATM   16  C   UNL     1      20.640  50.806  48.704  1.00  0.00    -0.041 A 
HETATM   17  C   UNL     1      20.377  50.080  47.532  1.00  0.00     0.009 A 
HETATM   18  C   UNL     1      19.322  50.442  46.692  1.00  0.00     0.001 A 
HETATM   19  C   UNL     1      18.512  51.526  47.019  1.00  0.00     0.000 A 
HETATM   20  C   UNL     1      18.754  52.250  48.185  1.00  0.00     0.001 A 
HETATM   21  C   UNL     1      19.811  51.891  49.025  1.00  0.00     0.009 A 
ENDBRANCH  15  16
ENDBRANCH  12  15
ENDBRANCH   7  11
BRANCH   1  22
HETATM   22  C   UNL     1      26.419  44.832  52.006  1.00  0.00    -0.033 A 
HETATM   23  C   UNL     1      27.275  43.844  52.526  1.00  0.00     0.046 A 
HETATM   24  C   UNL     1      27.167  43.398  53.848  1.00  0.00     0.068 A 
HETATM   25  C   UNL     1      26.202  43.957  54.682  1.00  0.00     0.037 A 
HETATM   26  C   UNL     1      25.357  44.954  54.195  1.00  0.00     0.003 A 
HETATM   27  C   UNL     1      25.467  45.390  52.874  1.00  0.00     0.009 A 
BRANCH  24  28
HETATM   28  O   UNL     1      28.060  42.421  54.195  1.00  0.00    -0.356 OA
HETATM   29  C   UNL     1      28.158  41.303  53.321  1.00  0.00     0.210 C 
ENDBRANCH  24  28
ENDBRANCH   1  22
BRANCH   8  30
HETATM   30  C   UNL     1      24.297  42.865  50.165  1.00  0.00     0.409 C 
HETATM   31  F   UNL     1      23.421  42.013  49.601  1.00  0.00    -0.169 F 
HETATM   32  F   UNL     1      25.210  42.120  50.831  1.00  0.00    -0.169 F 
HETATM   33  F   UNL     1      23.622  43.566  51.113  1.00  0.00    -0.169 F 
ENDBRANCH   8  30
TORSDOF 6
ENDMDL
MODEL 3
REMARK VINA RESULT:      -8.7      4.240      8.274
REMARK  6 active torsions:
REMARK  status: ('A' for Active; 'I' for Inactive)
REMARK    1  A    between atoms: O_2  and  C_3 
REMARK    2  A    between atoms: C_5  and  C_6 
REMARK    3  A    between atoms: C_12  and  C_13 
REMARK       I    between atoms: C_13  and  N_14 
REMARK    4  A    between atoms: N_14  and  C_15 
REMARK    5  A    between atoms: C_15  and  C_16 
REMARK    6  A    between atoms: C_23  and  C_24 
ROOT
HETATM    1  C   UNL     1      18.755  48.156  49.661  1.00  0.00     0.118 C 
HETATM    2  N   UNL     1      20.023  47.433  49.545  1.00  0.00    -0.365 N 
HETATM    3  C   UNL     1      20.350  46.709  48.442  1.00  0.00     0.138 A 
HETATM    4  N   UNL     1      19.446  46.540  47.420  1.00  0.00    -0.240 N 
HETATM    5  N   UNL     1      19.857  45.697  46.461  1.00  0.00    -0.181 NA
HETATM    6  C   UNL     1      21.099  45.389  46.841  1.00  0.00     0.160 A 
HETATM    7  C   UNL     1      21.477  46.000  48.065  1.00  0.00     0.096 A 
HETATM    8  C   UNL     1      18.098  47.073  47.411  1.00  0.00     0.221 C 
HETATM    9  C   UNL     1      17.665  47.443  48.839  1.00  0.00     0.066 C 
HETATM   10  H   UNL     1      20.540  47.344  50.419  1.00  0.00     0.161 HD
ENDROOT
BRANCH   7  11
HETATM   11  C   UNL     1      22.763  45.848  48.718  1.00  0.00     0.257 C 
HETATM   12  N   UNL     1      23.147  46.903  49.513  1.00  0.00    -0.352 N 
HETATM   13  H   UNL     1      22.645  47.773  49.405  1.00  0.00     0.163 HD
HETATM   14  O   UNL     1      23.464  44.857  48.541  1.00  0.00    -0.267 OA
BRANCH  12  15
HETATM   15  C   UNL     1      24.448  46.935  50.138  1.00  0.00     0.161 C 
BRANCH  15  16
HETATM   16  C   UNL     1      25.312  48.034  49.574  1.00  0.00    -0.041 A 
HETATM   17  C   UNL     1      26.705  48.011  49.747  1.00  0.00     0.009 A 
HETATM   18  C   UNL     1      27.509  48.996  49.172  1.00  0.00     0.001 A 
HETATM   19  C   UNL     1      26.934  50.008  48.408  1.00  0.00     0.000 A 
HETATM   20  C   UNL     1      25.553  50.037  48.219  1.00  0.00     0.001 A 
HETATM   21  C   UNL     1      24.746  49.054  48.796  1.00  0.00     0.009 A 
ENDBRANCH  15  16
ENDBRANCH  12  15
ENDBRANCH   7  11
BRANCH   1  22
HETATM   22  C   UNL     1      18.908  49.642  49.383  1.00  0.00    -0.033 A 
HETATM   23  C   UNL     1      17.896  50.532  49.788  1.00  0.00     0.046 A 
HETATM   24  C   UNL     1      17.987  51.908  49.550  1.00  0.00     0.068 A 
HETATM   25  C   UNL     1      19.116  52.419  48.915  1.00  0.00     0.037 A 
HETATM   26  C   UNL     1      20.142  51.559  48.525  1.00  0.00     0.003 A 
HETATM   27  C   UNL     1      20.042  50.187  48.761  1.00  0.00     0.009 A 
BRANCH  24  28
HETATM   28  O   UNL     1      16.913  52.635  49.988  1.00  0.00    -0.356 OA
HETATM   29  C   UNL     1      15.630  52.211  49.544  1.00  0.00     0.210 C 
ENDBRANCH  24  28
ENDBRANCH   1  22
BRANCH   8  30
HETATM   30  C   UNL     1      17.988  48.202  46.410  1.00  0.00     0.409 C 
HETATM   31  F   UNL     1      19.153  48.830  46.163  1.00  0.00    -0.169 F 
HETATM   32  F   UNL     1      17.500  47.779  45.222  1.00  0.00    -0.169 F 
HETATM   33  F   UNL     1      17.115  49.140  46.863  1.00  0.00    -0.169 F 
ENDBRANCH   8  30
TORSDOF 6
ENDMDL
MODEL 4
REMARK VINA RESULT:      -8.6     10.954     12.122
REMARK  6 active torsions:
REMARK  status: ('A' for Active; 'I' for Inactive)
REMARK    1  A    between atoms: O_2  and  C_3 
REMARK    2  A    between atoms: C_5  and  C_6 
REMARK    3  A    between atoms: C_12  and  C_13 
REMARK       I    between atoms: C_13  and  N_14 
REMARK    4  A    between atoms: N_14  and  C_15 
REMARK    5  A    between atoms: C_15  and  C_16 
REMARK    6  A    between atoms: C_23  and  C_24 
ROOT
HETATM    1  C   UNL     1      28.406  51.753  41.441  1.00  0.00     0.118 C 
HETATM    2  N   UNL     1      27.305  50.838  41.133  1.00  0.00    -0.365 N 
HETATM    3  C   UNL     1      26.992  50.480  39.860  1.00  0.00     0.138 A 
HETATM    4  N   UNL     1      27.639  51.052  38.790  1.00  0.00    -0.240 N 
HETATM    5  N   UNL     1      27.136  50.701  37.597  1.00  0.00    -0.181 NA
HETATM    6  C   UNL     1      26.196  49.808  37.915  1.00  0.00     0.160 A 
HETATM    7  C   UNL     1      26.064  49.611  39.314  1.00  0.00     0.096 A 
HETATM    8  C   UNL     1      28.667  52.068  38.892  1.00  0.00     0.221 C 
HETATM    9  C   UNL     1      28.615  52.737  40.276  1.00  0.00     0.066 C 
HETATM   10  H   UNL     1      26.674  50.658  41.913  1.00  0.00     0.161 HD
ENDROOT
BRANCH   7  11
HETATM   11  C   UNL     1      25.127  48.703  39.949  1.00  0.00     0.257 C 
HETATM   12  N   UNL     1      23.801  48.934  39.667  1.00  0.00    -0.352 N 
HETATM   13  H   UNL     1      23.562  49.823  39.251  1.00  0.00     0.163 HD
HETATM   14  O   UNL     1      25.503  47.815  40.708  1.00  0.00    -0.267 OA
BRANCH  12  15
HETATM   15  C   UNL     1      22.755  48.178  40.314  1.00  0.00     0.161 C 
BRANCH  15  16
HETATM   16  C   UNL     1      21.531  49.020  40.567  1.00  0.00    -0.041 A 
HETATM   17  C   UNL     1      20.327  48.429  40.981  1.00  0.00     0.009 A 
HETATM   18  C   UNL     1      19.212  49.216  41.274  1.00  0.00     0.001 A 
HETATM   19  C   UNL     1      19.290  50.602  41.169  1.00  0.00     0.000 A 
HETATM   20  C   UNL     1      20.483  51.203  40.771  1.00  0.00     0.001 A 
HETATM   21  C   UNL     1      21.598  50.418  40.474  1.00  0.00     0.009 A 
ENDBRANCH  15  16
ENDBRANCH  12  15
ENDBRANCH   7  11
BRANCH   1  22
HETATM   22  C   UNL     1      29.655  51.021  41.905  1.00  0.00    -0.033 A 
HETATM   23  C   UNL     1      30.793  51.759  42.279  1.00  0.00     0.046 A 
HETATM   24  C   UNL     1      31.969  51.132  42.707  1.00  0.00     0.068 A 
HETATM   25  C   UNL     1      32.014  49.742  42.785  1.00  0.00     0.037 A 
HETATM   26  C   UNL     1      30.890  48.991  42.440  1.00  0.00     0.003 A 
HETATM   27  C   UNL     1      29.723  49.623  42.010  1.00  0.00     0.009 A 
BRANCH  24  28
HETATM   28  O   UNL     1      32.991  51.987  43.018  1.00  0.00    -0.356 OA
HETATM   29  C   UNL     1      33.468  51.953  44.358  1.00  0.00     0.210 C 
ENDBRANCH  24  28
ENDBRANCH   1  22
BRANCH   8  30
HETATM   30  C   UNL     1      30.015  51.487  38.527  1.00  0.00     0.409 C 
HETATM   31  F   UNL     1      31.051  52.062  39.166  1.00  0.00    -0.169 F 
HETATM   32  F   UNL     1      30.077  50.159  38.775  1.00  0.00    -0.169 F 
HETATM   33  F   UNL     1      30.237  51.631  37.194  1.00  0.00    -0.169 F 
ENDBRANCH   8  30
TORSDOF 6
ENDMDL
MODEL 5
REMARK VINA RESULT:      -8.5     10.842     12.845
REMARK  6 active torsions:
REMARK  status: ('A' for Active; 'I' for Inactive)
REMARK    1  A    between atoms: O_2  and  C_3 
REMARK    2  A    between atoms: C_5  and  C_6 
REMARK    3  A    between atoms: C_12  and  C_13 
REMARK       I    between atoms: C_13  and  N_14 
REMARK    4  A    between atoms: N_14  and  C_15 
REMARK    5  A    between atoms: C_15  and  C_16 
REMARK    6  A    between atoms: C_23  and  C_24 
ROOT
HETATM    1  C   UNL     1      28.318  51.555  41.462  1.00  0.00     0.118 C 
HETATM    2  N   UNL     1      27.262  50.595  41.138  1.00  0.00    -0.365 N 
HETATM    3  C   UNL     1      26.953  50.257  39.859  1.00  0.00     0.138 A 
HETATM    4  N   UNL     1      27.558  50.891  38.800  1.00  0.00    -0.240 N 
HETATM    5  N   UNL     1      27.060  50.549  37.602  1.00  0.00    -0.181 NA
HETATM    6  C   UNL     1      26.170  49.601  37.904  1.00  0.00     0.160 A 
HETATM    7  C   UNL     1      26.064  49.358  39.297  1.00  0.00     0.096 A 
HETATM    8  C   UNL     1      28.535  51.955  38.921  1.00  0.00     0.221 C 
HETATM    9  C   UNL     1      28.465  52.581  40.323  1.00  0.00     0.066 C 
HETATM   10  H   UNL     1      26.650  50.361  41.919  1.00  0.00     0.161 HD
ENDROOT
BRANCH   7  11
HETATM   11  C   UNL     1      25.182  48.386  39.916  1.00  0.00     0.257 C 
HETATM   12  N   UNL     1      25.767  47.583  40.867  1.00  0.00    -0.352 N 
HETATM   13  H   UNL     1      26.776  47.560  40.900  1.00  0.00     0.163 HD
HETATM   14  O   UNL     1      24.006  48.277  39.583  1.00  0.00    -0.267 OA
BRANCH  12  15
HETATM   15  C   UNL     1      25.037  46.503  41.487  1.00  0.00     0.161 C 
BRANCH  15  16
HETATM   16  C   UNL     1      25.876  45.256  41.605  1.00  0.00    -0.041 A 
HETATM   17  C   UNL     1      25.713  44.381  42.690  1.00  0.00     0.009 A 
HETATM   18  C   UNL     1      26.448  43.197  42.767  1.00  0.00     0.001 A 
HETATM   19  C   UNL     1      27.345  42.867  41.754  1.00  0.00     0.000 A 
HETATM   20  C   UNL     1      27.509  43.720  40.664  1.00  0.00     0.001 A 
HETATM   21  C   UNL     1      26.778  44.908  40.588  1.00  0.00     0.009 A 
ENDBRANCH  15  16
ENDBRANCH  12  15
ENDBRANCH   7  11
BRANCH   1  22
HETATM   22  C   UNL     1      29.608  50.876  41.892  1.00  0.00    -0.033 A 
HETATM   23  C   UNL     1      30.719  51.660  42.252  1.00  0.00     0.046 A 
HETATM   24  C   UNL     1      31.931  51.082  42.650  1.00  0.00     0.068 A 
HETATM   25  C   UNL     1      32.039  49.695  42.711  1.00  0.00     0.037 A 
HETATM   26  C   UNL     1      30.943  48.898  42.380  1.00  0.00     0.003 A 
HETATM   27  C   UNL     1      29.740  49.481  41.980  1.00  0.00     0.009 A 
BRANCH  24  28
HETATM   28  O   UNL     1      32.919  51.979  42.950  1.00  0.00    -0.356 OA
HETATM   29  C   UNL     1      33.424  51.954  44.280  1.00  0.00     0.210 C 
ENDBRANCH  24  28
ENDBRANCH   1  22
BRANCH   8  30
HETATM   30  C   UNL     1      29.906  51.454  38.526  1.00  0.00     0.409 C 
HETATM   31  F   UNL     1      30.101  50.144  38.767  1.00  0.00    -0.169 F 
HETATM   32  F   UNL     1      30.162  51.663  37.214  1.00  0.00    -0.169 F 
HETATM   33  F   UNL     1      30.864  52.134  39.209  1.00  0.00    -0.169 F 
ENDBRANCH   8  30
TORSDOF 6
ENDMDL
MODEL 6
REMARK VINA RESULT:      -8.5      3.638      8.697
REMARK  6 active torsions:
REMARK  status: ('A' for Active; 'I' for Inactive)
REMARK    1  A    between atoms: O_2  and  C_3 
REMARK    2  A    between atoms: C_5  and  C_6 
REMARK    3  A    between atoms: C_12  and  C_13 
REMARK       I    between atoms: C_13  and  N_14 
REMARK    4  A    between atoms: N_14  and  C_15 
REMARK    5  A    between atoms: C_15  and  C_16 
REMARK    6  A    between atoms: C_23  and  C_24 
ROOT
HETATM    1  C   UNL     1      19.050  48.858  49.899  1.00  0.00     0.118 C 
HETATM    2  N   UNL     1      20.491  48.598  49.928  1.00  0.00    -0.365 N 
HETATM    3  C   UNL     1      21.115  47.856  48.976  1.00  0.00     0.138 A 
HETATM    4  N   UNL     1      20.394  47.225  47.991  1.00  0.00    -0.240 N 
HETATM    5  N   UNL     1      21.127  46.425  47.204  1.00  0.00    -0.181 NA
HETATM    6  C   UNL     1      22.371  46.622  47.647  1.00  0.00     0.160 A 
HETATM    7  C   UNL     1      22.437  47.518  48.744  1.00  0.00     0.096 A 
HETATM    8  C   UNL     1      18.949  47.261  47.873  1.00  0.00     0.221 C 
HETATM    9  C   UNL     1      18.318  47.693  49.207  1.00  0.00     0.066 C 
HETATM   10  H   UNL     1      20.945  48.835  50.809  1.00  0.00     0.161 HD
ENDROOT
BRANCH   7  11
HETATM   11  C   UNL     1      23.652  47.920  49.429  1.00  0.00     0.257 C 
HETATM   12  N   UNL     1      24.596  46.931  49.580  1.00  0.00    -0.352 N 
HETATM   13  H   UNL     1      24.299  45.978  49.428  1.00  0.00     0.163 HD
HETATM   14  O   UNL     1      23.801  49.058  49.865  1.00  0.00    -0.267 OA
BRANCH  12  15
HETATM   15  C   UNL     1      25.805  47.160  50.335  1.00  0.00     0.161 C 
BRANCH  15  16
HETATM   16  C   UNL     1      25.766  46.474  51.677  1.00  0.00    -0.041 A 
HETATM   17  C   UNL     1      26.074  47.177  52.851  1.00  0.00     0.009 A 
HETATM   18  C   UNL     1      25.978  46.556  54.098  1.00  0.00     0.001 A 
HETATM   19  C   UNL     1      25.561  45.231  54.186  1.00  0.00     0.000 A 
HETATM   20  C   UNL     1      25.241  44.523  53.029  1.00  0.00     0.001 A 
HETATM   21  C   UNL     1      25.340  45.141  51.780  1.00  0.00     0.009 A 
ENDBRANCH  15  16
ENDBRANCH  12  15
ENDBRANCH   7  11
BRANCH   1  22
HETATM   22  C   UNL     1      18.722  50.241  49.361  1.00  0.00    -0.033 A 
HETATM   23  C   UNL     1      17.379  50.650  49.271  1.00  0.00     0.046 A 
HETATM   24  C   UNL     1      17.024  51.911  48.777  1.00  0.00     0.068 A 
HETATM   25  C   UNL     1      18.024  52.796  48.382  1.00  0.00     0.037 A 
HETATM   26  C   UNL     1      19.363  52.421  48.483  1.00  0.00     0.003 A 
HETATM   27  C   UNL     1      19.709  51.160  48.972  1.00  0.00     0.009 A 
BRANCH  24  28
HETATM   28  O   UNL     1      15.678  52.150  48.736  1.00  0.00    -0.356 OA
HETATM   29  C   UNL     1      15.062  52.553  49.954  1.00  0.00     0.210 C 
ENDBRANCH  24  28
ENDBRANCH   1  22
BRANCH   8  30
HETATM   30  C   UNL     1      18.543  48.105  46.685  1.00  0.00     0.409 C 
HETATM   31  F   UNL     1      19.346  49.162  46.463  1.00  0.00    -0.169 F 
HETATM   32  F   UNL     1      18.504  47.383  45.541  1.00  0.00    -0.169 F 
HETATM   33  F   UNL     1      17.286  48.588  46.867  1.00  0.00    -0.169 F 
ENDBRANCH   8  30
TORSDOF 6
ENDMDL
MODEL 7
REMARK VINA RESULT:      -8.4      2.611      4.217
REMARK  6 active torsions:
REMARK  status: ('A' for Active; 'I' for Inactive)
REMARK    1  A    between atoms: O_2  and  C_3 
REMARK    2  A    between atoms: C_5  and  C_6 
REMARK    3  A    between atoms: C_12  and  C_13 
REMARK       I    between atoms: C_13  and  N_14 
REMARK    4  A    between atoms: N_14  and  C_15 
REMARK    5  A    between atoms: C_15  and  C_16 
REMARK    6  A    between atoms: C_23  and  C_24 
ROOT
HETATM    1  C   UNL     1      24.156  44.406  51.107  1.00  0.00     0.118 C 
HETATM    2  N   UNL     1      23.404  45.428  50.376  1.00  0.00    -0.365 N 
HETATM    3  C   UNL     1      23.995  46.538  49.863  1.00  0.00     0.138 A 
HETATM    4  N   UNL     1      25.323  46.801  50.102  1.00  0.00    -0.240 N 
HETATM    5  N   UNL     1      25.735  47.994  49.645  1.00  0.00    -0.181 NA
HETATM    6  C   UNL     1      24.656  48.466  49.017  1.00  0.00     0.160 A 
HETATM    7  C   UNL     1      23.536  47.599  49.101  1.00  0.00     0.096 A 
HETATM    8  C   UNL     1      26.198  45.973  50.908  1.00  0.00     0.221 C 
HETATM    9  C   UNL     1      25.368  45.046  51.810  1.00  0.00     0.066 C 
HETATM   10  H   UNL     1      22.392  45.348  50.461  1.00  0.00     0.161 HD
ENDROOT
BRANCH   7  11
HETATM   11  C   UNL     1      22.233  47.849  48.515  1.00  0.00     0.257 C 
HETATM   12  N   UNL     1      21.244  48.192  49.406  1.00  0.00    -0.352 N 
HETATM   13  H   UNL     1      21.420  48.021  50.386  1.00  0.00     0.163 HD
HETATM   14  O   UNL     1      22.033  47.730  47.310  1.00  0.00    -0.267 OA
BRANCH  12  15
HETATM   15  C   UNL     1      19.876  48.365  48.977  1.00  0.00     0.161 C 
BRANCH  15  16
HETATM   16  C   UNL     1      19.433  49.802  49.085  1.00  0.00    -0.041 A 
HETATM   17  C   UNL     1      20.112  50.816  48.393  1.00  0.00     0.009 A 
HETATM   18  C   UNL     1      19.664  52.137  48.445  1.00  0.00     0.001 A 
HETATM   19  C   UNL     1      18.525  52.458  49.179  1.00  0.00     0.000 A 
HETATM   20  C   UNL     1      17.834  51.459  49.863  1.00  0.00     0.001 A 
HETATM   21  C   UNL     1      18.283  50.138  49.814  1.00  0.00     0.009 A 
ENDBRANCH  15  16
ENDBRANCH  12  15
ENDBRANCH   7  11
BRANCH   1  22
HETATM   22  C   UNL     1      24.472  43.193  50.248  1.00  0.00    -0.033 A 
HETATM   23  C   UNL     1      25.335  42.198  50.742  1.00  0.00     0.046 A 
HETATM   24  C   UNL     1      25.662  41.065  49.987  1.00  0.00     0.068 A 
HETATM   25  C   UNL     1      25.104  40.903  48.721  1.00  0.00     0.037 A 
HETATM   26  C   UNL     1      24.227  41.865  48.220  1.00  0.00     0.003 A 
HETATM   27  C   UNL     1      23.911  42.995  48.976  1.00  0.00     0.009 A 
BRANCH  24  28
HETATM   28  O   UNL     1      26.527  40.201  50.599  1.00  0.00    -0.356 OA
HETATM   29  C   UNL     1      27.707  39.861  49.881  1.00  0.00     0.210 C 
ENDBRANCH  24  28
ENDBRANCH   1  22
BRANCH   8  30
HETATM   30  C   UNL     1      27.200  45.259  50.027  1.00  0.00     0.409 C 
HETATM   31  F   UNL     1      26.646  44.597  48.994  1.00  0.00    -0.169 F 
HETATM   32  F   UNL     1      28.119  46.109  49.513  1.00  0.00    -0.169 F 
HETATM   33  F   UNL     1      27.896  44.350  50.759  1.00  0.00    -0.169 F 
ENDBRANCH   8  30
TORSDOF 6
ENDMDL
MODEL 8
REMARK VINA RESULT:      -8.4     12.920     15.563
REMARK  6 active torsions:
REMARK  status: ('A' for Active; 'I' for Inactive)
REMARK    1  A    between atoms: O_2  and  C_3 
REMARK    2  A    between atoms: C_5  and  C_6 
REMARK    3  A    between atoms: C_12  and  C_13 
REMARK       I    between atoms: C_13  and  N_14 
REMARK    4  A    between atoms: N_14  and  C_15 
REMARK    5  A    between atoms: C_15  and  C_16 
REMARK    6  A    between atoms: C_23  and  C_24 
ROOT
HETATM    1  C   UNL     1      31.751  51.550  43.064  1.00  0.00     0.118 C 
HETATM    2  N   UNL     1      33.138  51.997  42.920  1.00  0.00    -0.365 N 
HETATM    3  C   UNL     1      34.077  51.258  42.274  1.00  0.00     0.138 A 
HETATM    4  N   UNL     1      33.783  49.996  41.813  1.00  0.00    -0.240 N 
HETATM    5  N   UNL     1      34.840  49.337  41.316  1.00  0.00    -0.181 NA
HETATM    6  C   UNL     1      35.820  50.242  41.381  1.00  0.00     0.160 A 
HETATM    7  C   UNL     1      35.407  51.471  41.957  1.00  0.00     0.096 A 
HETATM    8  C   UNL     1      32.504  49.334  41.974  1.00  0.00     0.221 C 
HETATM    9  C   UNL     1      31.693  50.012  43.091  1.00  0.00     0.066 C 
HETATM   10  H   UNL     1      33.389  52.790  43.510  1.00  0.00     0.161 HD
ENDROOT
BRANCH   7  11
HETATM   11  C   UNL     1      36.253  52.633  42.154  1.00  0.00     0.257 C 
HETATM   12  N   UNL     1      36.680  52.836  43.445  1.00  0.00    -0.352 N 
HETATM   13  H   UNL     1      36.205  52.328  44.177  1.00  0.00     0.163 HD
HETATM   14  O   UNL     1      36.535  53.390  41.230  1.00  0.00    -0.267 OA
BRANCH  12  15
HETATM   15  C   UNL     1      37.439  54.011  43.807  1.00  0.00     0.161 C 
BRANCH  15  16
HETATM   16  C   UNL     1      38.137  53.839  45.132  1.00  0.00    -0.041 A 
HETATM   17  C   UNL     1      37.861  54.700  46.205  1.00  0.00     0.009 A 
HETATM   18  C   UNL     1      38.463  54.502  47.448  1.00  0.00     0.001 A 
HETATM   19  C   UNL     1      39.338  53.436  47.638  1.00  0.00     0.000 A 
HETATM   20  C   UNL     1      39.613  52.566  46.584  1.00  0.00     0.001 A 
HETATM   21  C   UNL     1      39.015  52.764  45.338  1.00  0.00     0.009 A 
ENDBRANCH  15  16
ENDBRANCH  12  15
ENDBRANCH   7  11
BRANCH   1  22
HETATM   22  C   UNL     1      30.821  52.216  42.063  1.00  0.00    -0.033 A 
HETATM   23  C   UNL     1      29.478  51.803  41.981  1.00  0.00     0.046 A 
HETATM   24  C   UNL     1      28.584  52.381  41.072  1.00  0.00     0.068 A 
HETATM   25  C   UNL     1      29.023  53.405  40.238  1.00  0.00     0.037 A 
HETATM   26  C   UNL     1      30.344  53.847  40.317  1.00  0.00     0.003 A 
HETATM   27  C   UNL     1      31.232  53.262  41.222  1.00  0.00     0.009 A 
BRANCH  24  28
HETATM   28  O   UNL     1      27.320  51.857  41.104  1.00  0.00    -0.356 OA
HETATM   29  C   UNL     1      27.179  50.502  40.691  1.00  0.00     0.210 C 
ENDBRANCH  24  28
ENDBRANCH   1  22
BRANCH   8  30
HETATM   30  C   UNL     1      31.789  49.249  40.644  1.00  0.00     0.409 C 
HETATM   31  F   UNL     1      30.446  49.263  40.742  1.00  0.00    -0.169 F 
HETATM   32  F   UNL     1      32.142  50.257  39.814  1.00  0.00    -0.169 F 
HETATM   33  F   UNL     1      32.131  48.099  40.005  1.00  0.00    -0.169 F 
ENDBRANCH   8  30
TORSDOF 6
ENDMDL
MODEL 9
REMARK VINA RESULT:      -8.2     11.163     13.236
REMARK  6 active torsions:
REMARK  status: ('A' for Active; 'I' for Inactive)
REMARK    1  A    between atoms: O_2  and  C_3 
REMARK    2  A    between atoms: C_5  and  C_6 
REMARK    3  A    between atoms: C_12  and  C_13 
REMARK       I    between atoms: C_13  and  N_14 
REMARK    4  A    between atoms: N_14  and  C_15 
REMARK    5  A    between atoms: C_15  and  C_16 
REMARK    6  A    between atoms: C_23  and  C_24 
ROOT
HETATM    1  C   UNL     1      28.511  51.818  41.626  1.00  0.00     0.118 C 
HETATM    2  N   UNL     1      27.631  50.672  41.388  1.00  0.00    -0.365 N 
HETATM    3  C   UNL     1      27.341  50.224  40.139  1.00  0.00     0.138 A 
HETATM    4  N   UNL     1      27.785  50.903  39.029  1.00  0.00    -0.240 N 
HETATM    5  N   UNL     1      27.313  50.422  37.869  1.00  0.00    -0.181 NA
HETATM    6  C   UNL     1      26.618  49.347  38.248  1.00  0.00     0.160 A 
HETATM    7  C   UNL     1      26.607  49.156  39.654  1.00  0.00     0.096 A 
HETATM    8  C   UNL     1      28.560  52.127  39.063  1.00  0.00     0.221 C 
HETATM    9  C   UNL     1      28.431  52.798  40.441  1.00  0.00     0.066 C 
HETATM   10  H   UNL     1      27.099  50.372  42.204  1.00  0.00     0.161 HD
ENDROOT
BRANCH   7  11
HETATM   11  C   UNL     1      25.935  48.075  40.349  1.00  0.00     0.257 C 
HETATM   12  N   UNL     1      26.763  47.192  41.002  1.00  0.00    -0.352 N 
HETATM   13  H   UNL     1      27.745  47.214  40.767  1.00  0.00     0.163 HD
HETATM   14  O   UNL     1      24.714  47.950  40.323  1.00  0.00    -0.267 OA
BRANCH  12  15
HETATM   15  C   UNL     1      26.239  46.010  41.645  1.00  0.00     0.161 C 
BRANCH  15  16
HETATM   16  C   UNL     1      26.867  44.752  41.101  1.00  0.00    -0.041 A 
HETATM   17  C   UNL     1      27.680  44.794  39.957  1.00  0.00     0.009 A 
HETATM   18  C   UNL     1      28.310  43.639  39.490  1.00  0.00     0.001 A 
HETATM   19  C   UNL     1      28.146  42.433  40.166  1.00  0.00     0.000 A 
HETATM   20  C   UNL     1      27.351  42.379  41.310  1.00  0.00     0.001 A 
HETATM   21  C   UNL     1      26.716  43.532  41.777  1.00  0.00     0.009 A 
ENDBRANCH  15  16
ENDBRANCH  12  15
ENDBRANCH   7  11
BRANCH   1  22
HETATM   22  C   UNL     1      29.915  51.397  42.026  1.00  0.00    -0.033 A 
HETATM   23  C   UNL     1      30.277  50.039  41.964  1.00  0.00     0.046 A 
HETATM   24  C   UNL     1      31.556  49.600  42.328  1.00  0.00     0.068 A 
HETATM   25  C   UNL     1      32.505  50.530  42.744  1.00  0.00     0.037 A 
HETATM   26  C   UNL     1      32.176  51.885  42.791  1.00  0.00     0.003 A 
HETATM   27  C   UNL     1      30.897  52.314  42.432  1.00  0.00     0.009 A 
BRANCH  24  28
HETATM   28  O   UNL     1      31.745  48.249  42.230  1.00  0.00    -0.356 OA
HETATM   29  C   UNL     1      32.303  47.768  41.013  1.00  0.00     0.210 C 
ENDBRANCH  24  28
ENDBRANCH   1  22
BRANCH   8  30
HETATM   30  C   UNL     1      29.984  51.857  38.629  1.00  0.00     0.409 C 
HETATM   31  F   UNL     1      30.898  52.642  39.230  1.00  0.00    -0.169 F 
HETATM   32  F   UNL     1      30.346  50.573  38.854  1.00  0.00    -0.169 F 
HETATM   33  F   UNL     1      30.106  52.053  37.290  1.00  0.00    -0.169 F 
ENDBRANCH   8  30
TORSDOF 6
ENDMDL
MODEL 10
REMARK VINA RESULT:      -8.0      3.998      8.281
REMARK  6 active torsions:
REMARK  status: ('A' for Active; 'I' for Inactive)
REMARK    1  A    between atoms: O_2  and  C_3 
REMARK    2  A    between atoms: C_5  and  C_6 
REMARK    3  A    between atoms: C_12  and  C_13 
REMARK       I    between atoms: C_13  and  N_14 
REMARK    4  A    between atoms: N_14  and  C_15 
REMARK    5  A    between atoms: C_15  and  C_16 
REMARK    6  A    between atoms: C_23  and  C_24 
ROOT
HETATM    1  C   UNL     1      18.884  48.125  50.089  1.00  0.00     0.118 C 
HETATM    2  N   UNL     1      19.736  47.017  49.653  1.00  0.00    -0.365 N 
HETATM    3  C   UNL     1      19.380  46.179  48.645  1.00  0.00     0.138 A 
HETATM    4  N   UNL     1      18.142  46.275  48.055  1.00  0.00    -0.240 N 
HETATM    5  N   UNL     1      17.880  45.303  47.170  1.00  0.00    -0.181 NA
HETATM    6  C   UNL     1      19.024  44.615  47.129  1.00  0.00     0.160 A 
HETATM    7  C   UNL     1      20.010  45.119  48.016  1.00  0.00     0.096 A 
HETATM    8  C   UNL     1      17.116  47.226  48.437  1.00  0.00     0.221 C 
HETATM    9  C   UNL     1      17.404  47.781  49.842  1.00  0.00     0.066 C 
HETATM   10  H   UNL     1      20.504  46.799  50.287  1.00  0.00     0.161 HD
ENDROOT
BRANCH   7  11
HETATM   11  C   UNL     1      21.345  44.576  48.185  1.00  0.00     0.257 C 
HETATM   12  N   UNL     1      21.757  44.423  49.488  1.00  0.00    -0.352 N 
HETATM   13  H   UNL     1      21.225  44.899  50.203  1.00  0.00     0.163 HD
HETATM   14  O   UNL     1      22.058  44.306  47.224  1.00  0.00    -0.267 OA
BRANCH  12  15
HETATM   15  C   UNL     1      23.099  43.996  49.804  1.00  0.00     0.161 C 
BRANCH  15  16
HETATM   16  C   UNL     1      23.913  45.110  50.412  1.00  0.00    -0.041 A 
HETATM   17  C   UNL     1      24.596  44.921  51.623  1.00  0.00     0.009 A 
HETATM   18  C   UNL     1      25.398  45.933  52.153  1.00  0.00     0.001 A 
HETATM   19  C   UNL     1      25.537  47.141  51.473  1.00  0.00     0.000 A 
HETATM   20  C   UNL     1      24.873  47.338  50.263  1.00  0.00     0.001 A 
HETATM   21  C   UNL     1      24.068  46.328  49.733  1.00  0.00     0.009 A 
ENDBRANCH  15  16
ENDBRANCH  12  15
ENDBRANCH   7  11
BRANCH   1  22
HETATM   22  C   UNL     1      19.341  49.462  49.529  1.00  0.00    -0.033 A 
HETATM   23  C   UNL     1      20.481  49.517  48.706  1.00  0.00     0.046 A 
HETATM   24  C   UNL     1      20.946  50.724  48.171  1.00  0.00     0.068 A 
HETATM   25  C   UNL     1      20.255  51.903  48.441  1.00  0.00     0.037 A 
HETATM   26  C   UNL     1      19.109  51.869  49.236  1.00  0.00     0.003 A 
HETATM   27  C   UNL     1      18.655  50.662  49.771  1.00  0.00     0.009 A 
BRANCH  24  28
HETATM   28  O   UNL     1      22.075  50.612  47.407  1.00  0.00    -0.356 OA
HETATM   29  C   UNL     1      23.182  49.940  47.995  1.00  0.00     0.210 C 
ENDBRANCH  24  28
ENDBRANCH   1  22
BRANCH   8  30
HETATM   30  C   UNL     1      16.956  48.282  47.367  1.00  0.00     0.409 C 
HETATM   31  F   UNL     1      18.106  48.617  46.752  1.00  0.00    -0.169 F 
HETATM   32  F   UNL     1      16.084  47.900  46.405  1.00  0.00    -0.169 F 
HETATM   33  F   UNL     1      16.445  49.419  47.908  1.00  0.00    -0.169 F 
ENDBRANCH   8  30
TORSDOF 6
ENDMDL
