MODEL 1
REMARK VINA RESULT:     -11.1      0.000      0.000
REMARK  6 active torsions:
REMARK  status: ('A' for Active; 'I' for Inactive)
REMARK    1  A    between atoms: C_4  and  C_5 
REMARK    2  A    between atoms: C_9  and  C_10 
REMARK       I    between atoms: C_10  and  N_11 
REMARK    3  A    between atoms: N_11  and  N_12 
REMARK       I    between atoms: N_12  and  C_13 
REMARK    4  A    between atoms: C_13  and  C_14 
REMARK    5  A    between atoms: C_14  and  O_15 
REMARK    6  A    between atoms: O_15  and  C_16 
ROOT
HETATM    1  C   UNL     1      25.278  48.266  49.673  1.00  0.00     0.288 C 
HETATM    2  N   UNL     1      24.767  47.543  50.740  1.00  0.00    -0.262 N 
HETATM    3  O   UNL     1      26.468  48.202  49.366  1.00  0.00    -0.264 OA
HETATM    4  H   UNL     1      23.791  47.247  50.709  1.00  0.00     0.190 HD
ENDROOT
BRANCH   2   5
HETATM    5  N   UNL     1      25.623  46.590  51.335  1.00  0.00    -0.265 N 
HETATM    6  C   UNL     1      25.847  46.717  52.693  1.00  0.00     0.260 C 
HETATM    7  O   UNL     1      25.514  47.724  53.319  1.00  0.00    -0.269 OA
HETATM    8  H   UNL     1      25.627  45.660  50.914  1.00  0.00     0.190 HD
BRANCH   6   9
HETATM    9  C   UNL     1      26.488  45.502  53.354  1.00  0.00     0.280 C 
BRANCH   9  10
HETATM   10  O   UNL     1      27.506  45.902  54.277  1.00  0.00    -0.341 OA
BRANCH  10  11
HETATM   11  C   UNL     1      28.489  44.943  54.340  1.00  0.00     0.080 A 
HETATM   12  C   UNL     1      29.347  44.860  55.457  1.00  0.00     0.007 A 
HETATM   13  C   UNL     1      30.354  43.866  55.452  1.00  0.00    -0.023 A 
HETATM   14  C   UNL     1      29.251  45.718  56.573  1.00  0.00     0.015 A 
HETATM   15  C   UNL     1      31.239  43.771  56.539  1.00  0.00     0.012 A 
HETATM   16  C   UNL     1      30.454  42.982  54.364  1.00  0.00     0.012 A 
HETATM   17  C   UNL     1      31.132  44.638  57.628  1.00  0.00     0.001 A 
HETATM   18  C   UNL     1      30.136  45.607  57.647  1.00  0.00     0.001 A 
HETATM   19  C   UNL     1      29.566  43.062  53.290  1.00  0.00     0.004 A 
HETATM   20  C   UNL     1      28.578  44.038  53.280  1.00  0.00     0.037 A 
ENDBRANCH  10  11
ENDBRANCH   9  10
ENDBRANCH   6   9
ENDBRANCH   2   5
BRANCH   1  21
HETATM   21  C   UNL     1      24.316  49.064  48.959  1.00  0.00     0.121 A 
HETATM   22  N   UNL     1      24.544  49.777  47.817  1.00  0.00    -0.272 N 
HETATM   23  N   UNL     1      23.466  50.408  47.335  1.00  0.00    -0.174 NA
HETATM   24  H   UNL     1      25.409  49.856  47.293  1.00  0.00     0.189 HD
HETATM   25  C   UNL     1      22.477  50.090  48.187  1.00  0.00     0.089 A 
HETATM   26  C   UNL     1      22.969  49.240  49.212  1.00  0.00     0.071 A 
BRANCH  25  27
HETATM   27  C   UNL     1      21.110  50.580  47.998  1.00  0.00    -0.006 A 
HETATM   28  C   UNL     1      20.653  51.699  48.711  1.00  0.00     0.014 A 
HETATM   29  C   UNL     1      19.356  52.182  48.524  1.00  0.00     0.001 A 
HETATM   30  C   UNL     1      18.498  51.547  47.630  1.00  0.00     0.000 A 
HETATM   31  C   UNL     1      18.934  50.429  46.923  1.00  0.00     0.001 A 
HETATM   32  C   UNL     1      20.235  49.948  47.104  1.00  0.00     0.014 A 
ENDBRANCH  25  27
ENDBRANCH   1  21
TORSDOF 6
ENDMDL
MODEL 2
REMARK VINA RESULT:     -10.6      1.231      1.261
REMARK  6 active torsions:
REMARK  status: ('A' for Active; 'I' for Inactive)
REMARK    1  A    between atoms: C_4  and  C_5 
REMARK    2  A    between atoms: C_9  and  C_10 
REMARK       I    between atoms: C_10  and  N_11 
REMARK    3  A    between atoms: N_11  and  N_12 
REMARK       I    between atoms: N_12  and  C_13 
REMARK    4  A    between atoms: C_13  and  C_14 
REMARK    5  A    between atoms: C_14  and  O_15 
REMARK    6  A    between atoms: O_15  and  C_16 
ROOT
HETATM    1  C   UNL     1      24.577  48.006  49.791  1.00  0.00     0.288 C 
HETATM    2  N   UNL     1      24.324  47.275  50.941  1.00  0.00    -0.262 N 
HETATM    3  O   UNL     1      25.725  48.273  49.439  1.00  0.00    -0.264 OA
HETATM    4  H   UNL     1      23.484  46.697  50.981  1.00  0.00     0.190 HD
ENDROOT
BRANCH   2   5
HETATM    5  N   UNL     1      25.437  46.689  51.584  1.00  0.00    -0.265 N 
HETATM    6  C   UNL     1      25.350  45.341  51.876  1.00  0.00     0.260 C 
HETATM    7  O   UNL     1      24.288  44.723  51.796  1.00  0.00    -0.269 OA
HETATM    8  H   UNL     1      26.350  47.094  51.368  1.00  0.00     0.190 HD
BRANCH   6   9
HETATM    9  C   UNL     1      26.670  44.679  52.253  1.00  0.00     0.280 C 
BRANCH   9  10
HETATM   10  O   UNL     1      27.141  45.164  53.514  1.00  0.00    -0.341 OA
BRANCH  10  11
HETATM   11  C   UNL     1      28.283  44.493  53.881  1.00  0.00     0.080 A 
HETATM   12  C   UNL     1      28.949  44.803  55.086  1.00  0.00     0.007 A 
HETATM   13  C   UNL     1      30.133  44.094  55.396  1.00  0.00    -0.023 A 
HETATM   14  C   UNL     1      28.493  45.785  55.992  1.00  0.00     0.015 A 
HETATM   15  C   UNL     1      30.832  44.394  56.577  1.00  0.00     0.012 A 
HETATM   16  C   UNL     1      30.594  43.093  54.522  1.00  0.00     0.012 A 
HETATM   17  C   UNL     1      30.368  45.376  57.454  1.00  0.00     0.001 A 
HETATM   18  C   UNL     1      29.197  46.067  57.164  1.00  0.00     0.001 A 
HETATM   19  C   UNL     1      29.894  42.780  53.356  1.00  0.00     0.004 A 
HETATM   20  C   UNL     1      28.734  43.475  53.037  1.00  0.00     0.037 A 
ENDBRANCH  10  11
ENDBRANCH   9  10
ENDBRANCH   6   9
ENDBRANCH   2   5
BRANCH   1  21
HETATM   21  C   UNL     1      23.408  48.401  49.049  1.00  0.00     0.121 A 
HETATM   22  N   UNL     1      22.785  47.675  48.074  1.00  0.00    -0.272 N 
HETATM   23  N   UNL     1      21.692  48.258  47.565  1.00  0.00    -0.174 NA
HETATM   24  H   UNL     1      23.035  46.757  47.724  1.00  0.00     0.189 HD
HETATM   25  C   UNL     1      21.578  49.414  48.239  1.00  0.00     0.089 A 
HETATM   26  C   UNL     1      22.629  49.534  49.186  1.00  0.00     0.071 A 
BRANCH  25  27
HETATM   27  C   UNL     1      20.482  50.352  47.983  1.00  0.00    -0.006 A 
HETATM   28  C   UNL     1      20.329  51.498  48.778  1.00  0.00     0.014 A 
HETATM   29  C   UNL     1      19.297  52.405  48.529  1.00  0.00     0.001 A 
HETATM   30  C   UNL     1      18.401  52.173  47.489  1.00  0.00     0.000 A 
HETATM   31  C   UNL     1      18.535  51.035  46.697  1.00  0.00     0.001 A 
HETATM   32  C   UNL     1      19.571  50.128  46.941  1.00  0.00     0.014 A 
ENDBRANCH  25  27
ENDBRANCH   1  21
TORSDOF 6
ENDMDL
MODEL 3
REMARK VINA RESULT:     -10.2      1.137      1.407
REMARK  6 active torsions:
REMARK  status: ('A' for Active; 'I' for Inactive)
REMARK    1  A    between atoms: C_4  and  C_5 
REMARK    2  A    between atoms: C_9  and  C_10 
REMARK       I    between atoms: C_10  and  N_11 
REMARK    3  A    between atoms: N_11  and  N_12 
REMARK       I    between atoms: N_12  and  C_13 
REMARK    4  A    between atoms: C_13  and  C_14 
REMARK    5  A    between atoms: C_14  and  O_15 
REMARK    6  A    between atoms: O_15  and  C_16 
ROOT
HETATM    1  C   UNL     1      24.988  48.273  49.433  1.00  0.00     0.288 C 
HETATM    2  N   UNL     1      24.634  47.278  50.331  1.00  0.00    -0.262 N 
HETATM    3  O   UNL     1      26.101  48.298  48.908  1.00  0.00    -0.264 OA
HETATM    4  H   UNL     1      23.654  47.004  50.398  1.00  0.00     0.190 HD
ENDROOT
BRANCH   2   5
HETATM    5  N   UNL     1      25.530  46.195  50.472  1.00  0.00    -0.265 N 
HETATM    6  C   UNL     1      26.136  46.044  51.704  1.00  0.00     0.260 C 
HETATM    7  O   UNL     1      26.087  46.920  52.568  1.00  0.00    -0.269 OA
HETATM    8  H   UNL     1      25.330  45.366  49.910  1.00  0.00     0.190 HD
BRANCH   6   9
HETATM    9  C   UNL     1      26.821  44.699  51.922  1.00  0.00     0.280 C 
BRANCH   9  10
HETATM   10  O   UNL     1      26.800  44.337  53.306  1.00  0.00    -0.341 OA
BRANCH  10  11
HETATM   11  C   UNL     1      28.057  43.953  53.712  1.00  0.00     0.080 A 
HETATM   12  C   UNL     1      28.680  44.568  54.818  1.00  0.00     0.007 A 
HETATM   13  C   UNL     1      29.983  44.145  55.172  1.00  0.00    -0.023 A 
HETATM   14  C   UNL     1      28.068  45.583  55.585  1.00  0.00     0.015 A 
HETATM   15  C   UNL     1      30.639  44.754  56.255  1.00  0.00     0.012 A 
HETATM   16  C   UNL     1      30.603  43.119  54.439  1.00  0.00     0.012 A 
HETATM   17  C   UNL     1      30.018  45.763  56.993  1.00  0.00     0.001 A 
HETATM   18  C   UNL     1      28.732  46.174  56.662  1.00  0.00     0.001 A 
HETATM   19  C   UNL     1      29.949  42.500  53.373  1.00  0.00     0.004 A 
HETATM   20  C   UNL     1      28.672  42.912  53.012  1.00  0.00     0.037 A 
ENDBRANCH  10  11
ENDBRANCH   9  10
ENDBRANCH   6   9
ENDBRANCH   2   5
BRANCH   1  21
HETATM   21  C   UNL     1      23.959  49.241  49.157  1.00  0.00     0.121 A 
HETATM   22  N   UNL     1      24.070  50.329  48.339  1.00  0.00    -0.272 N 
HETATM   23  N   UNL     1      22.949  51.053  48.229  1.00  0.00    -0.174 NA
HETATM   24  H   UNL     1      24.876  50.624  47.799  1.00  0.00     0.189 HD
HETATM   25  C   UNL     1      22.052  50.412  48.996  1.00  0.00     0.089 A 
HETATM   26  C   UNL     1      22.646  49.264  49.586  1.00  0.00     0.071 A 
BRANCH  25  27
HETATM   27  C   UNL     1      20.674  50.886  49.133  1.00  0.00    -0.006 A 
HETATM   28  C   UNL     1      19.789  50.250  50.016  1.00  0.00     0.014 A 
HETATM   29  C   UNL     1      18.478  50.707  50.165  1.00  0.00     0.001 A 
HETATM   30  C   UNL     1      18.033  51.801  49.427  1.00  0.00     0.000 A 
HETATM   31  C   UNL     1      18.898  52.438  48.539  1.00  0.00     0.001 A 
HETATM   32  C   UNL     1      20.213  51.984  48.393  1.00  0.00     0.014 A 
ENDBRANCH  25  27
ENDBRANCH   1  21
TORSDOF 6
ENDMDL
MODEL 4
REMARK VINA RESULT:     -10.1      1.971     11.422
REMARK  6 active torsions:
REMARK  status: ('A' for Active; 'I' for Inactive)
REMARK    1  A    between atoms: C_4  and  C_5 
REMARK    2  A    between atoms: C_9  and  C_10 
REMARK       I    between atoms: C_10  and  N_11 
REMARK    3  A    between atoms: N_11  and  N_12 
REMARK       I    between atoms: N_12  and  C_13 
REMARK    4  A    between atoms: C_13  and  C_14 
REMARK    5  A    between atoms: C_14  and  O_15 
REMARK    6  A    between atoms: O_15  and  C_16 
ROOT
HETATM    1  C   UNL     1      25.116  45.264  51.846  1.00  0.00     0.288 C 
HETATM    2  N   UNL     1      25.148  46.556  51.344  1.00  0.00    -0.262 N 
HETATM    3  O   UNL     1      24.094  44.580  51.795  1.00  0.00    -0.264 OA
HETATM    4  H   UNL     1      26.029  46.921  50.984  1.00  0.00     0.190 HD
ENDROOT
BRANCH   2   5
HETATM    5  N   UNL     1      24.022  46.982  50.605  1.00  0.00    -0.265 N 
HETATM    6  C   UNL     1      24.231  47.978  49.670  1.00  0.00     0.260 C 
HETATM    7  O   UNL     1      25.278  48.626  49.628  1.00  0.00    -0.269 OA
HETATM    8  H   UNL     1      23.300  46.280  50.432  1.00  0.00     0.190 HD
BRANCH   6   9
HETATM    9  C   UNL     1      23.093  48.174  48.675  1.00  0.00     0.280 C 
BRANCH   9  10
HETATM   10  O   UNL     1      22.313  49.325  49.013  1.00  0.00    -0.341 OA
BRANCH  10  11
HETATM   11  C   UNL     1      20.974  49.039  48.893  1.00  0.00     0.080 A 
HETATM   12  C   UNL     1      20.028  50.069  48.705  1.00  0.00     0.007 A 
HETATM   13  C   UNL     1      18.662  49.713  48.612  1.00  0.00    -0.023 A 
HETATM   14  C   UNL     1      20.378  51.433  48.609  1.00  0.00     0.015 A 
HETATM   15  C   UNL     1      17.694  50.717  48.448  1.00  0.00     0.012 A 
HETATM   16  C   UNL     1      18.291  48.359  48.679  1.00  0.00     0.012 A 
HETATM   17  C   UNL     1      18.062  52.061  48.366  1.00  0.00     0.001 A 
HETATM   18  C   UNL     1      19.403  52.418  48.441  1.00  0.00     0.001 A 
HETATM   19  C   UNL     1      19.251  47.357  48.826  1.00  0.00     0.004 A 
HETATM   20  C   UNL     1      20.594  47.695  48.925  1.00  0.00     0.037 A 
ENDBRANCH  10  11
ENDBRANCH   9  10
ENDBRANCH   6   9
ENDBRANCH   2   5
BRANCH   1  21
HETATM   21  C   UNL     1      26.358  44.795  52.401  1.00  0.00     0.121 A 
HETATM   22  N   UNL     1      27.274  43.998  51.775  1.00  0.00    -0.272 N 
HETATM   23  N   UNL     1      28.366  43.734  52.504  1.00  0.00    -0.174 NA
HETATM   24  H   UNL     1      27.233  43.620  50.835  1.00  0.00     0.189 HD
HETATM   25  C   UNL     1      28.172  44.393  53.658  1.00  0.00     0.089 A 
HETATM   26  C   UNL     1      26.929  45.079  53.627  1.00  0.00     0.071 A 
BRANCH  25  27
HETATM   27  C   UNL     1      29.163  44.369  54.736  1.00  0.00    -0.006 A 
HETATM   28  C   UNL     1      29.226  45.419  55.665  1.00  0.00     0.014 A 
HETATM   29  C   UNL     1      30.157  45.395  56.706  1.00  0.00     0.001 A 
HETATM   30  C   UNL     1      31.041  44.326  56.826  1.00  0.00     0.000 A 
HETATM   31  C   UNL     1      30.997  43.281  55.905  1.00  0.00     0.001 A 
HETATM   32  C   UNL     1      30.061  43.300  54.866  1.00  0.00     0.014 A 
ENDBRANCH  25  27
ENDBRANCH   1  21
TORSDOF 6
ENDMDL
MODEL 5
REMARK VINA RESULT:     -10.0      1.710      2.490
REMARK  6 active torsions:
REMARK  status: ('A' for Active; 'I' for Inactive)
REMARK    1  A    between atoms: C_4  and  C_5 
REMARK    2  A    between atoms: C_9  and  C_10 
REMARK       I    between atoms: C_10  and  N_11 
REMARK    3  A    between atoms: N_11  and  N_12 
REMARK       I    between atoms: N_12  and  C_13 
REMARK    4  A    between atoms: C_13  and  C_14 
REMARK    5  A    between atoms: C_14  and  O_15 
REMARK    6  A    between atoms: O_15  and  C_16 
ROOT
HETATM    1  C   UNL     1      24.273  47.276  50.123  1.00  0.00     0.288 C 
HETATM    2  N   UNL     1      24.680  45.994  49.790  1.00  0.00    -0.262 N 
HETATM    3  O   UNL     1      24.762  47.877  51.080  1.00  0.00    -0.264 OA
HETATM    4  H   UNL     1      24.633  45.701  48.814  1.00  0.00     0.190 HD
ENDROOT
BRANCH   2   5
HETATM    5  N   UNL     1      25.807  45.483  50.473  1.00  0.00    -0.265 N 
HETATM    6  C   UNL     1      25.575  44.481  51.396  1.00  0.00     0.260 C 
HETATM    7  O   UNL     1      24.439  44.195  51.778  1.00  0.00    -0.269 OA
HETATM    8  H   UNL     1      26.691  45.494  49.961  1.00  0.00     0.190 HD
BRANCH   6   9
HETATM    9  C   UNL     1      26.820  43.732  51.858  1.00  0.00     0.280 C 
BRANCH   9  10
HETATM   10  O   UNL     1      26.762  43.469  53.263  1.00  0.00    -0.341 OA
BRANCH  10  11
HETATM   11  C   UNL     1      27.324  44.512  53.962  1.00  0.00     0.080 A 
HETATM   12  C   UNL     1      28.558  44.355  54.627  1.00  0.00     0.007 A 
HETATM   13  C   UNL     1      29.073  45.458  55.348  1.00  0.00    -0.023 A 
HETATM   14  C   UNL     1      29.301  43.154  54.609  1.00  0.00     0.015 A 
HETATM   15  C   UNL     1      30.289  45.328  56.040  1.00  0.00     0.012 A 
HETATM   16  C   UNL     1      28.365  46.673  55.360  1.00  0.00     0.012 A 
HETATM   17  C   UNL     1      31.001  44.128  56.017  1.00  0.00     0.001 A 
HETATM   18  C   UNL     1      30.510  43.044  55.298  1.00  0.00     0.001 A 
HETATM   19  C   UNL     1      27.165  46.812  54.660  1.00  0.00     0.004 A 
HETATM   20  C   UNL     1      26.647  45.733  53.954  1.00  0.00     0.037 A 
ENDBRANCH  10  11
ENDBRANCH   9  10
ENDBRANCH   6   9
ENDBRANCH   2   5
BRANCH   1  21
HETATM   21  C   UNL     1      23.267  47.840  49.262  1.00  0.00     0.121 A 
HETATM   22  N   UNL     1      22.826  47.315  48.081  1.00  0.00    -0.272 N 
HETATM   23  N   UNL     1      21.855  48.022  47.490  1.00  0.00    -0.174 NA
HETATM   24  H   UNL     1      23.124  46.457  47.630  1.00  0.00     0.189 HD
HETATM   25  C   UNL     1      21.633  49.055  48.320  1.00  0.00     0.089 A 
HETATM   26  C   UNL     1      22.492  48.969  49.448  1.00  0.00     0.071 A 
BRANCH  25  27
HETATM   27  C   UNL     1      20.617  50.069  48.035  1.00  0.00    -0.006 A 
HETATM   28  C   UNL     1      19.690  49.873  47.000  1.00  0.00     0.014 A 
HETATM   29  C   UNL     1      18.707  50.829  46.733  1.00  0.00     0.001 A 
HETATM   30  C   UNL     1      18.645  51.996  47.491  1.00  0.00     0.000 A 
HETATM   31  C   UNL     1      19.565  52.209  48.515  1.00  0.00     0.001 A 
HETATM   32  C   UNL     1      20.546  51.250  48.788  1.00  0.00     0.014 A 
ENDBRANCH  25  27
ENDBRANCH   1  21
TORSDOF 6
ENDMDL
MODEL 6
REMARK VINA RESULT:     -10.0      2.282     11.174
REMARK  6 active torsions:
REMARK  status: ('A' for Active; 'I' for Inactive)
REMARK    1  A    between atoms: C_4  and  C_5 
REMARK    2  A    between atoms: C_9  and  C_10 
REMARK       I    between atoms: C_10  and  N_11 
REMARK    3  A    between atoms: N_11  and  N_12 
REMARK       I    between atoms: N_12  and  C_13 
REMARK    4  A    between atoms: C_13  and  C_14 
REMARK    5  A    between atoms: C_14  and  O_15 
REMARK    6  A    between atoms: O_15  and  C_16 
ROOT
HETATM    1  C   UNL     1      27.184  43.941  51.208  1.00  0.00     0.288 C 
HETATM    2  N   UNL     1      26.060  44.652  51.599  1.00  0.00    -0.262 N 
HETATM    3  O   UNL     1      27.324  43.545  50.052  1.00  0.00    -0.264 OA
HETATM    4  H   UNL     1      26.147  45.330  52.356  1.00  0.00     0.190 HD
ENDROOT
BRANCH   2   5
HETATM    5  N   UNL     1      25.178  45.066  50.575  1.00  0.00    -0.265 N 
HETATM    6  C   UNL     1      24.832  46.404  50.554  1.00  0.00     0.260 C 
HETATM    7  O   UNL     1      25.085  47.159  51.494  1.00  0.00    -0.269 OA
HETATM    8  H   UNL     1      25.233  44.551  49.694  1.00  0.00     0.190 HD
BRANCH   6   9
HETATM    9  C   UNL     1      24.165  46.874  49.266  1.00  0.00     0.280 C 
BRANCH   9  10
HETATM   10  O   UNL     1      22.895  47.473  49.541  1.00  0.00    -0.341 OA
BRANCH  10  11
HETATM   11  C   UNL     1      22.864  48.758  49.052  1.00  0.00     0.080 A 
HETATM   12  C   UNL     1      21.675  49.516  49.086  1.00  0.00     0.007 A 
HETATM   13  C   UNL     1      21.701  50.824  48.546  1.00  0.00    -0.023 A 
HETATM   14  C   UNL     1      20.464  49.034  49.628  1.00  0.00     0.015 A 
HETATM   15  C   UNL     1      20.528  51.596  48.544  1.00  0.00     0.012 A 
HETATM   16  C   UNL     1      22.902  51.336  48.024  1.00  0.00     0.012 A 
HETATM   17  C   UNL     1      19.339  51.095  49.077  1.00  0.00     0.001 A 
HETATM   18  C   UNL     1      19.308  49.817  49.622  1.00  0.00     0.001 A 
HETATM   19  C   UNL     1      24.073  50.579  48.039  1.00  0.00     0.004 A 
HETATM   20  C   UNL     1      24.058  49.291  48.559  1.00  0.00     0.037 A 
ENDBRANCH  10  11
ENDBRANCH   9  10
ENDBRANCH   6   9
ENDBRANCH   2   5
BRANCH   1  21
HETATM   21  C   UNL     1      28.161  43.728  52.244  1.00  0.00     0.121 A 
HETATM   22  N   UNL     1      29.231  42.881  52.185  1.00  0.00    -0.272 N 
HETATM   23  N   UNL     1      30.008  42.896  53.275  1.00  0.00    -0.174 NA
HETATM   24  H   UNL     1      29.510  42.281  51.416  1.00  0.00     0.189 HD
HETATM   25  C   UNL     1      29.437  43.801  54.087  1.00  0.00     0.089 A 
HETATM   26  C   UNL     1      28.283  44.351  53.470  1.00  0.00     0.071 A 
BRANCH  25  27
HETATM   27  C   UNL     1      30.002  44.126  55.398  1.00  0.00    -0.006 A 
HETATM   28  C   UNL     1      30.933  43.267  56.002  1.00  0.00     0.014 A 
HETATM   29  C   UNL     1      31.489  43.578  57.245  1.00  0.00     0.001 A 
HETATM   30  C   UNL     1      31.115  44.747  57.903  1.00  0.00     0.000 A 
HETATM   31  C   UNL     1      30.184  45.605  57.320  1.00  0.00     0.001 A 
HETATM   32  C   UNL     1      29.631  45.298  56.073  1.00  0.00     0.014 A 
ENDBRANCH  25  27
ENDBRANCH   1  21
TORSDOF 6
ENDMDL
MODEL 7
REMARK VINA RESULT:      -9.6      2.421     11.569
REMARK  6 active torsions:
REMARK  status: ('A' for Active; 'I' for Inactive)
REMARK    1  A    between atoms: C_4  and  C_5 
REMARK    2  A    between atoms: C_9  and  C_10 
REMARK       I    between atoms: C_10  and  N_11 
REMARK    3  A    between atoms: N_11  and  N_12 
REMARK       I    between atoms: N_12  and  C_13 
REMARK    4  A    between atoms: C_13  and  C_14 
REMARK    5  A    between atoms: C_14  and  O_15 
REMARK    6  A    between atoms: O_15  and  C_16 
ROOT
HETATM    1  C   UNL     1      24.159  45.717  49.608  1.00  0.00     0.288 C 
HETATM    2  N   UNL     1      23.898  46.968  50.146  1.00  0.00    -0.262 N 
HETATM    3  O   UNL     1      23.408  45.207  48.777  1.00  0.00    -0.264 OA
HETATM    4  H   UNL     1      24.684  47.547  50.444  1.00  0.00     0.190 HD
ENDROOT
BRANCH   2   5
HETATM    5  N   UNL     1      22.847  47.708  49.563  1.00  0.00    -0.265 N 
HETATM    6  C   UNL     1      23.163  48.961  49.073  1.00  0.00     0.260 C 
HETATM    7  O   UNL     1      24.238  49.509  49.324  1.00  0.00    -0.269 OA
HETATM    8  H   UNL     1      22.109  47.167  49.107  1.00  0.00     0.190 HD
BRANCH   6   9
HETATM    9  C   UNL     1      22.108  49.582  48.166  1.00  0.00     0.280 C 
BRANCH   9  10
HETATM   10  O   UNL     1      20.815  49.032  48.438  1.00  0.00    -0.341 OA
BRANCH  10  11
HETATM   11  C   UNL     1      19.864  50.024  48.404  1.00  0.00     0.080 A 
HETATM   12  C   UNL     1      18.492  49.707  48.312  1.00  0.00     0.007 A 
HETATM   13  C   UNL     1      17.563  50.773  48.257  1.00  0.00    -0.023 A 
HETATM   14  C   UNL     1      18.004  48.383  48.270  1.00  0.00     0.015 A 
HETATM   15  C   UNL     1      16.191  50.491  48.143  1.00  0.00     0.012 A 
HETATM   16  C   UNL     1      18.022  52.100  48.324  1.00  0.00     0.012 A 
HETATM   17  C   UNL     1      15.732  49.174  48.092  1.00  0.00     0.001 A 
HETATM   18  C   UNL     1      16.637  48.122  48.161  1.00  0.00     0.001 A 
HETATM   19  C   UNL     1      19.382  52.384  48.454  1.00  0.00     0.004 A 
HETATM   20  C   UNL     1      20.305  51.346  48.501  1.00  0.00     0.037 A 
ENDBRANCH  10  11
ENDBRANCH   9  10
ENDBRANCH   6   9
ENDBRANCH   2   5
BRANCH   1  21
HETATM   21  C   UNL     1      25.365  45.089  50.079  1.00  0.00     0.121 A 
HETATM   22  N   UNL     1      26.306  44.466  49.310  1.00  0.00    -0.272 N 
HETATM   23  N   UNL     1      27.355  43.993  49.995  1.00  0.00    -0.174 NA
HETATM   24  H   UNL     1      26.312  44.351  48.303  1.00  0.00     0.189 HD
HETATM   25  C   UNL     1      27.106  44.328  51.272  1.00  0.00     0.089 A 
HETATM   26  C   UNL     1      25.872  45.026  51.363  1.00  0.00     0.071 A 
BRANCH  25  27
HETATM   27  C   UNL     1      28.037  43.997  52.352  1.00  0.00    -0.006 A 
HETATM   28  C   UNL     1      27.887  44.578  53.621  1.00  0.00     0.014 A 
HETATM   29  C   UNL     1      28.761  44.255  54.661  1.00  0.00     0.001 A 
HETATM   30  C   UNL     1      29.801  43.354  54.443  1.00  0.00     0.000 A 
HETATM   31  C   UNL     1      29.968  42.777  53.186  1.00  0.00     0.001 A 
HETATM   32  C   UNL     1      29.090  43.095  52.145  1.00  0.00     0.014 A 
ENDBRANCH  25  27
ENDBRANCH   1  21
TORSDOF 6
ENDMDL
MODEL 8
REMARK VINA RESULT:      -9.5      1.838     11.462
REMARK  6 active torsions:
REMARK  status: ('A' for Active; 'I' for Inactive)
REMARK    1  A    between atoms: C_4  and  C_5 
REMARK    2  A    between atoms: C_9  and  C_10 
REMARK       I    between atoms: C_10  and  N_11 
REMARK    3  A    between atoms: N_11  and  N_12 
REMARK       I    between atoms: N_12  and  C_13 
REMARK    4  A    between atoms: C_13  and  C_14 
REMARK    5  A    between atoms: C_14  and  O_15 
REMARK    6  A    between atoms: O_15  and  C_16 
ROOT
HETATM    1  C   UNL     1      25.192  45.469  51.639  1.00  0.00     0.288 C 
HETATM    2  N   UNL     1      25.222  46.851  51.531  1.00  0.00    -0.262 N 
HETATM    3  O   UNL     1      24.247  44.811  51.204  1.00  0.00    -0.264 OA
HETATM    4  H   UNL     1      26.126  47.318  51.463  1.00  0.00     0.190 HD
ENDROOT
BRANCH   2   5
HETATM    5  N   UNL     1      24.219  47.452  50.738  1.00  0.00    -0.265 N 
HETATM    6  C   UNL     1      24.642  48.144  49.619  1.00  0.00     0.260 C 
HETATM    7  O   UNL     1      25.827  48.423  49.432  1.00  0.00    -0.269 OA
HETATM    8  H   UNL     1      23.312  46.982  50.720  1.00  0.00     0.190 HD
BRANCH   6   9
HETATM    9  C   UNL     1      23.541  48.485  48.621  1.00  0.00     0.280 C 
BRANCH   9  10
HETATM   10  O   UNL     1      22.249  48.244  49.187  1.00  0.00    -0.341 OA
BRANCH  10  11
HETATM   11  C   UNL     1      21.367  49.217  48.778  1.00  0.00     0.080 A 
HETATM   12  C   UNL     1      20.431  48.961  47.753  1.00  0.00     0.007 A 
HETATM   13  C   UNL     1      19.566  50.010  47.361  1.00  0.00    -0.023 A 
HETATM   14  C   UNL     1      20.319  47.714  47.101  1.00  0.00     0.015 A 
HETATM   15  C   UNL     1      18.639  49.793  46.328  1.00  0.00     0.012 A 
HETATM   16  C   UNL     1      19.641  51.253  48.013  1.00  0.00     0.012 A 
HETATM   17  C   UNL     1      18.553  48.555  45.691  1.00  0.00     0.001 A 
HETATM   18  C   UNL     1      19.388  47.515  46.080  1.00  0.00     0.001 A 
HETATM   19  C   UNL     1      20.549  51.467  49.051  1.00  0.00     0.004 A 
HETATM   20  C   UNL     1      21.409  50.447  49.440  1.00  0.00     0.037 A 
ENDBRANCH  10  11
ENDBRANCH   9  10
ENDBRANCH   6   9
ENDBRANCH   2   5
BRANCH   1  21
HETATM   21  C   UNL     1      26.345  44.881  52.269  1.00  0.00     0.121 A 
HETATM   22  N   UNL     1      27.081  43.833  51.793  1.00  0.00    -0.272 N 
HETATM   23  N   UNL     1      28.128  43.502  52.558  1.00  0.00    -0.174 NA
HETATM   24  H   UNL     1      26.942  43.313  50.934  1.00  0.00     0.189 HD
HETATM   25  C   UNL     1      28.093  44.374  53.579  1.00  0.00     0.089 A 
HETATM   26  C   UNL     1      26.996  45.262  53.426  1.00  0.00     0.071 A 
BRANCH  25  27
HETATM   27  C   UNL     1      29.096  44.354  54.646  1.00  0.00    -0.006 A 
HETATM   28  C   UNL     1      29.202  45.429  55.540  1.00  0.00     0.014 A 
HETATM   29  C   UNL     1      30.144  45.410  56.571  1.00  0.00     0.001 A 
HETATM   30  C   UNL     1      30.998  44.319  56.714  1.00  0.00     0.000 A 
HETATM   31  C   UNL     1      30.911  43.248  55.828  1.00  0.00     0.001 A 
HETATM   32  C   UNL     1      29.964  43.263  54.799  1.00  0.00     0.014 A 
ENDBRANCH  25  27
ENDBRANCH   1  21
TORSDOF 6
ENDMDL
MODEL 9
REMARK VINA RESULT:      -9.2      2.669     11.348
REMARK  6 active torsions:
REMARK  status: ('A' for Active; 'I' for Inactive)
REMARK    1  A    between atoms: C_4  and  C_5 
REMARK    2  A    between atoms: C_9  and  C_10 
REMARK       I    between atoms: C_10  and  N_11 
REMARK    3  A    between atoms: N_11  and  N_12 
REMARK       I    between atoms: N_12  and  C_13 
REMARK    4  A    between atoms: C_13  and  C_14 
REMARK    5  A    between atoms: C_14  and  O_15 
REMARK    6  A    between atoms: O_15  and  C_16 
ROOT
HETATM    1  C   UNL     1      25.226  44.769  50.322  1.00  0.00     0.288 C 
HETATM    2  N   UNL     1      23.887  44.963  50.622  1.00  0.00    -0.262 N 
HETATM    3  O   UNL     1      25.681  45.034  49.210  1.00  0.00    -0.264 OA
HETATM    4  H   UNL     1      23.625  45.177  51.584  1.00  0.00     0.190 HD
ENDROOT
BRANCH   2   5
HETATM    5  N   UNL     1      23.111  45.652  49.664  1.00  0.00    -0.265 N 
HETATM    6  C   UNL     1      22.104  44.935  49.045  1.00  0.00     0.260 C 
HETATM    7  O   UNL     1      22.019  43.710  49.142  1.00  0.00    -0.269 OA
HETATM    8  H   UNL     1      22.987  46.654  49.816  1.00  0.00     0.190 HD
BRANCH   6   9
HETATM    9  C   UNL     1      21.090  45.780  48.282  1.00  0.00     0.280 C 
BRANCH   9  10
HETATM   10  O   UNL     1      21.478  47.157  48.274  1.00  0.00    -0.341 OA
BRANCH  10  11
HETATM   11  C   UNL     1      20.545  47.906  47.597  1.00  0.00     0.080 A 
HETATM   12  C   UNL     1      20.311  49.255  47.940  1.00  0.00     0.007 A 
HETATM   13  C   UNL     1      19.322  49.965  47.221  1.00  0.00    -0.023 A 
HETATM   14  C   UNL     1      21.014  49.925  48.965  1.00  0.00     0.015 A 
HETATM   15  C   UNL     1      19.050  51.303  47.554  1.00  0.00     0.012 A 
HETATM   16  C   UNL     1      18.626  49.327  46.180  1.00  0.00     0.012 A 
HETATM   17  C   UNL     1      19.751  51.943  48.578  1.00  0.00     0.001 A 
HETATM   18  C   UNL     1      20.735  51.257  49.279  1.00  0.00     0.001 A 
HETATM   19  C   UNL     1      18.904  48.004  45.835  1.00  0.00     0.004 A 
HETATM   20  C   UNL     1      19.869  47.294  46.539  1.00  0.00     0.037 A 
ENDBRANCH  10  11
ENDBRANCH   9  10
ENDBRANCH   6   9
ENDBRANCH   2   5
BRANCH   1  21
HETATM   21  C   UNL     1      26.027  44.261  51.406  1.00  0.00     0.121 A 
HETATM   22  N   UNL     1      26.024  42.982  51.884  1.00  0.00    -0.272 N 
HETATM   23  N   UNL     1      26.891  42.762  52.879  1.00  0.00    -0.174 NA
HETATM   24  H   UNL     1      25.473  42.196  51.557  1.00  0.00     0.189 HD
HETATM   25  C   UNL     1      27.506  43.943  53.062  1.00  0.00     0.089 A 
HETATM   26  C   UNL     1      26.998  44.904  52.148  1.00  0.00     0.071 A 
BRANCH  25  27
HETATM   27  C   UNL     1      28.553  44.120  54.070  1.00  0.00    -0.006 A 
HETATM   28  C   UNL     1      29.544  43.142  54.242  1.00  0.00     0.014 A 
HETATM   29  C   UNL     1      30.556  43.312  55.190  1.00  0.00     0.001 A 
HETATM   30  C   UNL     1      30.584  44.457  55.982  1.00  0.00     0.000 A 
HETATM   31  C   UNL     1      29.601  45.432  55.829  1.00  0.00     0.001 A 
HETATM   32  C   UNL     1      28.591  45.267  54.876  1.00  0.00     0.014 A 
ENDBRANCH  25  27
ENDBRANCH   1  21
TORSDOF 6
ENDMDL
MODEL 10
REMARK VINA RESULT:      -9.2      2.674     11.651
REMARK  6 active torsions:
REMARK  status: ('A' for Active; 'I' for Inactive)
REMARK    1  A    between atoms: C_4  and  C_5 
REMARK    2  A    between atoms: C_9  and  C_10 
REMARK       I    between atoms: C_10  and  N_11 
REMARK    3  A    between atoms: N_11  and  N_12 
REMARK       I    between atoms: N_12  and  C_13 
REMARK    4  A    between atoms: C_13  and  C_14 
REMARK    5  A    between atoms: C_14  and  O_15 
REMARK    6  A    between atoms: O_15  and  C_16 
ROOT
HETATM    1  C   UNL     1      24.418  46.681  50.452  1.00  0.00     0.288 C 
HETATM    2  N   UNL     1      23.513  46.092  49.583  1.00  0.00    -0.262 N 
HETATM    3  O   UNL     1      24.578  47.901  50.484  1.00  0.00    -0.264 OA
HETATM    4  H   UNL     1      23.071  45.215  49.856  1.00  0.00     0.190 HD
ENDROOT
BRANCH   2   5
HETATM    5  N   UNL     1      22.649  46.958  48.876  1.00  0.00    -0.265 N 
HETATM    6  C   UNL     1      21.383  46.482  48.594  1.00  0.00     0.260 C 
HETATM    7  O   UNL     1      21.083  45.296  48.741  1.00  0.00    -0.269 OA
HETATM    8  H   UNL     1      22.781  47.959  49.035  1.00  0.00     0.190 HD
BRANCH   6   9
HETATM    9  C   UNL     1      20.385  47.540  48.140  1.00  0.00     0.280 C 
BRANCH   9  10
HETATM   10  O   UNL     1      19.401  47.780  49.151  1.00  0.00    -0.341 OA
BRANCH  10  11
HETATM   11  C   UNL     1      19.224  49.132  49.326  1.00  0.00     0.080 A 
HETATM   12  C   UNL     1      18.011  49.755  48.963  1.00  0.00     0.007 A 
HETATM   13  C   UNL     1      17.898  51.153  49.145  1.00  0.00    -0.023 A 
HETATM   14  C   UNL     1      16.910  49.053  48.427  1.00  0.00     0.015 A 
HETATM   15  C   UNL     1      16.711  51.807  48.773  1.00  0.00     0.012 A 
HETATM   16  C   UNL     1      18.972  51.871  49.701  1.00  0.00     0.012 A 
HETATM   17  C   UNL     1      15.639  51.094  48.236  1.00  0.00     0.001 A 
HETATM   18  C   UNL     1      15.736  49.718  48.068  1.00  0.00     0.001 A 
HETATM   19  C   UNL     1      20.146  51.223  50.087  1.00  0.00     0.004 A 
HETATM   20  C   UNL     1      20.271  49.851  49.907  1.00  0.00     0.037 A 
ENDBRANCH  10  11
ENDBRANCH   9  10
ENDBRANCH   6   9
ENDBRANCH   2   5
BRANCH   1  21
HETATM   21  C   UNL     1      25.126  45.766  51.309  1.00  0.00     0.121 A 
HETATM   22  N   UNL     1      24.616  44.636  51.881  1.00  0.00    -0.272 N 
HETATM   23  N   UNL     1      25.498  43.940  52.610  1.00  0.00    -0.174 NA
HETATM   24  H   UNL     1      23.679  44.261  51.793  1.00  0.00     0.189 HD
HETATM   25  C   UNL     1      26.645  44.632  52.507  1.00  0.00     0.089 A 
HETATM   26  C   UNL     1      26.454  45.777  51.690  1.00  0.00     0.071 A 
BRANCH  25  27
HETATM   27  C   UNL     1      27.876  44.186  53.162  1.00  0.00    -0.006 A 
HETATM   28  C   UNL     1      28.702  43.233  52.546  1.00  0.00     0.014 A 
HETATM   29  C   UNL     1      29.887  42.815  53.156  1.00  0.00     0.001 A 
HETATM   30  C   UNL     1      30.256  43.338  54.393  1.00  0.00     0.000 A 
HETATM   31  C   UNL     1      29.441  44.277  55.021  1.00  0.00     0.001 A 
HETATM   32  C   UNL     1      28.258  44.701  54.409  1.00  0.00     0.014 A 
ENDBRANCH  25  27
ENDBRANCH   1  21
TORSDOF 6
ENDMDL
