MODEL 1
REMARK VINA RESULT:      -9.3      0.000      0.000
REMARK  8 active torsions:
REMARK  status: ('A' for Active; 'I' for Inactive)
REMARK    1  A    between atoms: O_2  and  C_3 
REMARK    2  A    between atoms: C_6  and  C_7 
REMARK    3  A    between atoms: C_7  and  N_8 
REMARK    4  A    between atoms: C_7  and  C_27 
REMARK    5  A    between atoms: N_8  and  C_11 
REMARK    6  A    between atoms: C_11  and  C_12 
REMARK       I    between atoms: C_12  and  N_13 
REMARK    7  A    between atoms: N_13  and  C_14 
REMARK    8  A    between atoms: C_17  and  N_18 
ROOT
HETATM    1  N   UNL     1      27.673  45.835  55.327  1.00  0.00    -0.055 N 
HETATM    2  H   UNL     1      26.942  45.306  54.825  1.00  0.00     0.278 HD
HETATM    3  H   UNL     1      27.501  45.717  56.326  1.00  0.00     0.278 HD
ENDROOT
BRANCH   1   4
HETATM    4  C   UNL     1      28.980  45.195  54.937  1.00  0.00     0.252 C 
BRANCH   4   5
HETATM    5  C   UNL     1      28.783  43.934  54.110  1.00  0.00    -0.023 A 
HETATM    6  C   UNL     1      27.512  43.330  54.070  1.00  0.00     0.012 A 
HETATM    7  C   UNL     1      27.268  42.207  53.271  1.00  0.00     0.037 A 
HETATM    8  C   UNL     1      28.287  41.668  52.492  1.00  0.00     0.068 A 
HETATM    9  C   UNL     1      29.558  42.239  52.546  1.00  0.00     0.037 A 
HETATM   10  C   UNL     1      29.808  43.365  53.337  1.00  0.00     0.012 A 
BRANCH   8  11
HETATM   11  O   UNL     1      28.173  40.595  51.656  1.00  0.00    -0.356 OA
HETATM   12  C   UNL     1      28.082  40.883  50.264  1.00  0.00     0.210 C 
ENDBRANCH   8  11
ENDBRANCH   4   5
BRANCH   4  13
HETATM   13  C   UNL     1      29.909  44.988  56.121  1.00  0.00    -0.023 A 
HETATM   14  C   UNL     1      29.832  45.860  57.223  1.00  0.00     0.009 A 
HETATM   15  C   UNL     1      30.664  45.685  58.330  1.00  0.00     0.001 A 
HETATM   16  C   UNL     1      31.586  44.642  58.353  1.00  0.00     0.000 A 
HETATM   17  C   UNL     1      31.680  43.774  57.268  1.00  0.00     0.001 A 
HETATM   18  C   UNL     1      30.851  43.944  56.158  1.00  0.00     0.009 A 
ENDBRANCH   4  13
ENDBRANCH   1   4
BRANCH   1  19
HETATM   19  C   UNL     1      27.511  47.285  54.922  1.00  0.00     0.336 C 
BRANCH  19  20
HETATM   20  C   UNL     1      26.452  47.414  53.828  1.00  0.00     0.248 C 
HETATM   21  N   UNL     1      26.695  46.661  52.698  1.00  0.00    -0.326 N 
HETATM   22  H   UNL     1      27.548  46.113  52.645  1.00  0.00     0.169 HD
HETATM   23  O   UNL     1      25.440  48.059  54.097  1.00  0.00    -0.271 OA
BRANCH  21  24
HETATM   24  C   UNL     1      25.801  46.462  51.621  1.00  0.00     0.034 A 
HETATM   25  C   UNL     1      25.578  47.392  50.612  1.00  0.00     0.032 A 
HETATM   26  C   UNL     1      24.621  47.150  49.614  1.00  0.00     0.032 A 
HETATM   27  C   UNL     1      23.852  45.982  49.600  1.00  0.00     0.037 A 
HETATM   28  C   UNL     1      24.119  45.032  50.597  1.00  0.00     0.032 A 
HETATM   29  C   UNL     1      25.084  45.264  51.589  1.00  0.00     0.032 A 
BRANCH  27  30
HETATM   30  N   UNL     1      22.830  45.764  48.634  1.00  0.00    -0.318 N 
HETATM   31  C   UNL     1      22.821  44.761  47.648  1.00  0.00     0.224 C 
HETATM   32  O   UNL     1      23.616  43.853  47.462  1.00  0.00    -0.273 OA
HETATM   33  C   UNL     1      21.652  45.025  46.728  1.00  0.00     0.105 C 
HETATM   34  C   UNL     1      20.766  45.945  47.542  1.00  0.00     0.029 C 
HETATM   35  C   UNL     1      21.745  46.694  48.421  1.00  0.00     0.133 C 
ENDBRANCH  27  30
ENDBRANCH  21  24
ENDBRANCH  19  20
ENDBRANCH   1  19
TORSDOF 8
ENDMDL
MODEL 2
REMARK VINA RESULT:      -8.9      4.806      9.846
REMARK  8 active torsions:
REMARK  status: ('A' for Active; 'I' for Inactive)
REMARK    1  A    between atoms: O_2  and  C_3 
REMARK    2  A    between atoms: C_6  and  C_7 
REMARK    3  A    between atoms: C_7  and  N_8 
REMARK    4  A    between atoms: C_7  and  C_27 
REMARK    5  A    between atoms: N_8  and  C_11 
REMARK    6  A    between atoms: C_11  and  C_12 
REMARK       I    between atoms: C_12  and  N_13 
REMARK    7  A    between atoms: N_13  and  C_14 
REMARK    8  A    between atoms: C_17  and  N_18 
ROOT
HETATM    1  N   UNL     1      20.781  47.718  49.186  1.00  0.00    -0.055 N 
HETATM    2  H   UNL     1      21.648  47.441  49.674  1.00  0.00     0.278 HD
HETATM    3  H   UNL     1      20.114  48.013  49.900  1.00  0.00     0.278 HD
ENDROOT
BRANCH   1   4
HETATM    4  C   UNL     1      21.161  48.879  48.306  1.00  0.00     0.252 C 
BRANCH   4   5
HETATM    5  C   UNL     1      22.643  49.211  48.391  1.00  0.00    -0.023 A 
HETATM    6  C   UNL     1      23.483  48.401  49.179  1.00  0.00     0.012 A 
HETATM    7  C   UNL     1      24.863  48.628  49.236  1.00  0.00     0.037 A 
HETATM    8  C   UNL     1      25.432  49.664  48.502  1.00  0.00     0.068 A 
HETATM    9  C   UNL     1      24.606  50.492  47.742  1.00  0.00     0.037 A 
HETATM   10  C   UNL     1      23.227  50.268  47.677  1.00  0.00     0.012 A 
BRANCH   8  11
HETATM   11  O   UNL     1      26.760  49.975  48.453  1.00  0.00    -0.356 OA
HETATM   12  C   UNL     1      27.646  49.074  49.111  1.00  0.00     0.210 C 
ENDBRANCH   8  11
ENDBRANCH   4   5
BRANCH   4  13
HETATM   13  C   UNL     1      20.270  50.092  48.516  1.00  0.00    -0.023 A 
HETATM   14  C   UNL     1      19.590  50.651  47.417  1.00  0.00     0.009 A 
HETATM   15  C   UNL     1      18.755  51.756  47.584  1.00  0.00     0.001 A 
HETATM   16  C   UNL     1      18.586  52.321  48.845  1.00  0.00     0.000 A 
HETATM   17  C   UNL     1      19.255  51.785  49.942  1.00  0.00     0.001 A 
HETATM   18  C   UNL     1      20.093  50.679  49.782  1.00  0.00     0.009 A 
ENDBRANCH   4  13
ENDBRANCH   1   4
BRANCH   1  19
HETATM   19  C   UNL     1      20.282  46.486  48.461  1.00  0.00     0.336 C 
BRANCH  19  20
HETATM   20  C   UNL     1      21.435  45.517  48.206  1.00  0.00     0.248 C 
HETATM   21  N   UNL     1      22.284  45.335  49.278  1.00  0.00    -0.326 N 
HETATM   22  H   UNL     1      22.121  45.861  50.130  1.00  0.00     0.169 HD
HETATM   23  O   UNL     1      21.430  44.904  47.140  1.00  0.00    -0.271 OA
BRANCH  21  24
HETATM   24  C   UNL     1      23.315  44.373  49.370  1.00  0.00     0.034 A 
HETATM   25  C   UNL     1      23.103  43.027  49.650  1.00  0.00     0.032 A 
HETATM   26  C   UNL     1      24.187  42.146  49.793  1.00  0.00     0.032 A 
HETATM   27  C   UNL     1      25.510  42.583  49.676  1.00  0.00     0.037 A 
HETATM   28  C   UNL     1      25.709  43.931  49.350  1.00  0.00     0.032 A 
HETATM   29  C   UNL     1      24.629  44.813  49.191  1.00  0.00     0.032 A 
BRANCH  27  30
HETATM   30  N   UNL     1      26.613  41.710  49.893  1.00  0.00    -0.318 N 
HETATM   31  C   UNL     1      27.518  41.258  48.917  1.00  0.00     0.224 C 
HETATM   32  O   UNL     1      27.596  41.561  47.736  1.00  0.00    -0.273 OA
HETATM   33  C   UNL     1      28.396  40.205  49.550  1.00  0.00     0.105 C 
HETATM   34  C   UNL     1      28.224  40.450  51.034  1.00  0.00     0.029 C 
HETATM   35  C   UNL     1      26.822  41.011  51.141  1.00  0.00     0.133 C 
ENDBRANCH  27  30
ENDBRANCH  21  24
ENDBRANCH  19  20
ENDBRANCH   1  19
TORSDOF 8
ENDMDL
MODEL 3
REMARK VINA RESULT:      -8.7      4.104      7.629
REMARK  8 active torsions:
REMARK  status: ('A' for Active; 'I' for Inactive)
REMARK    1  A    between atoms: O_2  and  C_3 
REMARK    2  A    between atoms: C_6  and  C_7 
REMARK    3  A    between atoms: C_7  and  N_8 
REMARK    4  A    between atoms: C_7  and  C_27 
REMARK    5  A    between atoms: N_8  and  C_11 
REMARK    6  A    between atoms: C_11  and  C_12 
REMARK       I    between atoms: C_12  and  N_13 
REMARK    7  A    between atoms: N_13  and  C_14 
REMARK    8  A    between atoms: C_17  and  N_18 
ROOT
HETATM    1  N   UNL     1      23.838  46.246  50.106  1.00  0.00    -0.055 N 
HETATM    2  H   UNL     1      23.601  45.724  50.965  1.00  0.00     0.278 HD
HETATM    3  H   UNL     1      23.390  47.160  50.174  1.00  0.00     0.278 HD
ENDROOT
BRANCH   1   4
HETATM    4  C   UNL     1      25.337  46.390  50.117  1.00  0.00     0.252 C 
BRANCH   4   5
HETATM    5  C   UNL     1      25.938  46.095  51.482  1.00  0.00    -0.023 A 
HETATM    6  C   UNL     1      25.628  46.939  52.565  1.00  0.00     0.012 A 
HETATM    7  C   UNL     1      26.105  46.670  53.854  1.00  0.00     0.037 A 
HETATM    8  C   UNL     1      26.895  45.549  54.087  1.00  0.00     0.068 A 
HETATM    9  C   UNL     1      27.234  44.722  53.016  1.00  0.00     0.037 A 
HETATM   10  C   UNL     1      26.757  44.982  51.727  1.00  0.00     0.012 A 
BRANCH   8  11
HETATM   11  O   UNL     1      27.401  45.164  55.295  1.00  0.00    -0.356 OA
HETATM   12  C   UNL     1      28.665  45.712  55.656  1.00  0.00     0.210 C 
ENDBRANCH   8  11
ENDBRANCH   4   5
BRANCH   4  13
HETATM   13  C   UNL     1      25.804  47.715  49.538  1.00  0.00    -0.023 A 
HETATM   14  C   UNL     1      27.180  48.005  49.492  1.00  0.00     0.009 A 
HETATM   15  C   UNL     1      27.637  49.209  48.953  1.00  0.00     0.001 A 
HETATM   16  C   UNL     1      26.731  50.140  48.455  1.00  0.00     0.000 A 
HETATM   17  C   UNL     1      25.365  49.873  48.498  1.00  0.00     0.001 A 
HETATM   18  C   UNL     1      24.902  48.671  49.036  1.00  0.00     0.009 A 
ENDBRANCH   4  13
ENDBRANCH   1   4
BRANCH   1  19
HETATM   19  C   UNL     1      23.268  45.452  48.949  1.00  0.00     0.336 C 
BRANCH  19  20
HETATM   20  C   UNL     1      21.990  46.112  48.432  1.00  0.00     0.248 C 
HETATM   21  N   UNL     1      21.571  47.207  49.160  1.00  0.00    -0.326 N 
HETATM   22  H   UNL     1      22.094  47.479  49.986  1.00  0.00     0.169 HD
HETATM   23  O   UNL     1      21.535  45.700  47.367  1.00  0.00    -0.271 OA
BRANCH  21  24
HETATM   24  C   UNL     1      20.533  48.097  48.803  1.00  0.00     0.034 A 
HETATM   25  C   UNL     1      20.719  49.247  48.044  1.00  0.00     0.032 A 
HETATM   26  C   UNL     1      19.648  50.118  47.790  1.00  0.00     0.032 A 
HETATM   27  C   UNL     1      18.367  49.876  48.294  1.00  0.00     0.037 A 
HETATM   28  C   UNL     1      18.182  48.691  49.019  1.00  0.00     0.032 A 
HETATM   29  C   UNL     1      19.246  47.809  49.265  1.00  0.00     0.032 A 
BRANCH  27  30
HETATM   30  N   UNL     1      17.296  50.793  48.101  1.00  0.00    -0.318 N 
HETATM   31  C   UNL     1      16.765  51.663  49.070  1.00  0.00     0.224 C 
HETATM   32  O   UNL     1      17.139  51.866  50.214  1.00  0.00    -0.273 OA
HETATM   33  C   UNL     1      15.525  52.302  48.491  1.00  0.00     0.105 C 
HETATM   34  C   UNL     1      15.681  52.084  47.000  1.00  0.00     0.029 C 
HETATM   35  C   UNL     1      16.476  50.799  46.911  1.00  0.00     0.133 C 
ENDBRANCH  27  30
ENDBRANCH  21  24
ENDBRANCH  19  20
ENDBRANCH   1  19
TORSDOF 8
ENDMDL
MODEL 4
REMARK VINA RESULT:      -8.7      2.246      4.787
REMARK  8 active torsions:
REMARK  status: ('A' for Active; 'I' for Inactive)
REMARK    1  A    between atoms: O_2  and  C_3 
REMARK    2  A    between atoms: C_6  and  C_7 
REMARK    3  A    between atoms: C_7  and  N_8 
REMARK    4  A    between atoms: C_7  and  C_27 
REMARK    5  A    between atoms: N_8  and  C_11 
REMARK    6  A    between atoms: C_11  and  C_12 
REMARK       I    between atoms: C_12  and  N_13 
REMARK    7  A    between atoms: N_13  and  C_14 
REMARK    8  A    between atoms: C_17  and  N_18 
ROOT
HETATM    1  N   UNL     1      27.938  42.472  51.792  1.00  0.00    -0.055 N 
HETATM    2  H   UNL     1      28.049  42.961  50.890  1.00  0.00     0.278 HD
HETATM    3  H   UNL     1      28.859  42.121  52.061  1.00  0.00     0.278 HD
ENDROOT
BRANCH   1   4
HETATM    4  C   UNL     1      27.468  43.519  52.768  1.00  0.00     0.252 C 
BRANCH   4   5
HETATM    5  C   UNL     1      26.942  44.765  52.073  1.00  0.00    -0.023 A 
HETATM    6  C   UNL     1      27.222  44.959  50.707  1.00  0.00     0.012 A 
HETATM    7  C   UNL     1      26.705  46.056  50.009  1.00  0.00     0.037 A 
HETATM    8  C   UNL     1      25.892  46.979  50.661  1.00  0.00     0.068 A 
HETATM    9  C   UNL     1      25.633  46.815  52.021  1.00  0.00     0.037 A 
HETATM   10  C   UNL     1      26.142  45.717  52.723  1.00  0.00     0.012 A 
BRANCH   8  11
HETATM   11  O   UNL     1      25.309  48.074  50.092  1.00  0.00    -0.356 OA
HETATM   12  C   UNL     1      23.940  47.942  49.721  1.00  0.00     0.210 C 
ENDBRANCH   8  11
ENDBRANCH   4   5
BRANCH   4  13
HETATM   13  C   UNL     1      28.500  43.829  53.840  1.00  0.00    -0.023 A 
HETATM   14  C   UNL     1      29.594  42.963  54.019  1.00  0.00     0.009 A 
HETATM   15  C   UNL     1      30.564  43.230  54.987  1.00  0.00     0.001 A 
HETATM   16  C   UNL     1      30.456  44.362  55.789  1.00  0.00     0.000 A 
HETATM   17  C   UNL     1      29.377  45.227  55.630  1.00  0.00     0.001 A 
HETATM   18  C   UNL     1      28.403  44.964  54.664  1.00  0.00     0.009 A 
ENDBRANCH   4  13
ENDBRANCH   1   4
BRANCH   1  19
HETATM   19  C   UNL     1      26.977  41.328  51.549  1.00  0.00     0.336 C 
BRANCH  19  20
HETATM   20  C   UNL     1      26.065  41.646  50.365  1.00  0.00     0.248 C 
HETATM   21  N   UNL     1      24.833  42.165  50.708  1.00  0.00    -0.326 N 
HETATM   22  H   UNL     1      24.599  42.269  51.690  1.00  0.00     0.169 HD
HETATM   23  O   UNL     1      26.545  41.535  49.238  1.00  0.00    -0.271 OA
BRANCH  21  24
HETATM   24  C   UNL     1      23.878  42.702  49.816  1.00  0.00     0.034 A 
HETATM   25  C   UNL     1      23.358  42.015  48.724  1.00  0.00     0.032 A 
HETATM   26  C   UNL     1      22.464  42.643  47.843  1.00  0.00     0.032 A 
HETATM   27  C   UNL     1      22.073  43.974  48.016  1.00  0.00     0.037 A 
HETATM   28  C   UNL     1      22.569  44.641  49.145  1.00  0.00     0.032 A 
HETATM   29  C   UNL     1      23.452  44.014  50.036  1.00  0.00     0.032 A 
BRANCH  27  30
HETATM   30  N   UNL     1      21.225  44.637  47.085  1.00  0.00    -0.318 N 
HETATM   31  C   UNL     1      19.826  44.755  47.175  1.00  0.00     0.224 C 
HETATM   32  O   UNL     1      19.076  44.395  48.068  1.00  0.00    -0.273 OA
HETATM   33  C   UNL     1      19.328  45.358  45.883  1.00  0.00     0.105 C 
HETATM   34  C   UNL     1      20.570  45.986  45.285  1.00  0.00     0.029 C 
HETATM   35  C   UNL     1      21.692  45.112  45.802  1.00  0.00     0.133 C 
ENDBRANCH  27  30
ENDBRANCH  21  24
ENDBRANCH  19  20
ENDBRANCH   1  19
TORSDOF 8
ENDMDL
MODEL 5
REMARK VINA RESULT:      -8.6      2.623      4.737
REMARK  8 active torsions:
REMARK  status: ('A' for Active; 'I' for Inactive)
REMARK    1  A    between atoms: O_2  and  C_3 
REMARK    2  A    between atoms: C_6  and  C_7 
REMARK    3  A    between atoms: C_7  and  N_8 
REMARK    4  A    between atoms: C_7  and  C_27 
REMARK    5  A    between atoms: N_8  and  C_11 
REMARK    6  A    between atoms: C_11  and  C_12 
REMARK       I    between atoms: C_12  and  N_13 
REMARK    7  A    between atoms: N_13  and  C_14 
REMARK    8  A    between atoms: C_17  and  N_18 
ROOT
HETATM    1  N   UNL     1      29.051  42.117  52.636  1.00  0.00    -0.055 N 
HETATM    2  H   UNL     1      29.121  42.641  51.749  1.00  0.00     0.278 HD
HETATM    3  H   UNL     1      29.998  42.018  53.005  1.00  0.00     0.278 HD
ENDROOT
BRANCH   1   4
HETATM    4  C   UNL     1      28.215  42.974  53.550  1.00  0.00     0.252 C 
BRANCH   4   5
HETATM    5  C   UNL     1      27.222  43.836  52.789  1.00  0.00    -0.023 A 
HETATM    6  C   UNL     1      25.958  44.091  53.355  1.00  0.00     0.012 A 
HETATM    7  C   UNL     1      25.036  44.932  52.722  1.00  0.00     0.037 A 
HETATM    8  C   UNL     1      25.360  45.541  51.514  1.00  0.00     0.068 A 
HETATM    9  C   UNL     1      26.596  45.273  50.927  1.00  0.00     0.037 A 
HETATM   10  C   UNL     1      27.525  44.437  51.557  1.00  0.00     0.012 A 
BRANCH   8  11
HETATM   11  O   UNL     1      24.562  46.396  50.810  1.00  0.00    -0.356 OA
HETATM   12  C   UNL     1      25.219  47.473  50.146  1.00  0.00     0.210 C 
ENDBRANCH   8  11
ENDBRANCH   4   5
BRANCH   4  13
HETATM   13  C   UNL     1      29.053  43.767  54.540  1.00  0.00    -0.023 A 
HETATM   14  C   UNL     1      30.231  43.201  55.061  1.00  0.00     0.009 A 
HETATM   15  C   UNL     1      31.026  43.912  55.962  1.00  0.00     0.001 A 
HETATM   16  C   UNL     1      30.657  45.195  56.356  1.00  0.00     0.000 A 
HETATM   17  C   UNL     1      29.492  45.768  55.855  1.00  0.00     0.001 A 
HETATM   18  C   UNL     1      28.692  45.062  54.955  1.00  0.00     0.009 A 
ENDBRANCH   4  13
ENDBRANCH   1   4
BRANCH   1  19
HETATM   19  C   UNL     1      28.465  40.764  52.292  1.00  0.00     0.336 C 
BRANCH  19  20
HETATM   20  C   UNL     1      27.716  40.833  50.962  1.00  0.00     0.248 C 
HETATM   21  N   UNL     1      26.345  40.941  51.076  1.00  0.00    -0.326 N 
HETATM   22  H   UNL     1      25.926  40.932  52.000  1.00  0.00     0.169 HD
HETATM   23  O   UNL     1      28.393  40.916  49.939  1.00  0.00    -0.271 OA
BRANCH  21  24
HETATM   24  C   UNL     1      25.439  41.195  50.022  1.00  0.00     0.034 A 
HETATM   25  C   UNL     1      25.387  40.457  48.844  1.00  0.00     0.032 A 
HETATM   26  C   UNL     1      24.505  40.816  47.813  1.00  0.00     0.032 A 
HETATM   27  C   UNL     1      23.660  41.925  47.921  1.00  0.00     0.037 A 
HETATM   28  C   UNL     1      23.690  42.634  49.130  1.00  0.00     0.032 A 
HETATM   29  C   UNL     1      24.560  42.271  50.169  1.00  0.00     0.032 A 
BRANCH  27  30
HETATM   30  N   UNL     1      22.817  42.337  46.850  1.00  0.00    -0.318 N 
HETATM   31  C   UNL     1      21.644  41.690  46.422  1.00  0.00     0.224 C 
HETATM   32  O   UNL     1      21.078  40.720  46.902  1.00  0.00    -0.273 OA
HETATM   33  C   UNL     1      21.188  42.353  45.145  1.00  0.00     0.105 C 
HETATM   34  C   UNL     1      21.911  43.684  45.162  1.00  0.00     0.029 C 
HETATM   35  C   UNL     1      23.183  43.386  45.926  1.00  0.00     0.133 C 
ENDBRANCH  27  30
ENDBRANCH  21  24
ENDBRANCH  19  20
ENDBRANCH   1  19
TORSDOF 8
ENDMDL
MODEL 6
REMARK VINA RESULT:      -8.6      3.286     10.346
REMARK  8 active torsions:
REMARK  status: ('A' for Active; 'I' for Inactive)
REMARK    1  A    between atoms: O_2  and  C_3 
REMARK    2  A    between atoms: C_6  and  C_7 
REMARK    3  A    between atoms: C_7  and  N_8 
REMARK    4  A    between atoms: C_7  and  C_27 
REMARK    5  A    between atoms: N_8  and  C_11 
REMARK    6  A    between atoms: C_11  and  C_12 
REMARK       I    between atoms: C_12  and  N_13 
REMARK    7  A    between atoms: N_13  and  C_14 
REMARK    8  A    between atoms: C_17  and  N_18 
ROOT
HETATM    1  N   UNL     1      21.939  49.240  49.452  1.00  0.00    -0.055 N 
HETATM    2  H   UNL     1      22.033  50.156  48.985  1.00  0.00     0.278 HD
HETATM    3  H   UNL     1      22.277  49.352  50.409  1.00  0.00     0.278 HD
ENDROOT
BRANCH   1   4
HETATM    4  C   UNL     1      20.465  48.930  49.445  1.00  0.00     0.252 C 
BRANCH   4   5
HETATM    5  C   UNL     1      20.100  47.867  48.422  1.00  0.00    -0.023 A 
HETATM    6  C   UNL     1      19.857  48.251  47.089  1.00  0.00     0.012 A 
HETATM    7  C   UNL     1      19.583  47.300  46.099  1.00  0.00     0.037 A 
HETATM    8  C   UNL     1      19.552  45.946  46.419  1.00  0.00     0.068 A 
HETATM    9  C   UNL     1      19.761  45.555  47.742  1.00  0.00     0.037 A 
HETATM   10  C   UNL     1      20.041  46.500  48.735  1.00  0.00     0.012 A 
BRANCH   8  11
HETATM   11  O   UNL     1      19.321  44.923  45.546  1.00  0.00    -0.356 OA
HETATM   12  C   UNL     1      19.486  43.604  46.058  1.00  0.00     0.210 C 
ENDBRANCH   8  11
ENDBRANCH   4   5
BRANCH   4  13
HETATM   13  C   UNL     1      19.603  50.177  49.337  1.00  0.00    -0.023 A 
HETATM   14  C   UNL     1      20.079  51.287  48.615  1.00  0.00     0.009 A 
HETATM   15  C   UNL     1      19.303  52.441  48.488  1.00  0.00     0.001 A 
HETATM   16  C   UNL     1      18.045  52.504  49.079  1.00  0.00     0.000 A 
HETATM   17  C   UNL     1      17.560  51.418  49.802  1.00  0.00     0.001 A 
HETATM   18  C   UNL     1      18.332  50.261  49.933  1.00  0.00     0.009 A 
ENDBRANCH   4  13
ENDBRANCH   1   4
BRANCH   1  19
HETATM   19  C   UNL     1      22.813  48.272  48.684  1.00  0.00     0.336 C 
BRANCH  19  20
HETATM   20  C   UNL     1      23.914  47.720  49.587  1.00  0.00     0.248 C 
HETATM   21  N   UNL     1      23.811  46.373  49.866  1.00  0.00    -0.326 N 
HETATM   22  H   UNL     1      23.020  45.853  49.500  1.00  0.00     0.169 HD
HETATM   23  O   UNL     1      24.842  48.476  49.870  1.00  0.00    -0.271 OA
BRANCH  21  24
HETATM   24  C   UNL     1      24.780  45.582  50.524  1.00  0.00     0.034 A 
HETATM   25  C   UNL     1      24.602  45.017  51.783  1.00  0.00     0.032 A 
HETATM   26  C   UNL     1      25.640  44.301  52.399  1.00  0.00     0.032 A 
HETATM   27  C   UNL     1      26.886  44.138  51.787  1.00  0.00     0.037 A 
HETATM   28  C   UNL     1      27.038  44.673  50.500  1.00  0.00     0.032 A 
HETATM   29  C   UNL     1      25.999  45.378  49.873  1.00  0.00     0.032 A 
BRANCH  27  30
HETATM   30  N   UNL     1      27.965  43.477  52.439  1.00  0.00    -0.318 N 
HETATM   31  C   UNL     1      28.716  43.980  53.516  1.00  0.00     0.224 C 
HETATM   32  O   UNL     1      28.566  45.015  54.146  1.00  0.00    -0.273 OA
HETATM   33  C   UNL     1      29.873  43.039  53.754  1.00  0.00     0.105 C 
HETATM   34  C   UNL     1      29.440  41.766  53.057  1.00  0.00     0.029 C 
HETATM   35  C   UNL     1      28.558  42.261  51.931  1.00  0.00     0.133 C 
ENDBRANCH  27  30
ENDBRANCH  21  24
ENDBRANCH  19  20
ENDBRANCH   1  19
TORSDOF 8
ENDMDL
MODEL 7
REMARK VINA RESULT:      -8.5     15.850     19.065
REMARK  8 active torsions:
REMARK  status: ('A' for Active; 'I' for Inactive)
REMARK    1  A    between atoms: O_2  and  C_3 
REMARK    2  A    between atoms: C_6  and  C_7 
REMARK    3  A    between atoms: C_7  and  N_8 
REMARK    4  A    between atoms: C_7  and  C_27 
REMARK    5  A    between atoms: N_8  and  C_11 
REMARK    6  A    between atoms: C_11  and  C_12 
REMARK       I    between atoms: C_12  and  N_13 
REMARK    7  A    between atoms: N_13  and  C_14 
REMARK    8  A    between atoms: C_17  and  N_18 
ROOT
HETATM    1  N   UNL     1      37.760  48.670  64.295  1.00  0.00    -0.055 N 
HETATM    2  H   UNL     1      37.534  49.660  64.107  1.00  0.00     0.278 HD
HETATM    3  H   UNL     1      38.540  48.417  63.687  1.00  0.00     0.278 HD
ENDROOT
BRANCH   1   4
HETATM    4  C   UNL     1      38.180  48.616  65.741  1.00  0.00     0.252 C 
BRANCH   4   5
HETATM    5  C   UNL     1      37.821  49.885  66.497  1.00  0.00    -0.023 A 
HETATM    6  C   UNL     1      37.210  49.781  67.762  1.00  0.00     0.012 A 
HETATM    7  C   UNL     1      36.921  50.920  68.523  1.00  0.00     0.037 A 
HETATM    8  C   UNL     1      37.241  52.184  68.039  1.00  0.00     0.068 A 
HETATM    9  C   UNL     1      37.818  52.302  66.775  1.00  0.00     0.037 A 
HETATM   10  C   UNL     1      38.115  51.168  66.011  1.00  0.00     0.012 A 
BRANCH   8  11
HETATM   11  O   UNL     1      37.034  53.366  68.690  1.00  0.00    -0.356 OA
HETATM   12  C   UNL     1      38.134  53.881  69.434  1.00  0.00     0.210 C 
ENDBRANCH   8  11
ENDBRANCH   4   5
BRANCH   4  13
HETATM   13  C   UNL     1      39.635  48.214  65.915  1.00  0.00    -0.023 A 
HETATM   14  C   UNL     1      40.313  47.589  64.853  1.00  0.00     0.009 A 
HETATM   15  C   UNL     1      41.654  47.221  64.981  1.00  0.00     0.001 A 
HETATM   16  C   UNL     1      42.336  47.470  66.168  1.00  0.00     0.000 A 
HETATM   17  C   UNL     1      41.679  48.082  67.232  1.00  0.00     0.001 A 
HETATM   18  C   UNL     1      40.338  48.452  67.110  1.00  0.00     0.009 A 
ENDBRANCH   4  13
ENDBRANCH   1   4
BRANCH   1  19
HETATM   19  C   UNL     1      36.523  47.871  63.944  1.00  0.00     0.336 C 
BRANCH  19  20
HETATM   20  C   UNL     1      36.773  46.381  64.168  1.00  0.00     0.248 C 
HETATM   21  N   UNL     1      37.604  45.789  63.239  1.00  0.00    -0.326 N 
HETATM   22  H   UNL     1      37.958  46.347  62.469  1.00  0.00     0.169 HD
HETATM   23  O   UNL     1      36.329  45.885  65.202  1.00  0.00    -0.271 OA
BRANCH  21  24
HETATM   24  C   UNL     1      38.134  44.481  63.309  1.00  0.00     0.034 A 
HETATM   25  C   UNL     1      37.360  43.332  63.430  1.00  0.00     0.032 A 
HETATM   26  C   UNL     1      37.965  42.072  63.564  1.00  0.00     0.032 A 
HETATM   27  C   UNL     1      39.355  41.923  63.595  1.00  0.00     0.037 A 
HETATM   28  C   UNL     1      40.123  43.083  63.428  1.00  0.00     0.032 A 
HETATM   29  C   UNL     1      39.524  44.343  63.280  1.00  0.00     0.032 A 
BRANCH  27  30
HETATM   30  N   UNL     1      39.972  40.658  63.806  1.00  0.00    -0.318 N 
HETATM   31  C   UNL     1      39.941  39.563  62.923  1.00  0.00     0.224 C 
HETATM   32  O   UNL     1      39.462  39.487  61.803  1.00  0.00    -0.273 OA
HETATM   33  C   UNL     1      40.552  38.378  63.633  1.00  0.00     0.105 C 
HETATM   34  C   UNL     1      41.333  39.011  64.766  1.00  0.00     0.029 C 
HETATM   35  C   UNL     1      40.555  40.273  65.071  1.00  0.00     0.133 C 
ENDBRANCH  27  30
ENDBRANCH  21  24
ENDBRANCH  19  20
ENDBRANCH   1  19
TORSDOF 8
ENDMDL
MODEL 8
REMARK VINA RESULT:      -8.5      4.361      6.810
REMARK  8 active torsions:
REMARK  status: ('A' for Active; 'I' for Inactive)
REMARK    1  A    between atoms: O_2  and  C_3 
REMARK    2  A    between atoms: C_6  and  C_7 
REMARK    3  A    between atoms: C_7  and  N_8 
REMARK    4  A    between atoms: C_7  and  C_27 
REMARK    5  A    between atoms: N_8  and  C_11 
REMARK    6  A    between atoms: C_11  and  C_12 
REMARK       I    between atoms: C_12  and  N_13 
REMARK    7  A    between atoms: N_13  and  C_14 
REMARK    8  A    between atoms: C_17  and  N_18 
ROOT
HETATM    1  N   UNL     1      29.213  42.031  52.405  1.00  0.00    -0.055 N 
HETATM    2  H   UNL     1      29.175  42.508  51.490  1.00  0.00     0.278 HD
HETATM    3  H   UNL     1      30.180  42.077  52.730  1.00  0.00     0.278 HD
ENDROOT
BRANCH   1   4
HETATM    4  C   UNL     1      28.312  42.826  53.315  1.00  0.00     0.252 C 
BRANCH   4   5
HETATM    5  C   UNL     1      27.299  43.657  52.546  1.00  0.00    -0.023 A 
HETATM    6  C   UNL     1      26.040  43.912  53.123  1.00  0.00     0.012 A 
HETATM    7  C   UNL     1      25.099  44.727  52.481  1.00  0.00     0.037 A 
HETATM    8  C   UNL     1      25.400  45.307  51.253  1.00  0.00     0.068 A 
HETATM    9  C   UNL     1      26.631  45.038  50.657  1.00  0.00     0.037 A 
HETATM   10  C   UNL     1      27.578  44.229  51.295  1.00  0.00     0.012 A 
BRANCH   8  11
HETATM   11  O   UNL     1      24.583  46.135  50.539  1.00  0.00    -0.356 OA
HETATM   12  C   UNL     1      25.191  47.296  49.979  1.00  0.00     0.210 C 
ENDBRANCH   8  11
ENDBRANCH   4   5
BRANCH   4  13
HETATM   13  C   UNL     1      29.084  43.635  54.345  1.00  0.00    -0.023 A 
HETATM   14  C   UNL     1      30.261  43.104  54.902  1.00  0.00     0.009 A 
HETATM   15  C   UNL     1      30.996  43.830  55.840  1.00  0.00     0.001 A 
HETATM   16  C   UNL     1      30.568  45.094  56.236  1.00  0.00     0.000 A 
HETATM   17  C   UNL     1      29.401  45.633  55.699  1.00  0.00     0.001 A 
HETATM   18  C   UNL     1      28.662  44.910  54.761  1.00  0.00     0.009 A 
ENDBRANCH   4  13
ENDBRANCH   1   4
BRANCH   1  19
HETATM   19  C   UNL     1      28.795  40.597  52.163  1.00  0.00     0.336 C 
BRANCH  19  20
HETATM   20  C   UNL     1      28.112  40.466  50.803  1.00  0.00     0.248 C 
HETATM   21  N   UNL     1      28.964  40.189  49.753  1.00  0.00    -0.326 N 
HETATM   22  H   UNL     1      29.961  40.126  49.932  1.00  0.00     0.169 HD
HETATM   23  O   UNL     1      26.883  40.490  50.785  1.00  0.00    -0.271 OA
BRANCH  21  24
HETATM   24  C   UNL     1      28.581  39.849  48.436  1.00  0.00     0.034 A 
HETATM   25  C   UNL     1      28.558  38.548  47.943  1.00  0.00     0.032 A 
HETATM   26  C   UNL     1      28.232  38.298  46.601  1.00  0.00     0.032 A 
HETATM   27  C   UNL     1      27.933  39.334  45.711  1.00  0.00     0.037 A 
HETATM   28  C   UNL     1      27.915  40.635  46.231  1.00  0.00     0.032 A 
HETATM   29  C   UNL     1      28.227  40.890  47.575  1.00  0.00     0.032 A 
BRANCH  27  30
HETATM   30  N   UNL     1      27.674  39.091  44.332  1.00  0.00    -0.318 N 
HETATM   31  C   UNL     1      28.548  39.364  43.264  1.00  0.00     0.224 C 
HETATM   32  O   UNL     1      29.695  39.780  43.291  1.00  0.00    -0.273 OA
HETATM   33  C   UNL     1      27.792  39.135  41.977  1.00  0.00     0.105 C 
HETATM   34  C   UNL     1      26.618  38.280  42.406  1.00  0.00     0.029 C 
HETATM   35  C   UNL     1      26.372  38.708  43.837  1.00  0.00     0.133 C 
ENDBRANCH  27  30
ENDBRANCH  21  24
ENDBRANCH  19  20
ENDBRANCH   1  19
TORSDOF 8
ENDMDL
MODEL 9
REMARK VINA RESULT:      -8.3      2.686      5.111
REMARK  8 active torsions:
REMARK  status: ('A' for Active; 'I' for Inactive)
REMARK    1  A    between atoms: O_2  and  C_3 
REMARK    2  A    between atoms: C_6  and  C_7 
REMARK    3  A    between atoms: C_7  and  N_8 
REMARK    4  A    between atoms: C_7  and  C_27 
REMARK    5  A    between atoms: N_8  and  C_11 
REMARK    6  A    between atoms: C_11  and  C_12 
REMARK       I    between atoms: C_12  and  N_13 
REMARK    7  A    between atoms: N_13  and  C_14 
REMARK    8  A    between atoms: C_17  and  N_18 
ROOT
HETATM    1  N   UNL     1      26.871  42.415  50.818  1.00  0.00    -0.055 N 
HETATM    2  H   UNL     1      27.139  42.890  49.942  1.00  0.00     0.278 HD
HETATM    3  H   UNL     1      27.600  41.732  51.029  1.00  0.00     0.278 HD
ENDROOT
BRANCH   1   4
HETATM    4  C   UNL     1      26.838  43.493  51.870  1.00  0.00     0.252 C 
BRANCH   4   5
HETATM    5  C   UNL     1      26.599  44.873  51.279  1.00  0.00    -0.023 A 
HETATM    6  C   UNL     1      25.795  45.791  51.982  1.00  0.00     0.012 A 
HETATM    7  C   UNL     1      25.600  47.095  51.510  1.00  0.00     0.037 A 
HETATM    8  C   UNL     1      26.208  47.509  50.330  1.00  0.00     0.068 A 
HETATM    9  C   UNL     1      26.982  46.600  49.608  1.00  0.00     0.037 A 
HETATM   10  C   UNL     1      27.185  45.297  50.077  1.00  0.00     0.012 A 
BRANCH   8  11
HETATM   11  O   UNL     1      26.117  48.753  49.776  1.00  0.00    -0.356 OA
HETATM   12  C   UNL     1      27.176  49.137  48.904  1.00  0.00     0.210 C 
ENDBRANCH   8  11
ENDBRANCH   4   5
BRANCH   4  13
HETATM   13  C   UNL     1      28.042  43.446  52.797  1.00  0.00    -0.023 A 
HETATM   14  C   UNL     1      29.169  42.686  52.431  1.00  0.00     0.009 A 
HETATM   15  C   UNL     1      30.293  42.636  53.256  1.00  0.00     0.001 A 
HETATM   16  C   UNL     1      30.310  43.339  54.457  1.00  0.00     0.000 A 
HETATM   17  C   UNL     1      29.202  44.091  54.838  1.00  0.00     0.001 A 
HETATM   18  C   UNL     1      28.074  44.145  54.017  1.00  0.00     0.009 A 
ENDBRANCH   4  13
ENDBRANCH   1   4
BRANCH   1  19
HETATM   19  C   UNL     1      25.550  41.726  50.550  1.00  0.00     0.336 C 
BRANCH  19  20
HETATM   20  C   UNL     1      24.444  42.760  50.344  1.00  0.00     0.248 C 
HETATM   21  N   UNL     1      24.426  43.345  49.094  1.00  0.00    -0.326 N 
HETATM   22  H   UNL     1      25.142  43.092  48.422  1.00  0.00     0.169 HD
HETATM   23  O   UNL     1      23.612  42.881  51.242  1.00  0.00    -0.271 OA
BRANCH  21  24
HETATM   24  C   UNL     1      23.416  44.194  48.586  1.00  0.00     0.034 A 
HETATM   25  C   UNL     1      23.385  45.570  48.780  1.00  0.00     0.032 A 
HETATM   26  C   UNL     1      22.309  46.336  48.303  1.00  0.00     0.032 A 
HETATM   27  C   UNL     1      21.232  45.752  47.630  1.00  0.00     0.037 A 
HETATM   28  C   UNL     1      21.297  44.370  47.402  1.00  0.00     0.032 A 
HETATM   29  C   UNL     1      22.377  43.602  47.865  1.00  0.00     0.032 A 
BRANCH  27  30
HETATM   30  N   UNL     1      20.105  46.512  47.209  1.00  0.00    -0.318 N 
HETATM   31  C   UNL     1      19.209  47.200  48.047  1.00  0.00     0.224 C 
HETATM   32  O   UNL     1      19.243  47.349  49.258  1.00  0.00    -0.273 OA
HETATM   33  C   UNL     1      18.065  47.698  47.194  1.00  0.00     0.105 C 
HETATM   34  C   UNL     1      18.627  47.645  45.789  1.00  0.00     0.029 C 
HETATM   35  C   UNL     1      19.623  46.507  45.847  1.00  0.00     0.133 C 
ENDBRANCH  27  30
ENDBRANCH  21  24
ENDBRANCH  19  20
ENDBRANCH   1  19
TORSDOF 8
ENDMDL
MODEL 10
REMARK VINA RESULT:      -8.3      4.528      6.887
REMARK  8 active torsions:
REMARK  status: ('A' for Active; 'I' for Inactive)
REMARK    1  A    between atoms: O_2  and  C_3 
REMARK    2  A    between atoms: C_6  and  C_7 
REMARK    3  A    between atoms: C_7  and  N_8 
REMARK    4  A    between atoms: C_7  and  C_27 
REMARK    5  A    between atoms: N_8  and  C_11 
REMARK    6  A    between atoms: C_11  and  C_12 
REMARK       I    between atoms: C_12  and  N_13 
REMARK    7  A    between atoms: N_13  and  C_14 
REMARK    8  A    between atoms: C_17  and  N_18 
ROOT
HETATM    1  N   UNL     1      24.465  47.440  50.434  1.00  0.00    -0.055 N 
HETATM    2  H   UNL     1      23.491  47.126  50.294  1.00  0.00     0.278 HD
HETATM    3  H   UNL     1      24.495  47.943  51.322  1.00  0.00     0.278 HD
ENDROOT
BRANCH   1   4
HETATM    4  C   UNL     1      25.291  46.183  50.511  1.00  0.00     0.252 C 
BRANCH   4   5
HETATM    5  C   UNL     1      24.546  44.966  49.985  1.00  0.00    -0.023 A 
HETATM    6  C   UNL     1      25.188  44.111  49.069  1.00  0.00     0.012 A 
HETATM    7  C   UNL     1      24.567  42.944  48.609  1.00  0.00     0.037 A 
HETATM    8  C   UNL     1      23.295  42.605  49.058  1.00  0.00     0.068 A 
HETATM    9  C   UNL     1      22.636  43.460  49.942  1.00  0.00     0.037 A 
HETATM   10  C   UNL     1      23.253  44.625  50.410  1.00  0.00     0.012 A 
BRANCH   8  11
HETATM   11  O   UNL     1      22.592  41.489  48.706  1.00  0.00    -0.356 OA
HETATM   12  C   UNL     1      22.739  41.047  47.360  1.00  0.00     0.210 C 
ENDBRANCH   8  11
ENDBRANCH   4   5
BRANCH   4  13
HETATM   13  C   UNL     1      25.894  45.960  51.888  1.00  0.00    -0.023 A 
HETATM   14  C   UNL     1      25.716  46.933  52.888  1.00  0.00     0.009 A 
HETATM   15  C   UNL     1      26.247  46.748  54.166  1.00  0.00     0.001 A 
HETATM   16  C   UNL     1      26.964  45.592  54.463  1.00  0.00     0.000 A 
HETATM   17  C   UNL     1      27.155  44.621  53.484  1.00  0.00     0.001 A 
HETATM   18  C   UNL     1      26.627  44.801  52.204  1.00  0.00     0.009 A 
ENDBRANCH   4  13
ENDBRANCH   1   4
BRANCH   1  19
HETATM   19  C   UNL     1      24.790  48.365  49.281  1.00  0.00     0.336 C 
BRANCH  19  20
HETATM   20  C   UNL     1      23.507  48.943  48.686  1.00  0.00     0.248 C 
HETATM   21  N   UNL     1      22.471  49.095  49.585  1.00  0.00    -0.326 N 
HETATM   22  H   UNL     1      22.604  48.793  50.545  1.00  0.00     0.169 HD
HETATM   23  O   UNL     1      23.551  49.331  47.520  1.00  0.00    -0.271 OA
BRANCH  21  24
HETATM   24  C   UNL     1      21.248  49.760  49.343  1.00  0.00     0.034 A 
HETATM   25  C   UNL     1      21.147  51.106  49.004  1.00  0.00     0.032 A 
HETATM   26  C   UNL     1      19.891  51.712  48.848  1.00  0.00     0.032 A 
HETATM   27  C   UNL     1      18.702  51.000  49.036  1.00  0.00     0.037 A 
HETATM   28  C   UNL     1      18.817  49.635  49.333  1.00  0.00     0.032 A 
HETATM   29  C   UNL     1      20.071  49.021  49.477  1.00  0.00     0.032 A 
BRANCH  27  30
HETATM   30  N   UNL     1      17.427  51.627  48.951  1.00  0.00    -0.318 N 
HETATM   31  C   UNL     1      16.583  51.641  47.826  1.00  0.00     0.224 C 
HETATM   32  O   UNL     1      16.720  51.080  46.750  1.00  0.00    -0.273 OA
HETATM   33  C   UNL     1      15.437  52.580  48.117  1.00  0.00     0.105 C 
HETATM   34  C   UNL     1      15.462  52.707  49.626  1.00  0.00     0.029 C 
HETATM   35  C   UNL     1      16.922  52.514  49.974  1.00  0.00     0.133 C 
ENDBRANCH  27  30
ENDBRANCH  21  24
ENDBRANCH  19  20
ENDBRANCH   1  19
TORSDOF 8
ENDMDL
