MODEL 1
REMARK VINA RESULT:      -8.0      0.000      0.000
REMARK  6 active torsions:
REMARK  status: ('A' for Active; 'I' for Inactive)
REMARK    1  A    between atoms: C_2  and  N_3 
REMARK    2  A    between atoms: N_3  and  C_5 
REMARK    3  A    between atoms: C_5  and  C_6 
REMARK    4  A    between atoms: C_6  and  N_7 
REMARK       I    between atoms: N_7  and  C_8 
REMARK    5  A    between atoms: C_8  and  C_9 
REMARK    6  A    between atoms: C_10  and  C_11 
ROOT
HETATM    1  N   UNL     1      26.539  44.548  52.930  1.00  0.00    -0.354 N 
HETATM    2  C   UNL     1      26.513  44.726  54.302  1.00  0.00     0.255 C 
HETATM    3  O   UNL     1      26.357  43.766  55.050  1.00  0.00    -0.268 OA
HETATM    4  H   UNL     1      26.665  45.358  52.338  1.00  0.00     0.162 HD
ENDROOT
BRANCH   2   5
HETATM    5  C   UNL     1      26.712  46.094  54.761  1.00  0.00     0.080 A 
HETATM    6  C   UNL     1      27.698  46.611  55.671  1.00  0.00     0.104 A 
HETATM    7  N   UNL     1      27.520  47.929  55.869  1.00  0.00    -0.174 NA
HETATM    8  N   UNL     1      26.472  48.257  55.116  1.00  0.00    -0.288 N 
HETATM    9  H   UNL     1      26.161  49.224  55.125  1.00  0.00     0.188 HD
HETATM   10  C   UNL     1      25.951  47.204  54.427  1.00  0.00     0.128 A 
BRANCH   6  11
HETATM   11  C   UNL     1      28.799  45.934  56.361  1.00  0.00    -0.002 A 
HETATM   12  C   UNL     1      29.670  45.075  55.685  1.00  0.00     0.056 A 
HETATM   13  C   UNL     1      30.718  44.470  56.372  1.00  0.00     0.117 A 
HETATM   14  F   UNL     1      31.539  43.640  55.712  1.00  0.00    -0.206 F 
HETATM   15  C   UNL     1      30.936  44.714  57.723  1.00  0.00     0.042 A 
HETATM   16  C   UNL     1      30.088  45.583  58.403  1.00  0.00     0.004 A 
HETATM   17  C   UNL     1      29.027  46.191  57.726  1.00  0.00     0.014 A 
ENDBRANCH   6  11
ENDBRANCH   2   5
BRANCH   1  18
HETATM   18  C   UNL     1      26.306  43.251  52.330  1.00  0.00     0.162 C 
BRANCH  18  19
HETATM   19  C   UNL     1      27.509  42.595  51.575  1.00  0.00     0.143 C 
HETATM   20  C   UNL     1      27.715  41.085  51.830  1.00  0.00     0.041 C 
HETATM   21  C   UNL     1      28.561  40.955  53.091  1.00  0.00     0.003 C 
HETATM   22  C   UNL     1      29.266  42.292  53.262  1.00  0.00     0.003 C 
HETATM   23  C   UNL     1      28.870  43.141  52.057  1.00  0.00     0.041 C 
BRANCH  19  24
HETATM   24  N   UNL     1      27.363  42.826  50.027  1.00  0.00    -0.065 N 
HETATM   25  H   UNL     1      28.242  43.263  49.719  1.00  0.00     0.280 HD
HETATM   26  C   UNL     1      27.285  41.519  49.238  1.00  0.00     0.270 C 
BRANCH  24  27
HETATM   27  C   UNL     1      26.240  43.735  49.540  1.00  0.00     0.231 C 
HETATM   28  C   UNL     1      26.620  45.199  49.517  1.00  0.00     0.034 C 
ENDBRANCH  24  27
ENDBRANCH  19  24
ENDBRANCH  18  19
ENDBRANCH   1  18
TORSDOF 6
ENDMDL
MODEL 2
REMARK VINA RESULT:      -7.8      2.593      4.941
REMARK  6 active torsions:
REMARK  status: ('A' for Active; 'I' for Inactive)
REMARK    1  A    between atoms: C_2  and  N_3 
REMARK    2  A    between atoms: N_3  and  C_5 
REMARK    3  A    between atoms: C_5  and  C_6 
REMARK    4  A    between atoms: C_6  and  N_7 
REMARK       I    between atoms: N_7  and  C_8 
REMARK    5  A    between atoms: C_8  and  C_9 
REMARK    6  A    between atoms: C_10  and  C_11 
ROOT
HETATM    1  N   UNL     1      26.403  46.727  52.846  1.00  0.00    -0.354 N 
HETATM    2  C   UNL     1      26.368  46.081  54.068  1.00  0.00     0.255 C 
HETATM    3  O   UNL     1      25.296  45.749  54.565  1.00  0.00    -0.268 OA
HETATM    4  H   UNL     1      27.301  46.992  52.462  1.00  0.00     0.162 HD
ENDROOT
BRANCH   2   5
HETATM    5  C   UNL     1      27.665  45.810  54.672  1.00  0.00     0.080 A 
HETATM    6  C   UNL     1      28.535  44.680  54.487  1.00  0.00     0.104 A 
HETATM    7  N   UNL     1      29.628  44.787  55.261  1.00  0.00    -0.174 NA
HETATM    8  N   UNL     1      29.483  45.938  55.914  1.00  0.00    -0.288 N 
HETATM    9  H   UNL     1      30.210  46.211  56.569  1.00  0.00     0.188 HD
HETATM   10  C   UNL     1      28.332  46.596  55.601  1.00  0.00     0.128 A 
BRANCH   6  11
HETATM   11  C   UNL     1      28.394  43.508  53.619  1.00  0.00    -0.002 A 
HETATM   12  C   UNL     1      28.022  43.630  52.277  1.00  0.00     0.056 A 
HETATM   13  C   UNL     1      27.923  42.494  51.479  1.00  0.00     0.117 A 
HETATM   14  F   UNL     1      27.555  42.626  50.197  1.00  0.00    -0.206 F 
HETATM   15  C   UNL     1      28.204  41.228  51.982  1.00  0.00     0.042 A 
HETATM   16  C   UNL     1      28.595  41.095  53.311  1.00  0.00     0.004 A 
HETATM   17  C   UNL     1      28.691  42.228  54.124  1.00  0.00     0.014 A 
ENDBRANCH   6  11
ENDBRANCH   2   5
BRANCH   1  18
HETATM   18  C   UNL     1      25.189  47.104  52.152  1.00  0.00     0.162 C 
BRANCH  18  19
HETATM   19  C   UNL     1      25.069  46.676  50.652  1.00  0.00     0.143 C 
HETATM   20  C   UNL     1      26.395  46.291  49.958  1.00  0.00     0.041 C 
HETATM   21  C   UNL     1      27.019  47.581  49.440  1.00  0.00     0.003 C 
HETATM   22  C   UNL     1      25.884  48.590  49.348  1.00  0.00     0.003 C 
HETATM   23  C   UNL     1      24.614  47.841  49.746  1.00  0.00     0.041 C 
BRANCH  19  24
HETATM   24  N   UNL     1      24.064  45.475  50.515  1.00  0.00    -0.065 N 
HETATM   25  H   UNL     1      23.308  45.657  51.189  1.00  0.00     0.280 HD
HETATM   26  C   UNL     1      23.367  45.439  49.155  1.00  0.00     0.270 C 
BRANCH  24  27
HETATM   27  C   UNL     1      24.577  44.071  50.816  1.00  0.00     0.231 C 
HETATM   28  C   UNL     1      23.612  42.980  50.408  1.00  0.00     0.034 C 
ENDBRANCH  24  27
ENDBRANCH  19  24
ENDBRANCH  18  19
ENDBRANCH   1  18
TORSDOF 6
ENDMDL
MODEL 3
REMARK VINA RESULT:      -7.8      1.287      2.942
REMARK  6 active torsions:
REMARK  status: ('A' for Active; 'I' for Inactive)
REMARK    1  A    between atoms: C_2  and  N_3 
REMARK    2  A    between atoms: N_3  and  C_5 
REMARK    3  A    between atoms: C_5  and  C_6 
REMARK    4  A    between atoms: C_6  and  N_7 
REMARK       I    between atoms: N_7  and  C_8 
REMARK    5  A    between atoms: C_8  and  C_9 
REMARK    6  A    between atoms: C_10  and  C_11 
ROOT
HETATM    1  N   UNL     1      25.628  44.847  52.823  1.00  0.00    -0.354 N 
HETATM    2  C   UNL     1      26.064  44.848  54.136  1.00  0.00     0.255 C 
HETATM    3  O   UNL     1      25.920  43.853  54.838  1.00  0.00    -0.268 OA
HETATM    4  H   UNL     1      25.757  45.683  52.268  1.00  0.00     0.162 HD
ENDROOT
BRANCH   2   5
HETATM    5  C   UNL     1      26.712  46.074  54.581  1.00  0.00     0.080 A 
HETATM    6  C   UNL     1      28.015  46.252  55.162  1.00  0.00     0.104 A 
HETATM    7  N   UNL     1      28.226  47.542  55.476  1.00  0.00    -0.174 NA
HETATM    8  N   UNL     1      27.114  48.177  55.109  1.00  0.00    -0.288 N 
HETATM    9  H   UNL     1      27.062  49.179  55.267  1.00  0.00     0.188 HD
HETATM   10  C   UNL     1      26.177  47.353  54.563  1.00  0.00     0.128 A 
BRANCH   6  11
HETATM   11  C   UNL     1      29.073  45.276  55.435  1.00  0.00    -0.002 A 
HETATM   12  C   UNL     1      29.867  45.356  56.583  1.00  0.00     0.056 A 
HETATM   13  C   UNL     1      30.846  44.396  56.817  1.00  0.00     0.117 A 
HETATM   14  F   UNL     1      31.605  44.493  57.918  1.00  0.00    -0.206 F 
HETATM   15  C   UNL     1      31.046  43.336  55.940  1.00  0.00     0.042 A 
HETATM   16  C   UNL     1      30.250  43.233  54.803  1.00  0.00     0.004 A 
HETATM   17  C   UNL     1      29.268  44.196  54.553  1.00  0.00     0.014 A 
ENDBRANCH   6  11
ENDBRANCH   2   5
BRANCH   1  18
HETATM   18  C   UNL     1      24.923  43.716  52.259  1.00  0.00     0.162 C 
BRANCH  18  19
HETATM   19  C   UNL     1      25.642  42.936  51.109  1.00  0.00     0.143 C 
HETATM   20  C   UNL     1      26.717  43.729  50.332  1.00  0.00     0.041 C 
HETATM   21  C   UNL     1      25.996  44.497  49.230  1.00  0.00     0.003 C 
HETATM   22  C   UNL     1      24.669  43.783  49.021  1.00  0.00     0.003 C 
HETATM   23  C   UNL     1      24.681  42.576  49.955  1.00  0.00     0.041 C 
BRANCH  19  24
HETATM   24  N   UNL     1      26.300  41.626  51.678  1.00  0.00    -0.065 N 
HETATM   25  H   UNL     1      25.640  41.253  52.373  1.00  0.00     0.280 HD
HETATM   26  C   UNL     1      26.419  40.520  50.628  1.00  0.00     0.270 C 
BRANCH  24  27
HETATM   27  C   UNL     1      27.645  41.747  52.386  1.00  0.00     0.231 C 
HETATM   28  C   UNL     1      28.642  40.689  51.965  1.00  0.00     0.034 C 
ENDBRANCH  24  27
ENDBRANCH  19  24
ENDBRANCH  18  19
ENDBRANCH   1  18
TORSDOF 6
ENDMDL
MODEL 4
REMARK VINA RESULT:      -7.7      2.794      5.208
REMARK  6 active torsions:
REMARK  status: ('A' for Active; 'I' for Inactive)
REMARK    1  A    between atoms: C_2  and  N_3 
REMARK    2  A    between atoms: N_3  and  C_5 
REMARK    3  A    between atoms: C_5  and  C_6 
REMARK    4  A    between atoms: C_6  and  N_7 
REMARK       I    between atoms: N_7  and  C_8 
REMARK    5  A    between atoms: C_8  and  C_9 
REMARK    6  A    between atoms: C_10  and  C_11 
ROOT
HETATM    1  N   UNL     1      25.753  44.054  50.194  1.00  0.00    -0.354 N 
HETATM    2  C   UNL     1      27.034  43.799  50.651  1.00  0.00     0.255 C 
HETATM    3  O   UNL     1      27.961  44.544  50.349  1.00  0.00    -0.268 OA
HETATM    4  H   UNL     1      25.009  43.420  50.456  1.00  0.00     0.162 HD
ENDROOT
BRANCH   2   5
HETATM    5  C   UNL     1      27.172  42.634  51.515  1.00  0.00     0.080 A 
HETATM    6  C   UNL     1      27.670  42.556  52.861  1.00  0.00     0.104 A 
HETATM    7  N   UNL     1      27.674  41.284  53.296  1.00  0.00    -0.174 NA
HETATM    8  N   UNL     1      27.193  40.567  52.282  1.00  0.00    -0.288 N 
HETATM    9  H   UNL     1      27.118  39.561  52.402  1.00  0.00     0.188 HD
HETATM   10  C   UNL     1      26.871  41.318  51.193  1.00  0.00     0.128 A 
BRANCH   6  11
HETATM   11  C   UNL     1      28.139  43.613  53.761  1.00  0.00    -0.002 A 
HETATM   12  C   UNL     1      29.415  43.578  54.331  1.00  0.00     0.056 A 
HETATM   13  C   UNL     1      29.831  44.613  55.162  1.00  0.00     0.117 A 
HETATM   14  F   UNL     1      31.054  44.560  55.708  1.00  0.00    -0.206 F 
HETATM   15  C   UNL     1      29.010  45.703  55.429  1.00  0.00     0.042 A 
HETATM   16  C   UNL     1      27.745  45.760  54.853  1.00  0.00     0.004 A 
HETATM   17  C   UNL     1      27.312  44.722  54.023  1.00  0.00     0.014 A 
ENDBRANCH   6  11
ENDBRANCH   2   5
BRANCH   1  18
HETATM   18  C   UNL     1      25.475  45.149  49.290  1.00  0.00     0.162 C 
BRANCH  18  19
HETATM   19  C   UNL     1      24.758  46.401  49.894  1.00  0.00     0.143 C 
HETATM   20  C   UNL     1      25.366  47.770  49.511  1.00  0.00     0.041 C 
HETATM   21  C   UNL     1      26.488  48.053  50.502  1.00  0.00     0.003 C 
HETATM   22  C   UNL     1      26.206  47.181  51.716  1.00  0.00     0.003 C 
HETATM   23  C   UNL     1      24.888  46.465  51.431  1.00  0.00     0.041 C 
BRANCH  19  24
HETATM   24  N   UNL     1      23.239  46.398  49.490  1.00  0.00    -0.065 N 
HETATM   25  H   UNL     1      22.713  46.218  50.357  1.00  0.00     0.280 HD
HETATM   26  C   UNL     1      22.749  47.767  49.019  1.00  0.00     0.270 C 
BRANCH  24  27
HETATM   27  C   UNL     1      22.766  45.358  48.480  1.00  0.00     0.231 C 
HETATM   28  C   UNL     1      21.412  44.771  48.812  1.00  0.00     0.034 C 
ENDBRANCH  24  27
ENDBRANCH  19  24
ENDBRANCH  18  19
ENDBRANCH   1  18
TORSDOF 6
ENDMDL
MODEL 5
REMARK VINA RESULT:      -7.6      2.174      3.510
REMARK  6 active torsions:
REMARK  status: ('A' for Active; 'I' for Inactive)
REMARK    1  A    between atoms: C_2  and  N_3 
REMARK    2  A    between atoms: N_3  and  C_5 
REMARK    3  A    between atoms: C_5  and  C_6 
REMARK    4  A    between atoms: C_6  and  N_7 
REMARK       I    between atoms: N_7  and  C_8 
REMARK    5  A    between atoms: C_8  and  C_9 
REMARK    6  A    between atoms: C_10  and  C_11 
ROOT
HETATM    1  N   UNL     1      28.245  42.387  51.978  1.00  0.00    -0.354 N 
HETATM    2  C   UNL     1      27.752  42.731  53.223  1.00  0.00     0.255 C 
HETATM    3  O   UNL     1      27.574  41.872  54.081  1.00  0.00    -0.268 OA
HETATM    4  H   UNL     1      28.378  43.116  51.289  1.00  0.00     0.162 HD
ENDROOT
BRANCH   2   5
HETATM    5  C   UNL     1      27.503  44.152  53.429  1.00  0.00     0.080 A 
HETATM    6  C   UNL     1      28.128  45.057  54.354  1.00  0.00     0.104 A 
HETATM    7  N   UNL     1      27.586  46.284  54.261  1.00  0.00    -0.174 NA
HETATM    8  N   UNL     1      26.656  46.184  53.313  1.00  0.00    -0.288 N 
HETATM    9  H   UNL     1      26.114  47.012  53.087  1.00  0.00     0.188 HD
HETATM   10  C   UNL     1      26.564  44.936  52.775  1.00  0.00     0.128 A 
BRANCH   6  11
HETATM   11  C   UNL     1      29.208  44.833  55.318  1.00  0.00    -0.002 A 
HETATM   12  C   UNL     1      29.386  45.665  56.427  1.00  0.00     0.056 A 
HETATM   13  C   UNL     1      30.410  45.404  57.332  1.00  0.00     0.117 A 
HETATM   14  F   UNL     1      30.574  46.218  58.385  1.00  0.00    -0.206 F 
HETATM   15  C   UNL     1      31.258  44.315  57.173  1.00  0.00     0.042 A 
HETATM   16  C   UNL     1      31.079  43.466  56.084  1.00  0.00     0.004 A 
HETATM   17  C   UNL     1      30.059  43.723  55.164  1.00  0.00     0.014 A 
ENDBRANCH   6  11
ENDBRANCH   2   5
BRANCH   1  18
HETATM   18  C   UNL     1      28.492  41.007  51.615  1.00  0.00     0.162 C 
BRANCH  18  19
HETATM   19  C   UNL     1      27.610  40.407  50.471  1.00  0.00     0.143 C 
HETATM   20  C   UNL     1      27.715  41.116  49.103  1.00  0.00     0.041 C 
HETATM   21  C   UNL     1      26.727  42.277  49.125  1.00  0.00     0.003 C 
HETATM   22  C   UNL     1      25.717  41.949  50.214  1.00  0.00     0.003 C 
HETATM   23  C   UNL     1      26.100  40.571  50.749  1.00  0.00     0.041 C 
BRANCH  19  24
HETATM   24  N   UNL     1      27.950  38.884  50.273  1.00  0.00    -0.065 N 
HETATM   25  H   UNL     1      27.370  38.371  50.952  1.00  0.00     0.280 HD
HETATM   26  C   UNL     1      27.507  38.353  48.910  1.00  0.00     0.270 C 
BRANCH  24  27
HETATM   27  C   UNL     1      29.386  38.432  50.509  1.00  0.00     0.231 C 
HETATM   28  C   UNL     1      30.141  38.140  49.230  1.00  0.00     0.034 C 
ENDBRANCH  24  27
ENDBRANCH  19  24
ENDBRANCH  18  19
ENDBRANCH   1  18
TORSDOF 6
ENDMDL
MODEL 6
REMARK VINA RESULT:      -7.6     13.494     15.942
REMARK  6 active torsions:
REMARK  status: ('A' for Active; 'I' for Inactive)
REMARK    1  A    between atoms: C_2  and  N_3 
REMARK    2  A    between atoms: N_3  and  C_5 
REMARK    3  A    between atoms: C_5  and  C_6 
REMARK    4  A    between atoms: C_6  and  N_7 
REMARK       I    between atoms: N_7  and  C_8 
REMARK    5  A    between atoms: C_8  and  C_9 
REMARK    6  A    between atoms: C_10  and  C_11 
ROOT
HETATM    1  N   UNL     1      30.854  48.764  41.804  1.00  0.00    -0.354 N 
HETATM    2  C   UNL     1      31.211  47.981  40.721  1.00  0.00     0.255 C 
HETATM    3  O   UNL     1      32.368  47.594  40.588  1.00  0.00    -0.268 OA
HETATM    4  H   UNL     1      29.893  49.071  41.885  1.00  0.00     0.162 HD
ENDROOT
BRANCH   2   5
HETATM    5  C   UNL     1      30.128  47.642  39.807  1.00  0.00     0.080 A 
HETATM    6  C   UNL     1      29.172  48.508  39.173  1.00  0.00     0.104 A 
HETATM    7  N   UNL     1      28.305  47.799  38.430  1.00  0.00    -0.174 NA
HETATM    8  N   UNL     1      28.684  46.530  38.566  1.00  0.00    -0.288 N 
HETATM    9  H   UNL     1      28.148  45.816  38.082  1.00  0.00     0.188 HD
HETATM   10  C   UNL     1      29.771  46.374  39.372  1.00  0.00     0.128 A 
BRANCH   6  11
HETATM   11  C   UNL     1      29.031  49.966  39.225  1.00  0.00    -0.002 A 
HETATM   12  C   UNL     1      28.271  50.593  40.216  1.00  0.00     0.056 A 
HETATM   13  C   UNL     1      28.182  51.981  40.246  1.00  0.00     0.117 A 
HETATM   14  F   UNL     1      27.441  52.568  41.197  1.00  0.00    -0.206 F 
HETATM   15  C   UNL     1      28.851  52.771  39.317  1.00  0.00     0.042 A 
HETATM   16  C   UNL     1      29.627  52.159  38.337  1.00  0.00     0.004 A 
HETATM   17  C   UNL     1      29.718  50.766  38.293  1.00  0.00     0.014 A 
ENDBRANCH   6  11
ENDBRANCH   2   5
BRANCH   1  18
HETATM   18  C   UNL     1      31.834  49.218  42.767  1.00  0.00     0.162 C 
BRANCH  18  19
HETATM   19  C   UNL     1      32.580  50.554  42.441  1.00  0.00     0.143 C 
HETATM   20  C   UNL     1      33.016  51.393  43.663  1.00  0.00     0.041 C 
HETATM   21  C   UNL     1      31.828  52.264  44.054  1.00  0.00     0.003 C 
HETATM   22  C   UNL     1      30.940  52.341  42.820  1.00  0.00     0.003 C 
HETATM   23  C   UNL     1      31.670  51.573  41.721  1.00  0.00     0.041 C 
BRANCH  19  24
HETATM   24  N   UNL     1      33.848  50.260  41.558  1.00  0.00    -0.065 N 
HETATM   25  H   UNL     1      33.820  49.254  41.344  1.00  0.00     0.280 HD
HETATM   26  C   UNL     1      33.789  50.946  40.193  1.00  0.00     0.270 C 
BRANCH  24  27
HETATM   27  C   UNL     1      35.221  50.532  42.160  1.00  0.00     0.231 C 
HETATM   28  C   UNL     1      35.983  51.628  41.447  1.00  0.00     0.034 C 
ENDBRANCH  24  27
ENDBRANCH  19  24
ENDBRANCH  18  19
ENDBRANCH   1  18
TORSDOF 6
ENDMDL
MODEL 7
REMARK VINA RESULT:      -7.5      1.199      1.920
REMARK  6 active torsions:
REMARK  status: ('A' for Active; 'I' for Inactive)
REMARK    1  A    between atoms: C_2  and  N_3 
REMARK    2  A    between atoms: N_3  and  C_5 
REMARK    3  A    between atoms: C_5  and  C_6 
REMARK    4  A    between atoms: C_6  and  N_7 
REMARK       I    between atoms: N_7  and  C_8 
REMARK    5  A    between atoms: C_8  and  C_9 
REMARK    6  A    between atoms: C_10  and  C_11 
ROOT
HETATM    1  N   UNL     1      26.431  44.209  52.811  1.00  0.00    -0.354 N 
HETATM    2  C   UNL     1      26.467  44.471  54.169  1.00  0.00     0.255 C 
HETATM    3  O   UNL     1      26.315  43.563  54.980  1.00  0.00    -0.268 OA
HETATM    4  H   UNL     1      26.556  44.978  52.165  1.00  0.00     0.162 HD
ENDROOT
BRANCH   2   5
HETATM    5  C   UNL     1      26.724  45.857  54.535  1.00  0.00     0.080 A 
HETATM    6  C   UNL     1      27.781  46.401  55.344  1.00  0.00     0.104 A 
HETATM    7  N   UNL     1      27.642  47.731  55.479  1.00  0.00    -0.174 NA
HETATM    8  N   UNL     1      26.551  48.041  54.781  1.00  0.00    -0.288 N 
HETATM    9  H   UNL     1      26.260  49.014  54.757  1.00  0.00     0.188 HD
HETATM   10  C   UNL     1      25.963  46.964  54.191  1.00  0.00     0.128 A 
BRANCH   6  11
HETATM   11  C   UNL     1      28.914  45.738  55.995  1.00  0.00    -0.002 A 
HETATM   12  C   UNL     1      29.219  45.961  57.341  1.00  0.00     0.056 A 
HETATM   13  C   UNL     1      30.289  45.294  57.928  1.00  0.00     0.117 A 
HETATM   14  F   UNL     1      30.576  45.527  59.217  1.00  0.00    -0.206 F 
HETATM   15  C   UNL     1      31.060  44.387  57.211  1.00  0.00     0.042 A 
HETATM   16  C   UNL     1      30.754  44.140  55.875  1.00  0.00     0.004 A 
HETATM   17  C   UNL     1      29.687  44.810  55.272  1.00  0.00     0.014 A 
ENDBRANCH   6  11
ENDBRANCH   2   5
BRANCH   1  18
HETATM   18  C   UNL     1      26.137  42.887  52.301  1.00  0.00     0.162 C 
BRANCH  18  19
HETATM   19  C   UNL     1      27.315  42.111  51.625  1.00  0.00     0.143 C 
HETATM   20  C   UNL     1      28.014  41.053  52.508  1.00  0.00     0.041 C 
HETATM   21  C   UNL     1      29.083  41.780  53.314  1.00  0.00     0.003 C 
HETATM   22  C   UNL     1      29.369  43.072  52.564  1.00  0.00     0.003 C 
HETATM   23  C   UNL     1      28.512  43.031  51.301  1.00  0.00     0.041 C 
BRANCH  19  24
HETATM   24  N   UNL     1      26.813  41.412  50.309  1.00  0.00    -0.065 N 
HETATM   25  H   UNL     1      25.830  41.158  50.476  1.00  0.00     0.280 HD
HETATM   26  C   UNL     1      26.766  42.365  49.114  1.00  0.00     0.270 C 
BRANCH  24  27
HETATM   27  C   UNL     1      27.514  40.135  49.861  1.00  0.00     0.231 C 
HETATM   28  C   UNL     1      28.479  40.349  48.716  1.00  0.00     0.034 C 
ENDBRANCH  24  27
ENDBRANCH  19  24
ENDBRANCH  18  19
ENDBRANCH   1  18
TORSDOF 6
ENDMDL
MODEL 8
REMARK VINA RESULT:      -7.5     13.646     15.738
REMARK  6 active torsions:
REMARK  status: ('A' for Active; 'I' for Inactive)
REMARK    1  A    between atoms: C_2  and  N_3 
REMARK    2  A    between atoms: N_3  and  C_5 
REMARK    3  A    between atoms: C_5  and  C_6 
REMARK    4  A    between atoms: C_6  and  N_7 
REMARK       I    between atoms: N_7  and  C_8 
REMARK    5  A    between atoms: C_8  and  C_9 
REMARK    6  A    between atoms: C_10  and  C_11 
ROOT
HETATM    1  N   UNL     1      30.850  48.989  41.805  1.00  0.00    -0.354 N 
HETATM    2  C   UNL     1      30.287  48.113  40.894  1.00  0.00     0.255 C 
HETATM    3  O   UNL     1      30.997  47.365  40.230  1.00  0.00    -0.268 OA
HETATM    4  H   UNL     1      30.240  49.596  42.335  1.00  0.00     0.162 HD
ENDROOT
BRANCH   2   5
HETATM    5  C   UNL     1      28.832  48.135  40.820  1.00  0.00     0.080 A 
HETATM    6  C   UNL     1      27.953  49.243  40.564  1.00  0.00     0.104 A 
HETATM    7  N   UNL     1      26.667  48.855  40.620  1.00  0.00    -0.174 NA
HETATM    8  N   UNL     1      26.706  47.552  40.890  1.00  0.00    -0.288 N 
HETATM    9  H   UNL     1      25.825  47.056  40.983  1.00  0.00     0.188 HD
HETATM   10  C   UNL     1      27.972  47.064  41.016  1.00  0.00     0.128 A 
BRANCH   6  11
HETATM   11  C   UNL     1      28.256  50.645  40.267  1.00  0.00    -0.002 A 
HETATM   12  C   UNL     1      28.549  51.073  38.969  1.00  0.00     0.056 A 
HETATM   13  C   UNL     1      28.808  52.418  38.724  1.00  0.00     0.117 A 
HETATM   14  F   UNL     1      29.097  52.811  37.476  1.00  0.00    -0.206 F 
HETATM   15  C   UNL     1      28.766  53.361  39.745  1.00  0.00     0.042 A 
HETATM   16  C   UNL     1      28.457  52.952  41.038  1.00  0.00     0.004 A 
HETATM   17  C   UNL     1      28.202  51.602  41.297  1.00  0.00     0.014 A 
ENDBRANCH   6  11
ENDBRANCH   2   5
BRANCH   1  18
HETATM   18  C   UNL     1      32.285  49.111  41.951  1.00  0.00     0.162 C 
BRANCH  18  19
HETATM   19  C   UNL     1      32.908  50.517  41.667  1.00  0.00     0.143 C 
HETATM   20  C   UNL     1      34.032  50.958  42.630  1.00  0.00     0.041 C 
HETATM   21  C   UNL     1      33.359  51.607  43.834  1.00  0.00     0.003 C 
HETATM   22  C   UNL     1      31.970  52.017  43.368  1.00  0.00     0.003 C 
HETATM   23  C   UNL     1      31.895  51.661  41.886  1.00  0.00     0.041 C 
BRANCH  19  24
HETATM   24  N   UNL     1      33.460  50.572  40.195  1.00  0.00    -0.065 N 
HETATM   25  H   UNL     1      33.705  49.604  39.945  1.00  0.00     0.280 HD
HETATM   26  C   UNL     1      32.391  50.974  39.178  1.00  0.00     0.270 C 
BRANCH  24  27
HETATM   27  C   UNL     1      34.703  51.412  39.925  1.00  0.00     0.231 C 
HETATM   28  C   UNL     1      34.390  52.795  39.397  1.00  0.00     0.034 C 
ENDBRANCH  24  27
ENDBRANCH  19  24
ENDBRANCH  18  19
ENDBRANCH   1  18
TORSDOF 6
ENDMDL
MODEL 9
REMARK VINA RESULT:      -7.4     13.444     14.949
REMARK  6 active torsions:
REMARK  status: ('A' for Active; 'I' for Inactive)
REMARK    1  A    between atoms: C_2  and  N_3 
REMARK    2  A    between atoms: N_3  and  C_5 
REMARK    3  A    between atoms: C_5  and  C_6 
REMARK    4  A    between atoms: C_6  and  N_7 
REMARK       I    between atoms: N_7  and  C_8 
REMARK    5  A    between atoms: C_8  and  C_9 
REMARK    6  A    between atoms: C_10  and  C_11 
ROOT
HETATM    1  N   UNL     1      28.752  50.132  39.525  1.00  0.00    -0.354 N 
HETATM    2  C   UNL     1      29.739  50.929  38.974  1.00  0.00     0.255 C 
HETATM    3  O   UNL     1      30.502  50.478  38.126  1.00  0.00    -0.268 OA
HETATM    4  H   UNL     1      28.141  50.530  40.225  1.00  0.00     0.162 HD
ENDROOT
BRANCH   2   5
HETATM    5  C   UNL     1      29.770  52.307  39.448  1.00  0.00     0.080 A 
HETATM    6  C   UNL     1      30.589  52.896  40.471  1.00  0.00     0.104 A 
HETATM    7  N   UNL     1      30.284  54.195  40.638  1.00  0.00    -0.174 NA
HETATM    8  N   UNL     1      29.316  54.442  39.758  1.00  0.00    -0.288 N 
HETATM    9  H   UNL     1      28.929  55.381  39.724  1.00  0.00     0.188 HD
HETATM   10  C   UNL     1      28.970  53.354  39.015  1.00  0.00     0.128 A 
BRANCH   6  11
HETATM   11  C   UNL     1      31.646  52.306  41.297  1.00  0.00    -0.002 A 
HETATM   12  C   UNL     1      31.498  52.157  42.679  1.00  0.00     0.056 A 
HETATM   13  C   UNL     1      32.514  51.570  43.426  1.00  0.00     0.117 A 
HETATM   14  F   UNL     1      32.362  51.443  44.751  1.00  0.00    -0.206 F 
HETATM   15  C   UNL     1      33.679  51.105  42.825  1.00  0.00     0.042 A 
HETATM   16  C   UNL     1      33.831  51.230  41.447  1.00  0.00     0.004 A 
HETATM   17  C   UNL     1      32.819  51.825  40.688  1.00  0.00     0.014 A 
ENDBRANCH   6  11
ENDBRANCH   2   5
BRANCH   1  18
HETATM   18  C   UNL     1      28.634  48.729  39.185  1.00  0.00     0.162 C 
BRANCH  18  19
HETATM   19  C   UNL     1      29.058  47.697  40.281  1.00  0.00     0.143 C 
HETATM   20  C   UNL     1      29.561  48.302  41.611  1.00  0.00     0.041 C 
HETATM   21  C   UNL     1      31.049  48.586  41.439  1.00  0.00     0.003 C 
HETATM   22  C   UNL     1      31.513  47.706  40.288  1.00  0.00     0.003 C 
HETATM   23  C   UNL     1      30.301  46.880  39.866  1.00  0.00     0.041 C 
BRANCH  19  24
HETATM   24  N   UNL     1      27.864  46.723  40.594  1.00  0.00    -0.065 N 
HETATM   25  H   UNL     1      28.018  46.379  41.551  1.00  0.00     0.280 HD
HETATM   26  C   UNL     1      26.516  47.442  40.656  1.00  0.00     0.270 C 
BRANCH  24  27
HETATM   27  C   UNL     1      27.696  45.488  39.717  1.00  0.00     0.231 C 
HETATM   28  C   UNL     1      27.668  44.194  40.501  1.00  0.00     0.034 C 
ENDBRANCH  24  27
ENDBRANCH  19  24
ENDBRANCH  18  19
ENDBRANCH   1  18
TORSDOF 6
ENDMDL
MODEL 10
REMARK VINA RESULT:      -7.4      7.295      9.688
REMARK  6 active torsions:
REMARK  status: ('A' for Active; 'I' for Inactive)
REMARK    1  A    between atoms: C_2  and  N_3 
REMARK    2  A    between atoms: N_3  and  C_5 
REMARK    3  A    between atoms: C_5  and  C_6 
REMARK    4  A    between atoms: C_6  and  N_7 
REMARK       I    between atoms: N_7  and  C_8 
REMARK    5  A    between atoms: C_8  and  C_9 
REMARK    6  A    between atoms: C_10  and  C_11 
ROOT
HETATM    1  N   UNL     1      21.593  49.635  49.711  1.00  0.00    -0.354 N 
HETATM    2  C   UNL     1      22.297  48.619  49.090  1.00  0.00     0.255 C 
HETATM    3  O   UNL     1      21.716  47.614  48.693  1.00  0.00    -0.268 OA
HETATM    4  H   UNL     1      22.099  50.450  50.032  1.00  0.00     0.162 HD
ENDROOT
BRANCH   2   5
HETATM    5  C   UNL     1      23.725  48.853  48.927  1.00  0.00     0.080 A 
HETATM    6  C   UNL     1      24.832  48.175  49.545  1.00  0.00     0.104 A 
HETATM    7  N   UNL     1      26.000  48.720  49.162  1.00  0.00    -0.174 NA
HETATM    8  N   UNL     1      25.670  49.702  48.325  1.00  0.00    -0.288 N 
HETATM    9  H   UNL     1      26.418  50.255  47.918  1.00  0.00     0.188 HD
HETATM   10  C   UNL     1      24.326  49.826  48.141  1.00  0.00     0.128 A 
BRANCH   6  11
HETATM   11  C   UNL     1      24.851  47.042  50.474  1.00  0.00    -0.002 A 
HETATM   12  C   UNL     1      24.299  45.805  50.132  1.00  0.00     0.056 A 
HETATM   13  C   UNL     1      24.359  44.746  51.033  1.00  0.00     0.117 A 
HETATM   14  F   UNL     1      23.816  43.568  50.694  1.00  0.00    -0.206 F 
HETATM   15  C   UNL     1      24.976  44.883  52.272  1.00  0.00     0.042 A 
HETATM   16  C   UNL     1      25.547  46.104  52.617  1.00  0.00     0.004 A 
HETATM   17  C   UNL     1      25.487  47.176  51.723  1.00  0.00     0.014 A 
ENDBRANCH   6  11
ENDBRANCH   2   5
BRANCH   1  18
HETATM   18  C   UNL     1      20.176  49.519  49.984  1.00  0.00     0.162 C 
BRANCH  18  19
HETATM   19  C   UNL     1      19.198  49.939  48.837  1.00  0.00     0.143 C 
HETATM   20  C   UNL     1      19.716  51.041  47.886  1.00  0.00     0.041 C 
HETATM   21  C   UNL     1      19.381  52.382  48.531  1.00  0.00     0.003 C 
HETATM   22  C   UNL     1      18.261  52.103  49.522  1.00  0.00     0.003 C 
HETATM   23  C   UNL     1      17.922  50.621  49.377  1.00  0.00     0.041 C 
BRANCH  19  24
HETATM   24  N   UNL     1      18.805  48.682  47.979  1.00  0.00    -0.065 N 
HETATM   25  H   UNL     1      19.689  48.268  47.656  1.00  0.00     0.280 HD
HETATM   26  C   UNL     1      18.146  47.581  48.812  1.00  0.00     0.270 C 
BRANCH  24  27
HETATM   27  C   UNL     1      17.953  48.900  46.734  1.00  0.00     0.231 C 
HETATM   28  C   UNL     1      18.219  47.889  45.640  1.00  0.00     0.034 C 
ENDBRANCH  24  27
ENDBRANCH  19  24
ENDBRANCH  18  19
ENDBRANCH   1  18
TORSDOF 6
ENDMDL
