MODEL 1
REMARK VINA RESULT:      -9.8      0.000      0.000
REMARK  4 active torsions:
REMARK  status: ('A' for Active; 'I' for Inactive)
REMARK    1  A    between atoms: O_2  and  C_3 
REMARK    2  A    between atoms: C_5  and  C_6 
REMARK    3  A    between atoms: C_10  and  C_11 
REMARK       I    between atoms: C_11  and  N_12 
REMARK    4  A    between atoms: N_12  and  N_13 
ROOT
HETATM    1  C   UNL     1      26.528  45.394  50.764  1.00  0.00     0.289 C 
HETATM    2  N   UNL     1      26.495  45.238  52.139  1.00  0.00    -0.241 N 
HETATM    3  O   UNL     1      27.417  44.951  50.040  1.00  0.00    -0.264 OA
HETATM    4  H   UNL     1      25.741  45.646  52.691  1.00  0.00     0.192 HD
ENDROOT
BRANCH   1   5
HETATM    5  C   UNL     1      25.423  46.137  50.213  1.00  0.00     0.121 A 
HETATM    6  N   UNL     1      24.387  45.501  49.589  1.00  0.00    -0.272 N 
HETATM    7  N   UNL     1      23.437  46.322  49.121  1.00  0.00    -0.174 NA
HETATM    8  H   UNL     1      24.286  44.500  49.454  1.00  0.00     0.189 HD
HETATM    9  C   UNL     1      23.849  47.553  49.465  1.00  0.00     0.089 A 
HETATM   10  C   UNL     1      25.099  47.479  50.147  1.00  0.00     0.071 A 
BRANCH   9  11
HETATM   11  C   UNL     1      23.057  48.746  49.135  1.00  0.00    -0.003 A 
HETATM   12  C   UNL     1      21.652  48.689  49.159  1.00  0.00     0.050 A 
HETATM   13  C   UNL     1      20.881  49.812  48.850  1.00  0.00     0.069 A 
HETATM   14  C   UNL     1      21.520  51.007  48.513  1.00  0.00     0.037 A 
HETATM   15  C   UNL     1      22.911  51.083  48.489  1.00  0.00     0.004 A 
HETATM   16  C   UNL     1      23.677  49.957  48.799  1.00  0.00     0.014 A 
BRANCH  13  17
HETATM   17  O   UNL     1      19.513  49.872  48.840  1.00  0.00    -0.356 OA
HETATM   18  C   UNL     1      18.867  49.943  50.105  1.00  0.00     0.210 C 
ENDBRANCH  13  17
ENDBRANCH   9  11
ENDBRANCH   1   5
BRANCH   2  19
HETATM   19  N   UNL     1      27.485  44.545  52.783  1.00  0.00    -0.165 NA
HETATM   20  C   UNL     1      27.994  45.106  53.833  1.00  0.00     0.157 A 
HETATM   21  C   UNL     1      27.639  46.458  54.457  1.00  0.00     0.277 A 
HETATM   22  C   UNL     1      29.052  44.547  54.666  1.00  0.00     0.027 A 
HETATM   23  O   UNL     1      26.788  47.211  54.033  1.00  0.00    -0.266 OA
HETATM   24  N   UNL     1      28.473  46.593  55.546  1.00  0.00    -0.321 N 
HETATM   25  C   UNL     1      29.298  45.478  55.673  1.00  0.00     0.048 A 
HETATM   26  H   UNL     1      28.466  47.397  56.157  1.00  0.00     0.169 HD
HETATM   27  C   UNL     1      30.256  45.249  56.638  1.00  0.00     0.030 A 
HETATM   28  C   UNL     1      30.967  44.045  56.565  1.00  0.00     0.002 A 
HETATM   29  C   UNL     1      30.710  43.106  55.542  1.00  0.00     0.001 A 
HETATM   30  C   UNL     1      29.737  43.354  54.571  1.00  0.00     0.016 A 
ENDBRANCH   2  19
TORSDOF 4
ENDMDL
MODEL 2
REMARK VINA RESULT:      -9.5      2.364      9.519
REMARK  4 active torsions:
REMARK  status: ('A' for Active; 'I' for Inactive)
REMARK    1  A    between atoms: O_2  and  C_3 
REMARK    2  A    between atoms: C_5  and  C_6 
REMARK    3  A    between atoms: C_10  and  C_11 
REMARK       I    between atoms: C_11  and  N_12 
REMARK    4  A    between atoms: N_12  and  N_13 
ROOT
HETATM    1  C   UNL     1      24.665  44.630  51.426  1.00  0.00     0.289 C 
HETATM    2  N   UNL     1      24.772  45.900  50.887  1.00  0.00    -0.241 N 
HETATM    3  O   UNL     1      23.672  43.914  51.315  1.00  0.00    -0.264 OA
HETATM    4  H   UNL     1      25.615  46.456  51.029  1.00  0.00     0.192 HD
ENDROOT
BRANCH   1   5
HETATM    5  C   UNL     1      25.826  44.182  52.153  1.00  0.00     0.121 A 
HETATM    6  N   UNL     1      26.272  42.895  52.046  1.00  0.00    -0.272 N 
HETATM    7  N   UNL     1      27.355  42.623  52.786  1.00  0.00    -0.174 NA
HETATM    8  H   UNL     1      25.863  42.159  51.477  1.00  0.00     0.189 HD
HETATM    9  C   UNL     1      27.653  43.781  53.396  1.00  0.00     0.089 A 
HETATM   10  C   UNL     1      26.708  44.785  53.029  1.00  0.00     0.071 A 
BRANCH   9  11
HETATM   11  C   UNL     1      28.805  43.897  54.300  1.00  0.00    -0.003 A 
HETATM   12  C   UNL     1      28.899  44.986  55.186  1.00  0.00     0.050 A 
HETATM   13  C   UNL     1      29.986  45.114  56.055  1.00  0.00     0.069 A 
HETATM   14  C   UNL     1      30.990  44.145  56.040  1.00  0.00     0.037 A 
HETATM   15  C   UNL     1      30.911  43.057  55.172  1.00  0.00     0.004 A 
HETATM   16  C   UNL     1      29.822  42.933  54.306  1.00  0.00     0.014 A 
BRANCH  13  17
HETATM   17  O   UNL     1      30.182  46.127  56.955  1.00  0.00    -0.356 OA
HETATM   18  C   UNL     1      30.543  45.747  58.277  1.00  0.00     0.210 C 
ENDBRANCH  13  17
ENDBRANCH   9  11
ENDBRANCH   1   5
BRANCH   2  19
HETATM   19  N   UNL     1      23.740  46.439  50.167  1.00  0.00    -0.165 NA
HETATM   20  C   UNL     1      23.961  47.583  49.605  1.00  0.00     0.157 A 
HETATM   21  C   UNL     1      25.237  48.430  49.640  1.00  0.00     0.277 A 
HETATM   22  C   UNL     1      23.007  48.331  48.796  1.00  0.00     0.027 A 
HETATM   23  O   UNL     1      26.256  48.118  50.220  1.00  0.00    -0.266 OA
HETATM   24  N   UNL     1      24.954  49.556  48.897  1.00  0.00    -0.321 N 
HETATM   25  C   UNL     1      23.653  49.502  48.400  1.00  0.00     0.048 A 
HETATM   26  H   UNL     1      25.615  50.303  48.743  1.00  0.00     0.169 HD
HETATM   27  C   UNL     1      23.016  50.438  47.615  1.00  0.00     0.030 A 
HETATM   28  C   UNL     1      21.697  50.164  47.231  1.00  0.00     0.002 A 
HETATM   29  C   UNL     1      21.050  48.977  47.635  1.00  0.00     0.001 A 
HETATM   30  C   UNL     1      21.709  48.038  48.432  1.00  0.00     0.016 A 
ENDBRANCH   2  19
TORSDOF 4
ENDMDL
MODEL 3
REMARK VINA RESULT:      -9.5      1.680      2.522
REMARK  4 active torsions:
REMARK  status: ('A' for Active; 'I' for Inactive)
REMARK    1  A    between atoms: O_2  and  C_3 
REMARK    2  A    between atoms: C_5  and  C_6 
REMARK    3  A    between atoms: C_10  and  C_11 
REMARK       I    between atoms: C_11  and  N_12 
REMARK    4  A    between atoms: N_12  and  N_13 
ROOT
HETATM    1  C   UNL     1      27.256  43.556  51.989  1.00  0.00     0.289 C 
HETATM    2  N   UNL     1      28.076  44.439  52.672  1.00  0.00    -0.241 N 
HETATM    3  O   UNL     1      27.293  42.335  52.124  1.00  0.00    -0.264 OA
HETATM    4  H   UNL     1      28.013  45.442  52.504  1.00  0.00     0.192 HD
ENDROOT
BRANCH   1   5
HETATM    5  C   UNL     1      26.328  44.175  51.076  1.00  0.00     0.121 A 
HETATM    6  N   UNL     1      26.059  43.617  49.859  1.00  0.00    -0.272 N 
HETATM    7  N   UNL     1      25.184  44.308  49.116  1.00  0.00    -0.174 NA
HETATM    8  H   UNL     1      26.454  42.758  49.487  1.00  0.00     0.189 HD
HETATM    9  C   UNL     1      24.844  45.360  49.879  1.00  0.00     0.089 A 
HETATM   10  C   UNL     1      25.550  45.316  51.117  1.00  0.00     0.071 A 
BRANCH   9  11
HETATM   11  C   UNL     1      23.878  46.364  49.413  1.00  0.00    -0.003 A 
HETATM   12  C   UNL     1      24.021  47.711  49.793  1.00  0.00     0.050 A 
HETATM   13  C   UNL     1      23.115  48.681  49.359  1.00  0.00     0.069 A 
HETATM   14  C   UNL     1      22.051  48.303  48.538  1.00  0.00     0.037 A 
HETATM   15  C   UNL     1      21.895  46.974  48.149  1.00  0.00     0.004 A 
HETATM   16  C   UNL     1      22.805  46.007  48.584  1.00  0.00     0.014 A 
BRANCH  13  17
HETATM   17  O   UNL     1      23.155  50.015  49.664  1.00  0.00    -0.356 OA
HETATM   18  C   UNL     1      23.154  50.922  48.569  1.00  0.00     0.210 C 
ENDBRANCH  13  17
ENDBRANCH   9  11
ENDBRANCH   1   5
BRANCH   2  19
HETATM   19  N   UNL     1      28.996  43.977  53.573  1.00  0.00    -0.165 NA
HETATM   20  C   UNL     1      29.144  44.670  54.656  1.00  0.00     0.157 A 
HETATM   21  C   UNL     1      28.423  45.957  55.069  1.00  0.00     0.277 A 
HETATM   22  C   UNL     1      30.063  44.361  55.744  1.00  0.00     0.027 A 
HETATM   23  O   UNL     1      27.573  46.514  54.406  1.00  0.00    -0.266 OA
HETATM   24  N   UNL     1      28.946  46.296  56.297  1.00  0.00    -0.321 N 
HETATM   25  C   UNL     1      29.903  45.366  56.697  1.00  0.00     0.048 A 
HETATM   26  H   UNL     1      28.658  47.110  56.821  1.00  0.00     0.169 HD
HETATM   27  C   UNL     1      30.638  45.367  57.864  1.00  0.00     0.030 A 
HETATM   28  C   UNL     1      31.547  44.318  58.051  1.00  0.00     0.002 A 
HETATM   29  C   UNL     1      31.702  43.304  57.082  1.00  0.00     0.001 A 
HETATM   30  C   UNL     1      30.951  43.317  55.905  1.00  0.00     0.016 A 
ENDBRANCH   2  19
TORSDOF 4
ENDMDL
MODEL 4
REMARK VINA RESULT:      -8.9      2.059      2.752
REMARK  4 active torsions:
REMARK  status: ('A' for Active; 'I' for Inactive)
REMARK    1  A    between atoms: O_2  and  C_3 
REMARK    2  A    between atoms: C_5  and  C_6 
REMARK    3  A    between atoms: C_10  and  C_11 
REMARK       I    between atoms: C_11  and  N_12 
REMARK    4  A    between atoms: N_12  and  N_13 
ROOT
HETATM    1  C   UNL     1      25.871  47.544  49.506  1.00  0.00     0.289 C 
HETATM    2  N   UNL     1      25.413  46.521  50.319  1.00  0.00    -0.241 N 
HETATM    3  O   UNL     1      27.050  47.704  49.197  1.00  0.00    -0.264 OA
HETATM    4  H   UNL     1      24.425  46.450  50.558  1.00  0.00     0.192 HD
ENDROOT
BRANCH   1   5
HETATM    5  C   UNL     1      24.850  48.443  49.031  1.00  0.00     0.121 A 
HETATM    6  N   UNL     1      25.170  49.543  48.287  1.00  0.00    -0.272 N 
HETATM    7  N   UNL     1      24.117  50.288  47.924  1.00  0.00    -0.174 NA
HETATM    8  H   UNL     1      26.101  49.830  48.002  1.00  0.00     0.189 HD
HETATM    9  C   UNL     1      23.052  49.647  48.432  1.00  0.00     0.089 A 
HETATM   10  C   UNL     1      23.474  48.485  49.143  1.00  0.00     0.071 A 
BRANCH   9  11
HETATM   11  C   UNL     1      21.688  50.154  48.236  1.00  0.00    -0.003 A 
HETATM   12  C   UNL     1      20.745  49.386  47.528  1.00  0.00     0.050 A 
HETATM   13  C   UNL     1      19.441  49.848  47.332  1.00  0.00     0.069 A 
HETATM   14  C   UNL     1      19.074  51.092  47.848  1.00  0.00     0.037 A 
HETATM   15  C   UNL     1      19.993  51.864  48.555  1.00  0.00     0.004 A 
HETATM   16  C   UNL     1      21.294  51.397  48.750  1.00  0.00     0.014 A 
BRANCH  13  17
HETATM   17  O   UNL     1      18.446  49.190  46.661  1.00  0.00    -0.356 OA
HETATM   18  C   UNL     1      18.016  49.762  45.433  1.00  0.00     0.210 C 
ENDBRANCH  13  17
ENDBRANCH   9  11
ENDBRANCH   1   5
BRANCH   2  19
HETATM   19  N   UNL     1      26.283  45.597  50.830  1.00  0.00    -0.165 NA
HETATM   20  C   UNL     1      26.601  45.728  52.078  1.00  0.00     0.157 A 
HETATM   21  C   UNL     1      26.133  46.794  53.072  1.00  0.00     0.277 A 
HETATM   22  C   UNL     1      27.505  44.859  52.820  1.00  0.00     0.027 A 
HETATM   23  O   UNL     1      25.360  47.691  52.808  1.00  0.00    -0.266 OA
HETATM   24  N   UNL     1      26.766  46.496  54.259  1.00  0.00    -0.321 N 
HETATM   25  C   UNL     1      27.567  45.365  54.118  1.00  0.00     0.048 A 
HETATM   26  H   UNL     1      26.649  47.035  55.105  1.00  0.00     0.169 HD
HETATM   27  C   UNL     1      28.347  44.764  55.082  1.00  0.00     0.030 A 
HETATM   28  C   UNL     1      29.071  43.625  54.705  1.00  0.00     0.002 A 
HETATM   29  C   UNL     1      29.001  43.118  53.390  1.00  0.00     0.001 A 
HETATM   30  C   UNL     1      28.207  43.739  52.424  1.00  0.00     0.016 A 
ENDBRANCH   2  19
TORSDOF 4
ENDMDL
MODEL 5
REMARK VINA RESULT:      -8.8      2.542      9.962
REMARK  4 active torsions:
REMARK  status: ('A' for Active; 'I' for Inactive)
REMARK    1  A    between atoms: O_2  and  C_3 
REMARK    2  A    between atoms: C_5  and  C_6 
REMARK    3  A    between atoms: C_10  and  C_11 
REMARK       I    between atoms: C_11  and  N_12 
REMARK    4  A    between atoms: N_12  and  N_13 
ROOT
HETATM    1  C   UNL     1      25.292  47.811  49.990  1.00  0.00     0.289 C 
HETATM    2  N   UNL     1      23.926  47.756  50.212  1.00  0.00    -0.241 N 
HETATM    3  O   UNL     1      25.880  48.796  49.548  1.00  0.00    -0.264 OA
HETATM    4  H   UNL     1      23.491  46.904  50.562  1.00  0.00     0.192 HD
ENDROOT
BRANCH   1   5
HETATM    5  C   UNL     1      26.006  46.602  50.315  1.00  0.00     0.121 A 
HETATM    6  N   UNL     1      26.665  45.892  49.351  1.00  0.00    -0.272 N 
HETATM    7  N   UNL     1      27.276  44.788  49.800  1.00  0.00    -0.174 NA
HETATM    8  H   UNL     1      26.723  46.123  48.364  1.00  0.00     0.189 HD
HETATM    9  C   UNL     1      27.029  44.773  51.120  1.00  0.00     0.089 A 
HETATM   10  C   UNL     1      26.226  45.895  51.481  1.00  0.00     0.071 A 
BRANCH   9  11
HETATM   11  C   UNL     1      27.550  43.706  51.985  1.00  0.00    -0.003 A 
HETATM   12  C   UNL     1      28.195  44.030  53.194  1.00  0.00     0.050 A 
HETATM   13  C   UNL     1      28.695  43.030  54.031  1.00  0.00     0.069 A 
HETATM   14  C   UNL     1      28.553  41.693  53.659  1.00  0.00     0.037 A 
HETATM   15  C   UNL     1      27.914  41.354  52.468  1.00  0.00     0.004 A 
HETATM   16  C   UNL     1      27.413  42.356  51.634  1.00  0.00     0.014 A 
BRANCH  13  17
HETATM   17  O   UNL     1      29.338  43.227  55.224  1.00  0.00    -0.356 OA
HETATM   18  C   UNL     1      30.759  43.250  55.188  1.00  0.00     0.210 C 
ENDBRANCH  13  17
ENDBRANCH   9  11
ENDBRANCH   1   5
BRANCH   2  19
HETATM   19  N   UNL     1      23.136  48.842  49.949  1.00  0.00    -0.165 NA
HETATM   20  C   UNL     1      22.222  48.688  49.046  1.00  0.00     0.157 A 
HETATM   21  C   UNL     1      21.903  47.440  48.217  1.00  0.00     0.277 A 
HETATM   22  C   UNL     1      21.274  49.707  48.613  1.00  0.00     0.027 A 
HETATM   23  O   UNL     1      22.490  46.382  48.311  1.00  0.00    -0.266 OA
HETATM   24  N   UNL     1      20.856  47.798  47.397  1.00  0.00    -0.321 N 
HETATM   25  C   UNL     1      20.483  49.121  47.626  1.00  0.00     0.048 A 
HETATM   26  H   UNL     1      20.429  47.170  46.731  1.00  0.00     0.169 HD
HETATM   27  C   UNL     1      19.477  49.829  47.003  1.00  0.00     0.030 A 
HETATM   28  C   UNL     1      19.284  51.157  47.404  1.00  0.00     0.002 A 
HETATM   29  C   UNL     1      20.088  51.742  48.405  1.00  0.00     0.001 A 
HETATM   30  C   UNL     1      21.103  51.012  49.026  1.00  0.00     0.016 A 
ENDBRANCH   2  19
TORSDOF 4
ENDMDL
MODEL 6
REMARK VINA RESULT:      -8.6      2.264      3.471
REMARK  4 active torsions:
REMARK  status: ('A' for Active; 'I' for Inactive)
REMARK    1  A    between atoms: O_2  and  C_3 
REMARK    2  A    between atoms: C_5  and  C_6 
REMARK    3  A    between atoms: C_10  and  C_11 
REMARK       I    between atoms: C_11  and  N_12 
REMARK    4  A    between atoms: N_12  and  N_13 
ROOT
HETATM    1  C   UNL     1      24.880  47.833  50.277  1.00  0.00     0.289 C 
HETATM    2  N   UNL     1      24.679  47.169  51.475  1.00  0.00    -0.241 N 
HETATM    3  O   UNL     1      25.986  48.092  49.809  1.00  0.00    -0.264 OA
HETATM    4  H   UNL     1      23.736  46.999  51.824  1.00  0.00     0.192 HD
ENDROOT
BRANCH   1   5
HETATM    5  C   UNL     1      23.673  48.220  49.591  1.00  0.00     0.121 A 
HETATM    6  N   UNL     1      23.003  47.338  48.792  1.00  0.00    -0.272 N 
HETATM    7  N   UNL     1      21.904  47.841  48.214  1.00  0.00    -0.174 NA
HETATM    8  H   UNL     1      23.261  46.373  48.607  1.00  0.00     0.189 HD
HETATM    9  C   UNL     1      21.831  49.105  48.661  1.00  0.00     0.089 A 
HETATM   10  C   UNL     1      22.931  49.384  49.525  1.00  0.00     0.071 A 
BRANCH   9  11
HETATM   11  C   UNL     1      20.737  49.999  48.258  1.00  0.00    -0.003 A 
HETATM   12  C   UNL     1      19.814  49.587  47.279  1.00  0.00     0.050 A 
HETATM   13  C   UNL     1      18.766  50.422  46.883  1.00  0.00     0.069 A 
HETATM   14  C   UNL     1      18.638  51.682  47.469  1.00  0.00     0.037 A 
HETATM   15  C   UNL     1      19.541  52.105  48.442  1.00  0.00     0.004 A 
HETATM   16  C   UNL     1      20.586  51.267  48.836  1.00  0.00     0.014 A 
BRANCH  13  17
HETATM   17  O   UNL     1      17.813  50.127  45.945  1.00  0.00    -0.356 OA
HETATM   18  C   UNL     1      18.056  50.589  44.621  1.00  0.00     0.210 C 
ENDBRANCH  13  17
ENDBRANCH   9  11
ENDBRANCH   1   5
BRANCH   2  19
HETATM   19  N   UNL     1      25.745  46.742  52.220  1.00  0.00    -0.165 NA
HETATM   20  C   UNL     1      25.856  45.464  52.392  1.00  0.00     0.157 A 
HETATM   21  C   UNL     1      24.943  44.350  51.872  1.00  0.00     0.277 A 
HETATM   22  C   UNL     1      26.910  44.796  53.146  1.00  0.00     0.027 A 
HETATM   23  O   UNL     1      23.954  44.530  51.192  1.00  0.00    -0.266 OA
HETATM   24  N   UNL     1      25.490  43.175  52.338  1.00  0.00    -0.321 N 
HETATM   25  C   UNL     1      26.641  43.430  53.081  1.00  0.00     0.048 A 
HETATM   26  H   UNL     1      25.097  42.263  52.152  1.00  0.00     0.169 HD
HETATM   27  C   UNL     1      27.460  42.511  53.702  1.00  0.00     0.030 A 
HETATM   28  C   UNL     1      28.571  43.006  54.396  1.00  0.00     0.002 A 
HETATM   29  C   UNL     1      28.837  44.391  54.455  1.00  0.00     0.001 A 
HETATM   30  C   UNL     1      27.997  45.309  53.822  1.00  0.00     0.016 A 
ENDBRANCH   2  19
TORSDOF 4
ENDMDL
MODEL 7
REMARK VINA RESULT:      -8.6      5.992     10.004
REMARK  4 active torsions:
REMARK  status: ('A' for Active; 'I' for Inactive)
REMARK    1  A    between atoms: O_2  and  C_3 
REMARK    2  A    between atoms: C_5  and  C_6 
REMARK    3  A    between atoms: C_10  and  C_11 
REMARK       I    between atoms: C_11  and  N_12 
REMARK    4  A    between atoms: N_12  and  N_13 
ROOT
HETATM    1  C   UNL     1      27.391  42.451  50.017  1.00  0.00     0.289 C 
HETATM    2  N   UNL     1      27.828  41.180  49.685  1.00  0.00    -0.241 N 
HETATM    3  O   UNL     1      26.860  43.226  49.225  1.00  0.00    -0.264 OA
HETATM    4  H   UNL     1      28.280  40.588  50.381  1.00  0.00     0.192 HD
ENDROOT
BRANCH   1   5
HETATM    5  C   UNL     1      27.609  42.826  51.391  1.00  0.00     0.121 A 
HETATM    6  N   UNL     1      27.081  42.090  52.414  1.00  0.00    -0.272 N 
HETATM    7  N   UNL     1      27.360  42.564  53.636  1.00  0.00    -0.174 NA
HETATM    8  H   UNL     1      26.516  41.251  52.327  1.00  0.00     0.189 HD
HETATM    9  C   UNL     1      28.120  43.649  53.417  1.00  0.00     0.089 A 
HETATM   10  C   UNL     1      28.292  43.851  52.016  1.00  0.00     0.071 A 
BRANCH   9  11
HETATM   11  C   UNL     1      28.647  44.453  54.528  1.00  0.00    -0.003 A 
HETATM   12  C   UNL     1      29.799  44.033  55.218  1.00  0.00     0.050 A 
HETATM   13  C   UNL     1      30.317  44.784  56.276  1.00  0.00     0.069 A 
HETATM   14  C   UNL     1      29.678  45.968  56.650  1.00  0.00     0.037 A 
HETATM   15  C   UNL     1      28.539  46.401  55.975  1.00  0.00     0.004 A 
HETATM   16  C   UNL     1      28.025  45.648  54.917  1.00  0.00     0.014 A 
BRANCH  13  17
HETATM   17  O   UNL     1      31.425  44.473  57.017  1.00  0.00    -0.356 OA
HETATM   18  C   UNL     1      31.760  43.095  57.119  1.00  0.00     0.210 C 
ENDBRANCH  13  17
ENDBRANCH   9  11
ENDBRANCH   1   5
BRANCH   2  19
HETATM   19  N   UNL     1      27.673  40.702  48.412  1.00  0.00    -0.165 NA
HETATM   20  C   UNL     1      28.141  39.519  48.177  1.00  0.00     0.157 A 
HETATM   21  C   UNL     1      28.859  38.570  49.141  1.00  0.00     0.277 A 
HETATM   22  C   UNL     1      28.084  38.820  46.899  1.00  0.00     0.027 A 
HETATM   23  O   UNL     1      29.085  38.814  50.308  1.00  0.00    -0.266 OA
HETATM   24  N   UNL     1      29.163  37.449  48.400  1.00  0.00    -0.321 N 
HETATM   25  C   UNL     1      28.709  37.589  47.090  1.00  0.00     0.048 A 
HETATM   26  H   UNL     1      29.644  36.644  48.776  1.00  0.00     0.169 HD
HETATM   27  C   UNL     1      28.824  36.679  46.061  1.00  0.00     0.030 A 
HETATM   28  C   UNL     1      28.286  37.042  44.820  1.00  0.00     0.002 A 
HETATM   29  C   UNL     1      27.653  38.290  44.635  1.00  0.00     0.001 A 
HETATM   30  C   UNL     1      27.545  39.201  45.688  1.00  0.00     0.016 A 
ENDBRANCH   2  19
TORSDOF 4
ENDMDL
MODEL 8
REMARK VINA RESULT:      -8.6      5.963      9.959
REMARK  4 active torsions:
REMARK  status: ('A' for Active; 'I' for Inactive)
REMARK    1  A    between atoms: O_2  and  C_3 
REMARK    2  A    between atoms: C_5  and  C_6 
REMARK    3  A    between atoms: C_10  and  C_11 
REMARK       I    between atoms: C_11  and  N_12 
REMARK    4  A    between atoms: N_12  and  N_13 
ROOT
HETATM    1  C   UNL     1      28.568  39.839  51.044  1.00  0.00     0.289 C 
HETATM    2  N   UNL     1      27.458  39.879  50.218  1.00  0.00    -0.241 N 
HETATM    3  O   UNL     1      29.515  39.071  50.890  1.00  0.00    -0.264 OA
HETATM    4  H   UNL     1      26.693  40.526  50.407  1.00  0.00     0.192 HD
ENDROOT
BRANCH   1   5
HETATM    5  C   UNL     1      28.546  40.781  52.135  1.00  0.00     0.121 A 
HETATM    6  N   UNL     1      27.466  40.869  52.967  1.00  0.00    -0.272 N 
HETATM    7  N   UNL     1      27.585  41.795  53.929  1.00  0.00    -0.174 NA
HETATM    8  H   UNL     1      26.616  40.315  52.916  1.00  0.00     0.189 HD
HETATM    9  C   UNL     1      28.801  42.331  53.739  1.00  0.00     0.089 A 
HETATM   10  C   UNL     1      29.433  41.725  52.613  1.00  0.00     0.071 A 
BRANCH   9  11
HETATM   11  C   UNL     1      29.316  43.392  54.614  1.00  0.00    -0.003 A 
HETATM   12  C   UNL     1      28.564  44.563  54.822  1.00  0.00     0.050 A 
HETATM   13  C   UNL     1      29.035  45.583  55.652  1.00  0.00     0.069 A 
HETATM   14  C   UNL     1      30.271  45.433  56.283  1.00  0.00     0.037 A 
HETATM   15  C   UNL     1      31.027  44.279  56.093  1.00  0.00     0.004 A 
HETATM   16  C   UNL     1      30.552  43.261  55.262  1.00  0.00     0.014 A 
BRANCH  13  17
HETATM   17  O   UNL     1      28.392  46.760  55.925  1.00  0.00    -0.356 OA
HETATM   18  C   UNL     1      27.487  47.239  54.937  1.00  0.00     0.210 C 
ENDBRANCH  13  17
ENDBRANCH   9  11
ENDBRANCH   1   5
BRANCH   2  19
HETATM   19  N   UNL     1      27.361  39.039  49.142  1.00  0.00    -0.165 NA
HETATM   20  C   UNL     1      27.402  39.590  47.972  1.00  0.00     0.157 A 
HETATM   21  C   UNL     1      27.540  41.075  47.624  1.00  0.00     0.277 A 
HETATM   22  C   UNL     1      27.318  38.887  46.698  1.00  0.00     0.027 A 
HETATM   23  O   UNL     1      27.643  41.968  48.439  1.00  0.00    -0.266 OA
HETATM   24  N   UNL     1      27.520  41.136  46.247  1.00  0.00    -0.321 N 
HETATM   25  C   UNL     1      27.393  39.860  45.702  1.00  0.00     0.048 A 
HETATM   26  H   UNL     1      27.594  41.997  45.725  1.00  0.00     0.169 HD
HETATM   27  C   UNL     1      27.340  39.520  44.367  1.00  0.00     0.030 A 
HETATM   28  C   UNL     1      27.211  38.160  44.055  1.00  0.00     0.002 A 
HETATM   29  C   UNL     1      27.137  37.182  45.070  1.00  0.00     0.001 A 
HETATM   30  C   UNL     1      27.191  37.543  46.418  1.00  0.00     0.016 A 
ENDBRANCH   2  19
TORSDOF 4
ENDMDL
MODEL 9
REMARK VINA RESULT:      -8.5      3.132     10.128
REMARK  4 active torsions:
REMARK  status: ('A' for Active; 'I' for Inactive)
REMARK    1  A    between atoms: O_2  and  C_3 
REMARK    2  A    between atoms: C_5  and  C_6 
REMARK    3  A    between atoms: C_10  and  C_11 
REMARK       I    between atoms: C_11  and  N_12 
REMARK    4  A    between atoms: N_12  and  N_13 
ROOT
HETATM    1  C   UNL     1      25.243  46.893  50.548  1.00  0.00     0.289 C 
HETATM    2  N   UNL     1      24.269  47.091  49.584  1.00  0.00    -0.241 N 
HETATM    3  O   UNL     1      25.539  47.719  51.409  1.00  0.00    -0.264 OA
HETATM    4  H   UNL     1      24.080  46.376  48.882  1.00  0.00     0.192 HD
ENDROOT
BRANCH   1   5
HETATM    5  C   UNL     1      25.914  45.620  50.477  1.00  0.00     0.121 A 
HETATM    6  N   UNL     1      26.105  44.990  49.281  1.00  0.00    -0.272 N 
HETATM    7  N   UNL     1      26.736  43.811  49.372  1.00  0.00    -0.174 NA
HETATM    8  H   UNL     1      25.816  45.326  48.367  1.00  0.00     0.189 HD
HETATM    9  C   UNL     1      26.992  43.661  50.682  1.00  0.00     0.089 A 
HETATM   10  C   UNL     1      26.483  44.775  51.411  1.00  0.00     0.071 A 
BRANCH   9  11
HETATM   11  C   UNL     1      27.697  42.478  51.194  1.00  0.00    -0.003 A 
HETATM   12  C   UNL     1      27.748  41.300  50.427  1.00  0.00     0.050 A 
HETATM   13  C   UNL     1      28.414  40.165  50.895  1.00  0.00     0.069 A 
HETATM   14  C   UNL     1      29.037  40.206  52.144  1.00  0.00     0.037 A 
HETATM   15  C   UNL     1      29.000  41.366  52.916  1.00  0.00     0.004 A 
HETATM   16  C   UNL     1      28.334  42.498  52.443  1.00  0.00     0.014 A 
BRANCH  13  17
HETATM   17  O   UNL     1      28.527  38.969  50.239  1.00  0.00    -0.356 OA
HETATM   18  C   UNL     1      29.654  38.165  50.564  1.00  0.00     0.210 C 
ENDBRANCH  13  17
ENDBRANCH   9  11
ENDBRANCH   1   5
BRANCH   2  19
HETATM   19  N   UNL     1      23.554  48.257  49.548  1.00  0.00    -0.165 NA
HETATM   20  C   UNL     1      22.527  48.282  48.760  1.00  0.00     0.157 A 
HETATM   21  C   UNL     1      22.000  47.171  47.847  1.00  0.00     0.277 A 
HETATM   22  C   UNL     1      21.630  49.415  48.569  1.00  0.00     0.027 A 
HETATM   23  O   UNL     1      22.496  46.068  47.747  1.00  0.00    -0.266 OA
HETATM   24  N   UNL     1      20.898  47.703  47.215  1.00  0.00    -0.321 N 
HETATM   25  C   UNL     1      20.676  49.013  47.635  1.00  0.00     0.048 A 
HETATM   26  H   UNL     1      20.339  47.194  46.545  1.00  0.00     0.169 HD
HETATM   27  C   UNL     1      19.671  49.865  47.229  1.00  0.00     0.030 A 
HETATM   28  C   UNL     1      19.647  51.146  47.795  1.00  0.00     0.002 A 
HETATM   29  C   UNL     1      20.616  51.544  48.742  1.00  0.00     0.001 A 
HETATM   30  C   UNL     1      21.629  50.670  49.141  1.00  0.00     0.016 A 
ENDBRANCH   2  19
TORSDOF 4
ENDMDL
MODEL 10
REMARK VINA RESULT:      -8.4      4.547      9.528
REMARK  4 active torsions:
REMARK  status: ('A' for Active; 'I' for Inactive)
REMARK    1  A    between atoms: O_2  and  C_3 
REMARK    2  A    between atoms: C_5  and  C_6 
REMARK    3  A    between atoms: C_10  and  C_11 
REMARK       I    between atoms: C_11  and  N_12 
REMARK    4  A    between atoms: N_12  and  N_13 
ROOT
HETATM    1  C   UNL     1      26.950  41.079  50.925  1.00  0.00     0.289 C 
HETATM    2  N   UNL     1      25.747  41.750  50.789  1.00  0.00    -0.241 N 
HETATM    3  O   UNL     1      27.252  40.070  50.292  1.00  0.00    -0.264 OA
HETATM    4  H   UNL     1      25.543  42.572  51.356  1.00  0.00     0.192 HD
ENDROOT
BRANCH   1   5
HETATM    5  C   UNL     1      27.855  41.650  51.890  1.00  0.00     0.121 A 
HETATM    6  N   UNL     1      29.143  41.207  51.996  1.00  0.00    -0.272 N 
HETATM    7  N   UNL     1      29.863  41.826  52.941  1.00  0.00    -0.174 NA
HETATM    8  H   UNL     1      29.578  40.475  51.443  1.00  0.00     0.189 HD
HETATM    9  C   UNL     1      29.025  42.731  53.472  1.00  0.00     0.089 A 
HETATM   10  C   UNL     1      27.749  42.646  52.842  1.00  0.00     0.071 A 
BRANCH   9  11
HETATM   11  C   UNL     1      29.454  43.633  54.550  1.00  0.00    -0.003 A 
HETATM   12  C   UNL     1      28.682  44.765  54.871  1.00  0.00     0.050 A 
HETATM   13  C   UNL     1      29.071  45.633  55.894  1.00  0.00     0.069 A 
HETATM   14  C   UNL     1      30.244  45.370  56.604  1.00  0.00     0.037 A 
HETATM   15  C   UNL     1      31.018  44.251  56.303  1.00  0.00     0.004 A 
HETATM   16  C   UNL     1      30.624  43.385  55.280  1.00  0.00     0.014 A 
BRANCH  13  17
HETATM   17  O   UNL     1      28.403  46.760  56.291  1.00  0.00    -0.356 OA
HETATM   18  C   UNL     1      27.534  47.357  55.336  1.00  0.00     0.210 C 
ENDBRANCH  13  17
ENDBRANCH   9  11
ENDBRANCH   1   5
BRANCH   2  19
HETATM   19  N   UNL     1      24.803  41.311  49.900  1.00  0.00    -0.165 NA
HETATM   20  C   UNL     1      24.362  42.180  49.048  1.00  0.00     0.157 A 
HETATM   21  C   UNL     1      24.755  43.652  48.900  1.00  0.00     0.277 A 
HETATM   22  C   UNL     1      23.362  41.928  48.017  1.00  0.00     0.027 A 
HETATM   23  O   UNL     1      25.576  44.220  49.590  1.00  0.00    -0.266 OA
HETATM   24  N   UNL     1      23.995  44.135  47.857  1.00  0.00    -0.321 N 
HETATM   25  C   UNL     1      23.181  43.131  47.337  1.00  0.00     0.048 A 
HETATM   26  H   UNL     1      24.040  45.089  47.528  1.00  0.00     0.169 HD
HETATM   27  C   UNL     1      22.290  43.232  46.290  1.00  0.00     0.030 A 
HETATM   28  C   UNL     1      21.577  42.078  45.940  1.00  0.00     0.002 A 
HETATM   29  C   UNL     1      21.767  40.863  46.633  1.00  0.00     0.001 A 
HETATM   30  C   UNL     1      22.674  40.778  47.692  1.00  0.00     0.016 A 
ENDBRANCH   2  19
TORSDOF 4
ENDMDL
