MODEL 1
REMARK VINA RESULT:      -9.4      0.000      0.000
REMARK  6 active torsions:
REMARK  status: ('A' for Active; 'I' for Inactive)
REMARK    1  A    between atoms: C_2  and  C_3 
REMARK    2  A    between atoms: C_3  and  N_4 
REMARK       I    between atoms: N_4  and  C_5 
REMARK    3  A    between atoms: C_5  and  C_6 
REMARK    4  A    between atoms: C_8  and  C_9 
REMARK    5  A    between atoms: C_9  and  N_10 
REMARK       I    between atoms: N_10  and  C_11 
REMARK    6  A    between atoms: C_11  and  C_12 
ROOT
HETATM    1  C   UNL     1      24.668  45.841  51.319  1.00  0.00     0.161 C 
ENDROOT
BRANCH   1   2
HETATM    2  C   UNL     1      25.088  47.016  50.475  1.00  0.00    -0.040 A 
HETATM    3  C   UNL     1      24.126  47.737  49.752  1.00  0.00     0.026 A 
HETATM    4  C   UNL     1      24.500  48.821  48.949  1.00  0.00     0.032 A 
HETATM    5  C   UNL     1      25.840  49.212  48.892  1.00  0.00     0.017 A 
HETATM    6  C   UNL     1      26.806  48.495  49.601  1.00  0.00     0.002 A 
HETATM    7  C   UNL     1      26.434  47.396  50.380  1.00  0.00     0.009 A 
BRANCH   4   8
HETATM    8  C   UNL     1      23.492  49.583  48.162  1.00  0.00     0.252 C 
HETATM    9  N   UNL     1      22.196  49.521  48.631  1.00  0.00    -0.353 N 
HETATM   10  H   UNL     1      21.976  48.837  49.345  1.00  0.00     0.163 HD
HETATM   11  O   UNL     1      23.829  50.185  47.149  1.00  0.00    -0.268 OA
BRANCH   9  12
HETATM   12  C   UNL     1      21.086  50.144  47.924  1.00  0.00     0.080 C 
HETATM   13  C   UNL     1      20.709  51.458  48.604  1.00  0.00     0.032 C 
BRANCH  12  14
HETATM   14  C   UNL     1      19.886  49.191  47.777  1.00  0.00     0.020 C 
HETATM   15  C   UNL     1      19.749  48.162  48.893  1.00  0.00     0.007 C 
ENDBRANCH  12  14
ENDBRANCH   9  12
ENDBRANCH   4   8
ENDBRANCH   1   2
BRANCH   1  16
HETATM   16  N   UNL     1      25.779  45.001  51.676  1.00  0.00    -0.351 N 
HETATM   17  C   UNL     1      25.832  44.263  52.838  1.00  0.00     0.273 C 
HETATM   18  O   UNL     1      24.905  44.191  53.641  1.00  0.00    -0.266 OA
HETATM   19  H   UNL     1      26.612  44.967  51.097  1.00  0.00     0.163 HD
BRANCH  17  20
HETATM   20  C   UNL     1      27.122  43.579  53.027  1.00  0.00     0.157 A 
HETATM   21  N   UNL     1      27.465  42.506  52.278  1.00  0.00    -0.168 NA
HETATM   22  N   UNL     1      28.700  42.196  52.711  1.00  0.00    -0.277 N 
HETATM   23  H   UNL     1      29.179  41.415  52.279  1.00  0.00     0.189 HD
HETATM   24  C   UNL     1      29.168  42.998  53.714  1.00  0.00     0.063 A 
HETATM   25  C   UNL     1      28.153  43.917  53.953  1.00  0.00     0.029 A 
HETATM   26  C   UNL     1      30.376  42.995  54.417  1.00  0.00     0.032 A 
HETATM   27  C   UNL     1      28.339  44.888  54.956  1.00  0.00     0.023 A 
HETATM   28  C   UNL     1      29.539  44.907  55.689  1.00  0.00    -0.061 A 
HETATM   29  C   UNL     1      30.539  43.967  55.411  1.00  0.00     0.009 A 
HETATM   30  C   UNL     1      29.725  45.932  56.771  1.00  0.00     0.048 C 
ENDBRANCH  17  20
ENDBRANCH   1  16
TORSDOF 6
ENDMDL
MODEL 2
REMARK VINA RESULT:      -9.3      1.612      2.348
REMARK  6 active torsions:
REMARK  status: ('A' for Active; 'I' for Inactive)
REMARK    1  A    between atoms: C_2  and  C_3 
REMARK    2  A    between atoms: C_3  and  N_4 
REMARK       I    between atoms: N_4  and  C_5 
REMARK    3  A    between atoms: C_5  and  C_6 
REMARK    4  A    between atoms: C_8  and  C_9 
REMARK    5  A    between atoms: C_9  and  N_10 
REMARK       I    between atoms: N_10  and  C_11 
REMARK    6  A    between atoms: C_11  and  C_12 
ROOT
HETATM    1  C   UNL     1      25.160  46.452  50.973  1.00  0.00     0.161 C 
ENDROOT
BRANCH   1   2
HETATM    2  C   UNL     1      25.328  47.624  50.040  1.00  0.00    -0.040 A 
HETATM    3  C   UNL     1      24.198  48.247  49.489  1.00  0.00     0.026 A 
HETATM    4  C   UNL     1      24.334  49.325  48.608  1.00  0.00     0.032 A 
HETATM    5  C   UNL     1      25.608  49.811  48.298  1.00  0.00     0.017 A 
HETATM    6  C   UNL     1      26.739  49.192  48.834  1.00  0.00     0.002 A 
HETATM    7  C   UNL     1      26.600  48.097  49.692  1.00  0.00     0.009 A 
BRANCH   4   8
HETATM    8  C   UNL     1      23.145  49.983  48.002  1.00  0.00     0.252 C 
HETATM    9  N   UNL     1      21.962  49.835  48.697  1.00  0.00    -0.353 N 
HETATM   10  H   UNL     1      21.928  49.158  49.448  1.00  0.00     0.163 HD
HETATM   11  O   UNL     1      23.247  50.579  46.936  1.00  0.00    -0.268 OA
BRANCH   9  12
HETATM   12  C   UNL     1      20.697  50.349  48.189  1.00  0.00     0.080 C 
HETATM   13  C   UNL     1      20.205  51.488  49.079  1.00  0.00     0.032 C 
BRANCH  12  14
HETATM   14  C   UNL     1      19.646  49.237  48.022  1.00  0.00     0.020 C 
HETATM   15  C   UNL     1      20.217  47.826  47.956  1.00  0.00     0.007 C 
ENDBRANCH  12  14
ENDBRANCH   9  12
ENDBRANCH   4   8
ENDBRANCH   1   2
BRANCH   1  16
HETATM   16  N   UNL     1      25.957  46.584  52.162  1.00  0.00    -0.351 N 
HETATM   17  C   UNL     1      25.756  45.833  53.299  1.00  0.00     0.273 C 
HETATM   18  O   UNL     1      24.930  44.927  53.379  1.00  0.00    -0.266 OA
HETATM   19  H   UNL     1      26.677  47.297  52.229  1.00  0.00     0.163 HD
BRANCH  17  20
HETATM   20  C   UNL     1      26.624  46.237  54.418  1.00  0.00     0.157 A 
HETATM   21  N   UNL     1      26.319  47.302  55.193  1.00  0.00    -0.168 NA
HETATM   22  N   UNL     1      27.308  47.325  56.106  1.00  0.00    -0.277 N 
HETATM   23  H   UNL     1      27.287  48.045  56.819  1.00  0.00     0.189 HD
HETATM   24  C   UNL     1      28.246  46.344  55.951  1.00  0.00     0.063 A 
HETATM   25  C   UNL     1      27.832  45.612  54.845  1.00  0.00     0.029 A 
HETATM   26  C   UNL     1      29.401  46.042  56.677  1.00  0.00     0.032 A 
HETATM   27  C   UNL     1      28.614  44.519  54.424  1.00  0.00     0.023 A 
HETATM   28  C   UNL     1      29.789  44.194  55.126  1.00  0.00    -0.061 A 
HETATM   29  C   UNL     1      30.165  44.953  56.240  1.00  0.00     0.009 A 
HETATM   30  C   UNL     1      30.629  43.039  54.662  1.00  0.00     0.048 C 
ENDBRANCH  17  20
ENDBRANCH   1  16
TORSDOF 6
ENDMDL
MODEL 3
REMARK VINA RESULT:      -9.2      1.942      2.718
REMARK  6 active torsions:
REMARK  status: ('A' for Active; 'I' for Inactive)
REMARK    1  A    between atoms: C_2  and  C_3 
REMARK    2  A    between atoms: C_3  and  N_4 
REMARK       I    between atoms: N_4  and  C_5 
REMARK    3  A    between atoms: C_5  and  C_6 
REMARK    4  A    between atoms: C_8  and  C_9 
REMARK    5  A    between atoms: C_9  and  N_10 
REMARK       I    between atoms: N_10  and  C_11 
REMARK    6  A    between atoms: C_11  and  C_12 
ROOT
HETATM    1  C   UNL     1      24.606  46.571  50.437  1.00  0.00     0.161 C 
ENDROOT
BRANCH   1   2
HETATM    2  C   UNL     1      24.427  47.858  49.675  1.00  0.00    -0.040 A 
HETATM    3  C   UNL     1      23.136  48.346  49.418  1.00  0.00     0.026 A 
HETATM    4  C   UNL     1      22.950  49.531  48.697  1.00  0.00     0.032 A 
HETATM    5  C   UNL     1      24.060  50.256  48.256  1.00  0.00     0.017 A 
HETATM    6  C   UNL     1      25.348  49.775  48.499  1.00  0.00     0.002 A 
HETATM    7  C   UNL     1      25.530  48.577  49.195  1.00  0.00     0.009 A 
BRANCH   4   8
HETATM    8  C   UNL     1      21.586  50.049  48.402  1.00  0.00     0.252 C 
HETATM    9  N   UNL     1      20.660  49.905  49.415  1.00  0.00    -0.353 N 
HETATM   10  H   UNL     1      20.896  49.310  50.200  1.00  0.00     0.163 HD
HETATM   11  O   UNL     1      21.336  50.534  47.305  1.00  0.00    -0.268 OA
BRANCH   9  12
HETATM   12  C   UNL     1      19.265  50.287  49.248  1.00  0.00     0.080 C 
HETATM   13  C   UNL     1      19.018  51.650  49.890  1.00  0.00     0.032 C 
BRANCH  12  14
HETATM   14  C   UNL     1      18.303  49.206  49.773  1.00  0.00     0.020 C 
HETATM   15  C   UNL     1      18.643  48.668  51.157  1.00  0.00     0.007 C 
ENDBRANCH  12  14
ENDBRANCH   9  12
ENDBRANCH   4   8
ENDBRANCH   1   2
BRANCH   1  16
HETATM   16  N   UNL     1      25.419  46.741  51.610  1.00  0.00    -0.351 N 
HETATM   17  C   UNL     1      25.386  45.886  52.690  1.00  0.00     0.273 C 
HETATM   18  O   UNL     1      24.716  44.857  52.721  1.00  0.00    -0.266 OA
HETATM   19  H   UNL     1      26.021  47.552  51.712  1.00  0.00     0.163 HD
BRANCH  17  20
HETATM   20  C   UNL     1      26.224  46.341  53.811  1.00  0.00     0.157 A 
HETATM   21  N   UNL     1      25.917  47.457  54.510  1.00  0.00    -0.168 NA
HETATM   22  N   UNL     1      26.874  47.516  55.453  1.00  0.00    -0.277 N 
HETATM   23  H   UNL     1      26.846  48.279  56.120  1.00  0.00     0.189 HD
HETATM   24  C   UNL     1      27.796  46.509  55.390  1.00  0.00     0.063 A 
HETATM   25  C   UNL     1      27.403  45.719  54.317  1.00  0.00     0.029 A 
HETATM   26  C   UNL     1      28.919  46.229  56.174  1.00  0.00     0.032 A 
HETATM   27  C   UNL     1      28.175  44.587  53.990  1.00  0.00     0.023 A 
HETATM   28  C   UNL     1      29.317  44.282  54.752  1.00  0.00    -0.061 A 
HETATM   29  C   UNL     1      29.673  45.101  55.830  1.00  0.00     0.009 A 
HETATM   30  C   UNL     1      30.147  43.085  54.388  1.00  0.00     0.048 C 
ENDBRANCH  17  20
ENDBRANCH   1  16
TORSDOF 6
ENDMDL
MODEL 4
REMARK VINA RESULT:      -8.8      1.595      2.050
REMARK  6 active torsions:
REMARK  status: ('A' for Active; 'I' for Inactive)
REMARK    1  A    between atoms: C_2  and  C_3 
REMARK    2  A    between atoms: C_3  and  N_4 
REMARK       I    between atoms: N_4  and  C_5 
REMARK    3  A    between atoms: C_5  and  C_6 
REMARK    4  A    between atoms: C_8  and  C_9 
REMARK    5  A    between atoms: C_9  and  N_10 
REMARK       I    between atoms: N_10  and  C_11 
REMARK    6  A    between atoms: C_11  and  C_12 
ROOT
HETATM    1  C   UNL     1      26.047  47.060  51.952  1.00  0.00     0.161 C 
ENDROOT
BRANCH   1   2
HETATM    2  C   UNL     1      25.148  46.565  50.850  1.00  0.00    -0.040 A 
HETATM    3  C   UNL     1      24.216  47.435  50.262  1.00  0.00     0.026 A 
HETATM    4  C   UNL     1      23.360  46.988  49.249  1.00  0.00     0.032 A 
HETATM    5  C   UNL     1      23.455  45.670  48.792  1.00  0.00     0.017 A 
HETATM    6  C   UNL     1      24.372  44.795  49.376  1.00  0.00     0.002 A 
HETATM    7  C   UNL     1      25.207  45.236  50.407  1.00  0.00     0.009 A 
BRANCH   4   8
HETATM    8  C   UNL     1      22.355  47.895  48.631  1.00  0.00     0.252 C 
HETATM    9  N   UNL     1      21.632  48.674  49.511  1.00  0.00    -0.353 N 
HETATM   10  H   UNL     1      21.688  48.459  50.499  1.00  0.00     0.163 HD
HETATM   11  O   UNL     1      22.189  47.893  47.417  1.00  0.00    -0.268 OA
BRANCH   9  12
HETATM   12  C   UNL     1      20.557  49.548  49.066  1.00  0.00     0.080 C 
HETATM   13  C   UNL     1      20.755  50.949  49.639  1.00  0.00     0.032 C 
BRANCH  12  14
HETATM   14  C   UNL     1      19.168  48.970  49.394  1.00  0.00     0.020 C 
HETATM   15  C   UNL     1      18.767  49.068  50.860  1.00  0.00     0.007 C 
ENDBRANCH  12  14
ENDBRANCH   9  12
ENDBRANCH   4   8
ENDBRANCH   1   2
BRANCH   1  16
HETATM   16  N   UNL     1      26.940  46.038  52.427  1.00  0.00    -0.351 N 
HETATM   17  C   UNL     1      26.898  45.526  53.705  1.00  0.00     0.273 C 
HETATM   18  O   UNL     1      26.047  45.837  54.535  1.00  0.00    -0.266 OA
HETATM   19  H   UNL     1      27.692  45.691  51.840  1.00  0.00     0.163 HD
BRANCH  17  20
HETATM   20  C   UNL     1      27.990  44.578  53.982  1.00  0.00     0.157 A 
HETATM   21  N   UNL     1      28.193  43.494  53.199  1.00  0.00    -0.168 NA
HETATM   22  N   UNL     1      29.278  42.910  53.739  1.00  0.00    -0.277 N 
HETATM   23  H   UNL     1      29.636  42.067  53.305  1.00  0.00     0.189 HD
HETATM   24  C   UNL     1      29.777  43.547  54.840  1.00  0.00     0.063 A 
HETATM   25  C   UNL     1      28.950  44.646  55.034  1.00  0.00     0.029 A 
HETATM   26  C   UNL     1      30.866  43.256  55.666  1.00  0.00     0.032 A 
HETATM   27  C   UNL     1      29.209  45.508  56.118  1.00  0.00     0.023 A 
HETATM   28  C   UNL     1      30.292  45.238  56.974  1.00  0.00    -0.061 A 
HETATM   29  C   UNL     1      31.105  44.124  56.738  1.00  0.00     0.009 A 
HETATM   30  C   UNL     1      30.553  46.149  58.139  1.00  0.00     0.048 C 
ENDBRANCH  17  20
ENDBRANCH   1  16
TORSDOF 6
ENDMDL
MODEL 5
REMARK VINA RESULT:      -8.5      1.281      1.689
REMARK  6 active torsions:
REMARK  status: ('A' for Active; 'I' for Inactive)
REMARK    1  A    between atoms: C_2  and  C_3 
REMARK    2  A    between atoms: C_3  and  N_4 
REMARK       I    between atoms: N_4  and  C_5 
REMARK    3  A    between atoms: C_5  and  C_6 
REMARK    4  A    between atoms: C_8  and  C_9 
REMARK    5  A    between atoms: C_9  and  N_10 
REMARK       I    between atoms: N_10  and  C_11 
REMARK    6  A    between atoms: C_11  and  C_12 
ROOT
HETATM    1  C   UNL     1      25.378  47.348  51.507  1.00  0.00     0.161 C 
ENDROOT
BRANCH   1   2
HETATM    2  C   UNL     1      24.443  47.172  50.338  1.00  0.00    -0.040 A 
HETATM    3  C   UNL     1      23.909  48.298  49.694  1.00  0.00     0.026 A 
HETATM    4  C   UNL     1      23.026  48.154  48.617  1.00  0.00     0.032 A 
HETATM    5  C   UNL     1      22.697  46.876  48.157  1.00  0.00     0.017 A 
HETATM    6  C   UNL     1      23.216  45.750  48.796  1.00  0.00     0.002 A 
HETATM    7  C   UNL     1      24.076  45.896  49.889  1.00  0.00     0.009 A 
BRANCH   4   8
HETATM    8  C   UNL     1      22.438  49.339  47.936  1.00  0.00     0.252 C 
HETATM    9  N   UNL     1      21.088  49.540  48.146  1.00  0.00    -0.353 N 
HETATM   10  H   UNL     1      20.554  48.796  48.577  1.00  0.00     0.163 HD
HETATM   11  O   UNL     1      23.134  50.046  47.218  1.00  0.00    -0.268 OA
BRANCH   9  12
HETATM   12  C   UNL     1      20.352  50.606  47.482  1.00  0.00     0.080 C 
HETATM   13  C   UNL     1      20.027  51.714  48.481  1.00  0.00     0.032 C 
BRANCH  12  14
HETATM   14  C   UNL     1      19.100  50.081  46.758  1.00  0.00     0.020 C 
HETATM   15  C   UNL     1      18.903  48.572  46.838  1.00  0.00     0.007 C 
ENDBRANCH  12  14
ENDBRANCH   9  12
ENDBRANCH   4   8
ENDBRANCH   1   2
BRANCH   1  16
HETATM   16  N   UNL     1      26.243  46.214  51.687  1.00  0.00    -0.351 N 
HETATM   17  C   UNL     1      26.365  45.532  52.878  1.00  0.00     0.273 C 
HETATM   18  O   UNL     1      25.690  45.777  53.874  1.00  0.00    -0.266 OA
HETATM   19  H   UNL     1      26.857  45.905  50.940  1.00  0.00     0.163 HD
BRANCH  17  20
HETATM   20  C   UNL     1      27.401  44.486  52.839  1.00  0.00     0.157 A 
HETATM   21  N   UNL     1      27.431  43.565  51.849  1.00  0.00    -0.168 NA
HETATM   22  N   UNL     1      28.518  42.825  52.136  1.00  0.00    -0.277 N 
HETATM   23  H   UNL     1      28.759  42.063  51.513  1.00  0.00     0.189 HD
HETATM   24  C   UNL     1      29.181  43.206  53.269  1.00  0.00     0.063 A 
HETATM   25  C   UNL     1      28.470  44.293  53.762  1.00  0.00     0.029 A 
HETATM   26  C   UNL     1      30.326  42.698  53.888  1.00  0.00     0.032 A 
HETATM   27  C   UNL     1      28.913  44.911  54.948  1.00  0.00     0.023 A 
HETATM   28  C   UNL     1      30.056  44.418  55.603  1.00  0.00    -0.061 A 
HETATM   29  C   UNL     1      30.747  43.326  55.067  1.00  0.00     0.009 A 
HETATM   30  C   UNL     1      30.513  45.068  56.877  1.00  0.00     0.048 C 
ENDBRANCH  17  20
ENDBRANCH   1  16
TORSDOF 6
ENDMDL
MODEL 6
REMARK VINA RESULT:      -8.4      2.634      4.922
REMARK  6 active torsions:
REMARK  status: ('A' for Active; 'I' for Inactive)
REMARK    1  A    between atoms: C_2  and  C_3 
REMARK    2  A    between atoms: C_3  and  N_4 
REMARK       I    between atoms: N_4  and  C_5 
REMARK    3  A    between atoms: C_5  and  C_6 
REMARK    4  A    between atoms: C_8  and  C_9 
REMARK    5  A    between atoms: C_9  and  N_10 
REMARK       I    between atoms: N_10  and  C_11 
REMARK    6  A    between atoms: C_11  and  C_12 
ROOT
HETATM    1  C   UNL     1      28.362  41.306  50.978  1.00  0.00     0.161 C 
ENDROOT
BRANCH   1   2
HETATM    2  C   UNL     1      27.193  41.832  50.186  1.00  0.00    -0.040 A 
HETATM    3  C   UNL     1      26.557  43.018  50.583  1.00  0.00     0.026 A 
HETATM    4  C   UNL     1      25.459  43.514  49.869  1.00  0.00     0.032 A 
HETATM    5  C   UNL     1      25.011  42.840  48.730  1.00  0.00     0.017 A 
HETATM    6  C   UNL     1      25.632  41.654  48.332  1.00  0.00     0.002 A 
HETATM    7  C   UNL     1      26.711  41.147  49.062  1.00  0.00     0.009 A 
BRANCH   4   8
HETATM    8  C   UNL     1      24.763  44.760  50.290  1.00  0.00     0.252 C 
HETATM    9  N   UNL     1      25.017  45.875  49.517  1.00  0.00    -0.353 N 
HETATM   10  H   UNL     1      25.777  45.834  48.849  1.00  0.00     0.163 HD
HETATM   11  O   UNL     1      24.047  44.761  51.284  1.00  0.00    -0.268 OA
BRANCH   9  12
HETATM   12  C   UNL     1      24.477  47.186  49.850  1.00  0.00     0.080 C 
HETATM   13  C   UNL     1      23.137  47.389  49.148  1.00  0.00     0.032 C 
BRANCH  12  14
HETATM   14  C   UNL     1      25.477  48.317  49.548  1.00  0.00     0.020 C 
HETATM   15  C   UNL     1      26.936  47.881  49.495  1.00  0.00     0.007 C 
ENDBRANCH  12  14
ENDBRANCH   9  12
ENDBRANCH   4   8
ENDBRANCH   1   2
BRANCH   1  16
HETATM   16  N   UNL     1      28.772  42.214  52.014  1.00  0.00    -0.351 N 
HETATM   17  C   UNL     1      28.485  42.027  53.348  1.00  0.00     0.273 C 
HETATM   18  O   UNL     1      27.921  41.028  53.788  1.00  0.00    -0.266 OA
HETATM   19  H   UNL     1      29.249  43.081  51.786  1.00  0.00     0.163 HD
BRANCH  17  20
HETATM   20  C   UNL     1      28.912  43.154  54.193  1.00  0.00     0.157 A 
HETATM   21  N   UNL     1      29.966  43.042  55.032  1.00  0.00    -0.168 NA
HETATM   22  N   UNL     1      30.062  44.264  55.587  1.00  0.00    -0.277 N 
HETATM   23  H   UNL     1      30.805  44.431  56.257  1.00  0.00     0.189 HD
HETATM   24  C   UNL     1      29.115  45.155  55.167  1.00  0.00     0.063 A 
HETATM   25  C   UNL     1      28.336  44.457  54.252  1.00  0.00     0.029 A 
HETATM   26  C   UNL     1      28.883  46.491  55.505  1.00  0.00     0.032 A 
HETATM   27  C   UNL     1      27.252  45.118  53.640  1.00  0.00     0.023 A 
HETATM   28  C   UNL     1      26.985  46.460  53.966  1.00  0.00    -0.061 A 
HETATM   29  C   UNL     1      27.800  47.128  54.887  1.00  0.00     0.009 A 
HETATM   30  C   UNL     1      25.818  47.155  53.325  1.00  0.00     0.048 C 
ENDBRANCH  17  20
ENDBRANCH   1  16
TORSDOF 6
ENDMDL
MODEL 7
REMARK VINA RESULT:      -8.3      1.887     10.307
REMARK  6 active torsions:
REMARK  status: ('A' for Active; 'I' for Inactive)
REMARK    1  A    between atoms: C_2  and  C_3 
REMARK    2  A    between atoms: C_3  and  N_4 
REMARK       I    between atoms: N_4  and  C_5 
REMARK    3  A    between atoms: C_5  and  C_6 
REMARK    4  A    between atoms: C_8  and  C_9 
REMARK    5  A    between atoms: C_9  and  N_10 
REMARK       I    between atoms: N_10  and  C_11 
REMARK    6  A    between atoms: C_11  and  C_12 
ROOT
HETATM    1  C   UNL     1      25.087  47.609  49.504  1.00  0.00     0.161 C 
ENDROOT
BRANCH   1   2
HETATM    2  C   UNL     1      25.554  46.881  50.737  1.00  0.00    -0.040 A 
HETATM    3  C   UNL     1      26.313  45.707  50.611  1.00  0.00     0.026 A 
HETATM    4  C   UNL     1      26.741  45.007  51.745  1.00  0.00     0.032 A 
HETATM    5  C   UNL     1      26.440  45.499  53.018  1.00  0.00     0.017 A 
HETATM    6  C   UNL     1      25.678  46.660  53.154  1.00  0.00     0.002 A 
HETATM    7  C   UNL     1      25.228  47.342  52.020  1.00  0.00     0.009 A 
BRANCH   4   8
HETATM    8  C   UNL     1      27.531  43.751  51.625  1.00  0.00     0.252 C 
HETATM    9  N   UNL     1      28.283  43.412  52.731  1.00  0.00    -0.353 N 
HETATM   10  H   UNL     1      28.401  44.102  53.462  1.00  0.00     0.163 HD
HETATM   11  O   UNL     1      27.513  43.109  50.582  1.00  0.00    -0.268 OA
BRANCH   9  12
HETATM   12  C   UNL     1      29.172  42.258  52.737  1.00  0.00     0.080 C 
HETATM   13  C   UNL     1      28.471  41.065  53.382  1.00  0.00     0.032 C 
BRANCH  12  14
HETATM   14  C   UNL     1      30.525  42.574  53.400  1.00  0.00     0.020 C 
HETATM   15  C   UNL     1      30.425  43.255  54.759  1.00  0.00     0.007 C 
ENDBRANCH  12  14
ENDBRANCH   9  12
ENDBRANCH   4   8
ENDBRANCH   1   2
BRANCH   1  16
HETATM   16  N   UNL     1      23.921  48.413  49.755  1.00  0.00    -0.351 N 
HETATM   17  C   UNL     1      23.390  49.290  48.836  1.00  0.00     0.273 C 
HETATM   18  O   UNL     1      23.813  49.412  47.688  1.00  0.00    -0.266 OA
HETATM   19  H   UNL     1      23.471  48.407  50.665  1.00  0.00     0.163 HD
BRANCH  17  20
HETATM   20  C   UNL     1      22.269  50.080  49.373  1.00  0.00     0.157 A 
HETATM   21  N   UNL     1      22.285  50.546  50.642  1.00  0.00    -0.168 NA
HETATM   22  N   UNL     1      21.133  51.235  50.742  1.00  0.00    -0.277 N 
HETATM   23  H   UNL     1      20.924  51.697  51.620  1.00  0.00     0.189 HD
HETATM   24  C   UNL     1      20.364  51.223  49.612  1.00  0.00     0.063 A 
HETATM   25  C   UNL     1      21.078  50.466  48.691  1.00  0.00     0.029 A 
HETATM   26  C   UNL     1      19.126  51.804  49.327  1.00  0.00     0.032 A 
HETATM   27  C   UNL     1      20.529  50.263  47.410  1.00  0.00     0.023 A 
HETATM   28  C   UNL     1      19.280  50.826  47.093  1.00  0.00    -0.061 A 
HETATM   29  C   UNL     1      18.598  51.588  48.048  1.00  0.00     0.009 A 
HETATM   30  C   UNL     1      18.690  50.590  45.732  1.00  0.00     0.048 C 
ENDBRANCH  17  20
ENDBRANCH   1  16
TORSDOF 6
ENDMDL
MODEL 8
REMARK VINA RESULT:      -8.3      2.759      4.238
REMARK  6 active torsions:
REMARK  status: ('A' for Active; 'I' for Inactive)
REMARK    1  A    between atoms: C_2  and  C_3 
REMARK    2  A    between atoms: C_3  and  N_4 
REMARK       I    between atoms: N_4  and  C_5 
REMARK    3  A    between atoms: C_5  and  C_6 
REMARK    4  A    between atoms: C_8  and  C_9 
REMARK    5  A    between atoms: C_9  and  N_10 
REMARK       I    between atoms: N_10  and  C_11 
REMARK    6  A    between atoms: C_11  and  C_12 
ROOT
HETATM    1  C   UNL     1      23.445  47.295  49.212  1.00  0.00     0.161 C 
ENDROOT
BRANCH   1   2
HETATM    2  C   UNL     1      22.777  48.627  48.993  1.00  0.00    -0.040 A 
HETATM    3  C   UNL     1      21.409  48.777  49.266  1.00  0.00     0.026 A 
HETATM    4  C   UNL     1      20.767  50.002  49.053  1.00  0.00     0.032 A 
HETATM    5  C   UNL     1      21.502  51.099  48.596  1.00  0.00     0.017 A 
HETATM    6  C   UNL     1      22.862  50.959  48.314  1.00  0.00     0.002 A 
HETATM    7  C   UNL     1      23.494  49.726  48.501  1.00  0.00     0.009 A 
BRANCH   4   8
HETATM    8  C   UNL     1      19.312  50.170  49.319  1.00  0.00     0.252 C 
HETATM    9  N   UNL     1      18.687  51.174  48.609  1.00  0.00    -0.353 N 
HETATM   10  H   UNL     1      19.264  51.838  48.108  1.00  0.00     0.163 HD
HETATM   11  O   UNL     1      18.753  49.463  50.149  1.00  0.00    -0.268 OA
BRANCH   9  12
HETATM   12  C   UNL     1      17.287  51.515  48.821  1.00  0.00     0.080 C 
HETATM   13  C   UNL     1      16.632  51.871  47.489  1.00  0.00     0.032 C 
BRANCH  12  14
HETATM   14  C   UNL     1      17.116  52.623  49.876  1.00  0.00     0.020 C 
HETATM   15  C   UNL     1      15.707  53.196  49.975  1.00  0.00     0.007 C 
ENDBRANCH  12  14
ENDBRANCH   9  12
ENDBRANCH   4   8
ENDBRANCH   1   2
BRANCH   1  16
HETATM   16  N   UNL     1      24.120  47.225  50.480  1.00  0.00    -0.351 N 
HETATM   17  C   UNL     1      25.397  46.733  50.636  1.00  0.00     0.273 C 
HETATM   18  O   UNL     1      26.109  46.381  49.699  1.00  0.00    -0.266 OA
HETATM   19  H   UNL     1      23.644  47.487  51.337  1.00  0.00     0.163 HD
BRANCH  17  20
HETATM   20  C   UNL     1      25.818  46.659  52.045  1.00  0.00     0.157 A 
HETATM   21  N   UNL     1      25.386  47.562  52.955  1.00  0.00    -0.168 NA
HETATM   22  N   UNL     1      25.945  47.145  54.105  1.00  0.00    -0.277 N 
HETATM   23  H   UNL     1      25.751  47.669  54.951  1.00  0.00     0.189 HD
HETATM   24  C   UNL     1      26.730  46.033  53.986  1.00  0.00     0.063 A 
HETATM   25  C   UNL     1      26.675  45.688  52.641  1.00  0.00     0.029 A 
HETATM   26  C   UNL     1      27.468  45.313  54.930  1.00  0.00     0.032 A 
HETATM   27  C   UNL     1      27.403  44.567  52.198  1.00  0.00     0.023 A 
HETATM   28  C   UNL     1      28.165  43.826  53.120  1.00  0.00    -0.061 A 
HETATM   29  C   UNL     1      28.186  44.203  54.467  1.00  0.00     0.009 A 
HETATM   30  C   UNL     1      28.954  42.642  52.640  1.00  0.00     0.048 C 
ENDBRANCH  17  20
ENDBRANCH   1  16
TORSDOF 6
ENDMDL
MODEL 9
REMARK VINA RESULT:      -8.3      3.623      6.203
REMARK  6 active torsions:
REMARK  status: ('A' for Active; 'I' for Inactive)
REMARK    1  A    between atoms: C_2  and  C_3 
REMARK    2  A    between atoms: C_3  and  N_4 
REMARK       I    between atoms: N_4  and  C_5 
REMARK    3  A    between atoms: C_5  and  C_6 
REMARK    4  A    between atoms: C_8  and  C_9 
REMARK    5  A    between atoms: C_9  and  N_10 
REMARK       I    between atoms: N_10  and  C_11 
REMARK    6  A    between atoms: C_11  and  C_12 
ROOT
HETATM    1  C   UNL     1      25.514  47.131  51.838  1.00  0.00     0.161 C 
ENDROOT
BRANCH   1   2
HETATM    2  C   UNL     1      25.242  46.071  50.803  1.00  0.00    -0.040 A 
HETATM    3  C   UNL     1      26.100  44.965  50.692  1.00  0.00     0.026 A 
HETATM    4  C   UNL     1      25.873  43.979  49.725  1.00  0.00     0.032 A 
HETATM    5  C   UNL     1      24.763  44.077  48.882  1.00  0.00     0.017 A 
HETATM    6  C   UNL     1      23.909  45.176  48.978  1.00  0.00     0.002 A 
HETATM    7  C   UNL     1      24.154  46.174  49.926  1.00  0.00     0.009 A 
BRANCH   4   8
HETATM    8  C   UNL     1      26.785  42.811  49.585  1.00  0.00     0.252 C 
HETATM    9  N   UNL     1      26.710  42.136  48.383  1.00  0.00    -0.353 N 
HETATM   10  H   UNL     1      25.938  42.346  47.762  1.00  0.00     0.163 HD
HETATM   11  O   UNL     1      27.514  42.483  50.513  1.00  0.00    -0.268 OA
BRANCH   9  12
HETATM   12  C   UNL     1      27.477  40.925  48.127  1.00  0.00     0.080 C 
HETATM   13  C   UNL     1      27.831  40.838  46.644  1.00  0.00     0.032 C 
BRANCH  12  14
HETATM   14  C   UNL     1      26.753  39.664  48.633  1.00  0.00     0.020 C 
HETATM   15  C   UNL     1      27.212  38.363  47.987  1.00  0.00     0.007 C 
ENDBRANCH  12  14
ENDBRANCH   9  12
ENDBRANCH   4   8
ENDBRANCH   1   2
BRANCH   1  16
HETATM   16  N   UNL     1      26.541  46.738  52.764  1.00  0.00    -0.351 N 
HETATM   17  C   UNL     1      26.282  46.257  54.028  1.00  0.00     0.273 C 
HETATM   18  O   UNL     1      25.150  46.045  54.457  1.00  0.00    -0.266 OA
HETATM   19  H   UNL     1      27.522  46.860  52.534  1.00  0.00     0.163 HD
BRANCH  17  20
HETATM   20  C   UNL     1      27.502  46.037  54.822  1.00  0.00     0.157 A 
HETATM   21  N   UNL     1      27.827  46.852  55.852  1.00  0.00    -0.168 NA
HETATM   22  N   UNL     1      28.960  46.314  56.338  1.00  0.00    -0.277 N 
HETATM   23  H   UNL     1      29.395  46.755  57.141  1.00  0.00     0.189 HD
HETATM   24  C   UNL     1      29.397  45.206  55.667  1.00  0.00     0.063 A 
HETATM   25  C   UNL     1      28.465  44.997  54.659  1.00  0.00     0.029 A 
HETATM   26  C   UNL     1      30.510  44.384  55.861  1.00  0.00     0.032 A 
HETATM   27  C   UNL     1      28.650  43.914  53.778  1.00  0.00     0.023 A 
HETATM   28  C   UNL     1      29.766  43.073  53.938  1.00  0.00    -0.061 A 
HETATM   29  C   UNL     1      30.676  43.314  54.973  1.00  0.00     0.009 A 
HETATM   30  C   UNL     1      29.969  41.930  52.985  1.00  0.00     0.048 C 
ENDBRANCH  17  20
ENDBRANCH   1  16
TORSDOF 6
ENDMDL
MODEL 10
REMARK VINA RESULT:      -8.1      2.416      9.488
REMARK  6 active torsions:
REMARK  status: ('A' for Active; 'I' for Inactive)
REMARK    1  A    between atoms: C_2  and  C_3 
REMARK    2  A    between atoms: C_3  and  N_4 
REMARK       I    between atoms: N_4  and  C_5 
REMARK    3  A    between atoms: C_5  and  C_6 
REMARK    4  A    between atoms: C_8  and  C_9 
REMARK    5  A    between atoms: C_9  and  N_10 
REMARK       I    between atoms: N_10  and  C_11 
REMARK    6  A    between atoms: C_11  and  C_12 
ROOT
HETATM    1  C   UNL     1      23.427  45.410  49.111  1.00  0.00     0.161 C 
ENDROOT
BRANCH   1   2
HETATM    2  C   UNL     1      24.661  45.110  49.921  1.00  0.00    -0.040 A 
HETATM    3  C   UNL     1      24.697  45.431  51.287  1.00  0.00     0.026 A 
HETATM    4  C   UNL     1      25.841  45.175  52.051  1.00  0.00     0.032 A 
HETATM    5  C   UNL     1      26.949  44.563  51.458  1.00  0.00     0.017 A 
HETATM    6  C   UNL     1      26.926  44.248  50.099  1.00  0.00     0.002 A 
HETATM    7  C   UNL     1      25.792  44.530  49.331  1.00  0.00     0.009 A 
BRANCH   4   8
HETATM    8  C   UNL     1      25.899  45.526  53.496  1.00  0.00     0.252 C 
HETATM    9  N   UNL     1      26.870  46.442  53.849  1.00  0.00    -0.353 N 
HETATM   10  H   UNL     1      27.583  46.672  53.168  1.00  0.00     0.163 HD
HETATM   11  O   UNL     1      25.139  44.989  54.293  1.00  0.00    -0.268 OA
BRANCH   9  12
HETATM   12  C   UNL     1      27.106  46.823  55.235  1.00  0.00     0.080 C 
HETATM   13  C   UNL     1      26.658  48.265  55.460  1.00  0.00     0.032 C 
BRANCH  12  14
HETATM   14  C   UNL     1      28.567  46.587  55.658  1.00  0.00     0.020 C 
HETATM   15  C   UNL     1      29.123  45.216  55.295  1.00  0.00     0.007 C 
ENDBRANCH  12  14
ENDBRANCH   9  12
ENDBRANCH   4   8
ENDBRANCH   1   2
BRANCH   1  16
HETATM   16  N   UNL     1      22.847  46.681  49.452  1.00  0.00    -0.351 N 
HETATM   17  C   UNL     1      22.359  47.570  48.519  1.00  0.00     0.273 C 
HETATM   18  O   UNL     1      22.302  47.329  47.316  1.00  0.00    -0.266 OA
HETATM   19  H   UNL     1      22.831  47.004  50.415  1.00  0.00     0.163 HD
BRANCH  17  20
HETATM   20  C   UNL     1      21.926  48.846  49.110  1.00  0.00     0.157 A 
HETATM   21  N   UNL     1      22.807  49.670  49.724  1.00  0.00    -0.168 NA
HETATM   22  N   UNL     1      22.055  50.724  50.089  1.00  0.00    -0.277 N 
HETATM   23  H   UNL     1      22.508  51.496  50.566  1.00  0.00     0.189 HD
HETATM   24  C   UNL     1      20.732  50.619  49.762  1.00  0.00     0.063 A 
HETATM   25  C   UNL     1      20.609  49.392  49.121  1.00  0.00     0.029 A 
HETATM   26  C   UNL     1      19.654  51.484  49.968  1.00  0.00     0.032 A 
HETATM   27  C   UNL     1      19.339  48.989  48.665  1.00  0.00     0.023 A 
HETATM   28  C   UNL     1      18.230  49.831  48.866  1.00  0.00    -0.061 A 
HETATM   29  C   UNL     1      18.400  51.063  49.509  1.00  0.00     0.009 A 
HETATM   30  C   UNL     1      16.875  49.389  48.395  1.00  0.00     0.048 C 
ENDBRANCH  17  20
ENDBRANCH   1  16
TORSDOF 6
ENDMDL
