MODEL 1
REMARK VINA RESULT:      -8.4      0.000      0.000
REMARK  3 active torsions:
REMARK  status: ('A' for Active; 'I' for Inactive)
REMARK    1  A    between atoms: C_2  and  N_3 
REMARK       I    between atoms: N_3  and  C_4 
REMARK    2  A    between atoms: C_4  and  C_5 
REMARK    3  A    between atoms: C_5  and  C_6 
ROOT
HETATM    1  C   UNL     1      26.788  43.280  53.017  1.00  0.00     0.286 C 
HETATM    2  N   UNL     1      27.647  44.018  51.995  1.00  0.00    -0.056 N 
HETATM    3  H   UNL     1      28.306  44.595  52.561  1.00  0.00     0.278 HD
HETATM    4  H   UNL     1      28.231  43.368  51.457  1.00  0.00     0.278 HD
HETATM    5  C   UNL     1      26.889  44.950  51.091  1.00  0.00     0.209 C 
HETATM    6  C   UNL     1      26.046  45.925  51.950  1.00  0.00     0.115 C 
HETATM    7  N   UNL     1      25.264  45.245  52.983  1.00  0.00    -0.353 N 
HETATM    8  C   UNL     1      25.753  44.187  53.713  1.00  0.00     0.249 C 
HETATM    9  O   UNL     1      25.292  43.937  54.822  1.00  0.00    -0.271 OA
HETATM   10  C   UNL     1      26.055  44.147  50.090  1.00  0.00     0.035 C 
HETATM   11  C   UNL     1      25.204  45.069  49.221  1.00  0.00     0.002 C 
HETATM   12  C   UNL     1      24.323  45.978  50.074  1.00  0.00     0.002 C 
HETATM   13  C   UNL     1      25.149  46.798  51.065  1.00  0.00     0.027 C 
HETATM   14  H   UNL     1      24.612  45.810  53.526  1.00  0.00     0.163 HD
ENDROOT
BRANCH   1  15
HETATM   15  C   UNL     1      27.662  42.529  54.032  1.00  0.00     0.146 C 
BRANCH  15  16
HETATM   16  C   UNL     1      29.075  42.392  53.530  1.00  0.00     0.224 C 
HETATM   17  N   UNL     1      30.124  43.029  54.110  1.00  0.00    -0.327 N 
HETATM   18  H   UNL     1      30.979  42.898  53.574  1.00  0.00     0.169 HD
HETATM   19  O   UNL     1      29.287  41.626  52.578  1.00  0.00    -0.273 OA
BRANCH  17  20
HETATM   20  C   UNL     1      30.274  43.805  55.277  1.00  0.00     0.034 A 
HETATM   21  C   UNL     1      29.623  45.012  55.543  1.00  0.00     0.032 A 
HETATM   22  C   UNL     1      29.831  45.680  56.758  1.00  0.00     0.044 A 
HETATM   23  C   UNL     1      30.685  45.142  57.709  1.00  0.00     0.116 A 
HETATM   24  C   UNL     1      31.336  43.942  57.472  1.00  0.00     0.044 A 
HETATM   25  F   UNL     1      30.874  45.784  58.868  1.00  0.00    -0.206 F 
HETATM   26  C   UNL     1      31.127  43.275  56.262  1.00  0.00     0.032 A 
ENDBRANCH  17  20
ENDBRANCH  15  16
ENDBRANCH   1  15
TORSDOF 3
ENDMDL
MODEL 2
REMARK VINA RESULT:      -8.2      2.451      3.730
REMARK  3 active torsions:
REMARK  status: ('A' for Active; 'I' for Inactive)
REMARK    1  A    between atoms: C_2  and  N_3 
REMARK       I    between atoms: N_3  and  C_4 
REMARK    2  A    between atoms: C_4  and  C_5 
REMARK    3  A    between atoms: C_5  and  C_6 
ROOT
HETATM    1  C   UNL     1      27.165  42.689  52.479  1.00  0.00     0.286 C 
HETATM    2  N   UNL     1      25.871  42.659  51.672  1.00  0.00    -0.056 N 
HETATM    3  H   UNL     1      25.158  42.257  52.318  1.00  0.00     0.278 HD
HETATM    4  H   UNL     1      25.547  43.608  51.449  1.00  0.00     0.278 HD
HETATM    5  C   UNL     1      25.914  41.792  50.446  1.00  0.00     0.209 C 
HETATM    6  C   UNL     1      26.382  40.369  50.840  1.00  0.00     0.115 C 
HETATM    7  N   UNL     1      27.586  40.375  51.673  1.00  0.00    -0.353 N 
HETATM    8  C   UNL     1      27.797  41.296  52.673  1.00  0.00     0.249 C 
HETATM    9  O   UNL     1      28.543  41.030  53.609  1.00  0.00    -0.271 OA
HETATM   10  C   UNL     1      26.789  42.443  49.372  1.00  0.00     0.035 C 
HETATM   11  C   UNL     1      26.924  41.537  48.152  1.00  0.00     0.002 C 
HETATM   12  C   UNL     1      27.455  40.159  48.539  1.00  0.00     0.002 C 
HETATM   13  C   UNL     1      26.576  39.493  49.598  1.00  0.00     0.027 C 
HETATM   14  H   UNL     1      28.008  39.474  51.893  1.00  0.00     0.163 HD
ENDROOT
BRANCH   1  15
HETATM   15  C   UNL     1      26.963  43.414  53.818  1.00  0.00     0.146 C 
BRANCH  15  16
HETATM   16  C   UNL     1      27.261  44.884  53.686  1.00  0.00     0.224 C 
HETATM   17  N   UNL     1      28.240  45.500  54.398  1.00  0.00    -0.327 N 
HETATM   18  H   UNL     1      28.225  46.507  54.252  1.00  0.00     0.169 HD
HETATM   19  O   UNL     1      26.614  45.541  52.857  1.00  0.00    -0.273 OA
BRANCH  17  20
HETATM   20  C   UNL     1      29.254  45.046  55.264  1.00  0.00     0.034 A 
HETATM   21  C   UNL     1      29.604  45.627  56.486  1.00  0.00     0.032 A 
HETATM   22  C   UNL     1      30.614  45.065  57.278  1.00  0.00     0.044 A 
HETATM   23  C   UNL     1      31.273  43.920  56.854  1.00  0.00     0.116 A 
HETATM   24  C   UNL     1      30.939  43.320  55.651  1.00  0.00     0.044 A 
HETATM   25  F   UNL     1      32.233  43.388  57.619  1.00  0.00    -0.206 F 
HETATM   26  C   UNL     1      29.930  43.880  54.862  1.00  0.00     0.032 A 
ENDBRANCH  17  20
ENDBRANCH  15  16
ENDBRANCH   1  15
TORSDOF 3
ENDMDL
MODEL 3
REMARK VINA RESULT:      -8.2      2.178      3.029
REMARK  3 active torsions:
REMARK  status: ('A' for Active; 'I' for Inactive)
REMARK    1  A    between atoms: C_2  and  N_3 
REMARK       I    between atoms: N_3  and  C_4 
REMARK    2  A    between atoms: C_4  and  C_5 
REMARK    3  A    between atoms: C_5  and  C_6 
ROOT
HETATM    1  C   UNL     1      26.854  43.994  53.852  1.00  0.00     0.286 C 
HETATM    2  N   UNL     1      28.071  44.217  52.959  1.00  0.00    -0.056 N 
HETATM    3  H   UNL     1      28.101  45.246  52.794  1.00  0.00     0.278 HD
HETATM    4  H   UNL     1      28.943  43.984  53.449  1.00  0.00     0.278 HD
HETATM    5  C   UNL     1      28.000  43.544  51.618  1.00  0.00     0.209 C 
HETATM    6  C   UNL     1      26.682  43.947  50.910  1.00  0.00     0.115 C 
HETATM    7  N   UNL     1      25.507  43.806  51.770  1.00  0.00    -0.353 N 
HETATM    8  C   UNL     1      25.514  44.141  53.104  1.00  0.00     0.249 C 
HETATM    9  O   UNL     1      24.467  44.438  53.671  1.00  0.00    -0.271 OA
HETATM   10  C   UNL     1      28.162  42.030  51.780  1.00  0.00     0.035 C 
HETATM   11  C   UNL     1      28.000  41.315  50.443  1.00  0.00     0.002 C 
HETATM   12  C   UNL     1      26.667  41.662  49.785  1.00  0.00     0.002 C 
HETATM   13  C   UNL     1      26.504  43.171  49.601  1.00  0.00     0.027 C 
HETATM   14  H   UNL     1      24.594  43.962  51.345  1.00  0.00     0.163 HD
ENDROOT
BRANCH   1  15
HETATM   15  C   UNL     1      26.913  44.889  55.098  1.00  0.00     0.146 C 
BRANCH  15  16
HETATM   16  C   UNL     1      27.765  46.105  54.849  1.00  0.00     0.224 C 
HETATM   17  N   UNL     1      29.026  46.229  55.336  1.00  0.00    -0.327 N 
HETATM   18  H   UNL     1      29.404  47.156  55.153  1.00  0.00     0.169 HD
HETATM   19  O   UNL     1      27.307  47.004  54.128  1.00  0.00    -0.273 OA
BRANCH  17  20
HETATM   20  C   UNL     1      29.903  45.360  56.016  1.00  0.00     0.034 A 
HETATM   21  C   UNL     1      30.314  45.492  57.345  1.00  0.00     0.032 A 
HETATM   22  C   UNL     1      31.168  44.543  57.923  1.00  0.00     0.044 A 
HETATM   23  C   UNL     1      31.610  43.460  57.177  1.00  0.00     0.116 A 
HETATM   24  C   UNL     1      31.210  43.302  55.861  1.00  0.00     0.044 A 
HETATM   25  F   UNL     1      32.421  42.557  57.739  1.00  0.00    -0.206 F 
HETATM   26  C   UNL     1      30.356  44.247  55.285  1.00  0.00     0.032 A 
ENDBRANCH  17  20
ENDBRANCH  15  16
ENDBRANCH   1  15
TORSDOF 3
ENDMDL
MODEL 4
REMARK VINA RESULT:      -8.0      5.653      8.224
REMARK  3 active torsions:
REMARK  status: ('A' for Active; 'I' for Inactive)
REMARK    1  A    between atoms: C_2  and  N_3 
REMARK       I    between atoms: N_3  and  C_4 
REMARK    2  A    between atoms: C_4  and  C_5 
REMARK    3  A    between atoms: C_5  and  C_6 
ROOT
HETATM    1  C   UNL     1      21.899  48.777  48.963  1.00  0.00     0.286 C 
HETATM    2  N   UNL     1      21.916  49.976  49.906  1.00  0.00    -0.056 N 
HETATM    3  H   UNL     1      22.016  49.568  50.861  1.00  0.00     0.278 HD
HETATM    4  H   UNL     1      22.751  50.556  49.758  1.00  0.00     0.278 HD
HETATM    5  C   UNL     1      20.663  50.804  49.894  1.00  0.00     0.209 C 
HETATM    6  C   UNL     1      19.440  49.888  50.147  1.00  0.00     0.115 C 
HETATM    7  N   UNL     1      19.436  48.695  49.300  1.00  0.00    -0.353 N 
HETATM    8  C   UNL     1      20.577  47.984  49.008  1.00  0.00     0.249 C 
HETATM    9  O   UNL     1      20.503  46.799  48.699  1.00  0.00    -0.271 OA
HETATM   10  C   UNL     1      20.569  51.596  48.587  1.00  0.00     0.035 C 
HETATM   11  C   UNL     1      19.258  52.373  48.510  1.00  0.00     0.002 C 
HETATM   12  C   UNL     1      18.054  51.452  48.689  1.00  0.00     0.002 C 
HETATM   13  C   UNL     1      18.130  50.671  50.001  1.00  0.00     0.027 C 
HETATM   14  H   UNL     1      18.615  48.093  49.342  1.00  0.00     0.163 HD
ENDROOT
BRANCH   1  15
HETATM   15  C   UNL     1      23.115  47.870  49.201  1.00  0.00     0.146 C 
BRANCH  15  16
HETATM   16  C   UNL     1      24.399  48.644  49.061  1.00  0.00     0.224 C 
HETATM   17  N   UNL     1      25.569  48.228  49.612  1.00  0.00    -0.327 N 
HETATM   18  H   UNL     1      26.300  48.926  49.500  1.00  0.00     0.169 HD
HETATM   19  O   UNL     1      24.391  49.675  48.374  1.00  0.00    -0.273 OA
BRANCH  17  20
HETATM   20  C   UNL     1      25.974  47.054  50.280  1.00  0.00     0.034 A 
HETATM   21  C   UNL     1      26.591  45.950  49.686  1.00  0.00     0.032 A 
HETATM   22  C   UNL     1      26.978  44.849  50.462  1.00  0.00     0.044 A 
HETATM   23  C   UNL     1      26.753  44.850  51.831  1.00  0.00     0.116 A 
HETATM   24  C   UNL     1      26.150  45.936  52.444  1.00  0.00     0.044 A 
HETATM   25  F   UNL     1      27.130  43.796  52.564  1.00  0.00    -0.206 F 
HETATM   26  C   UNL     1      25.767  47.035  51.671  1.00  0.00     0.032 A 
ENDBRANCH  17  20
ENDBRANCH  15  16
ENDBRANCH   1  15
TORSDOF 3
ENDMDL
MODEL 5
REMARK VINA RESULT:      -8.0      2.698      4.148
REMARK  3 active torsions:
REMARK  status: ('A' for Active; 'I' for Inactive)
REMARK    1  A    between atoms: C_2  and  N_3 
REMARK       I    between atoms: N_3  and  C_4 
REMARK    2  A    between atoms: C_4  and  C_5 
REMARK    3  A    between atoms: C_5  and  C_6 
ROOT
HETATM    1  C   UNL     1      26.016  45.257  50.143  1.00  0.00     0.286 C 
HETATM    2  N   UNL     1      26.190  46.430  51.104  1.00  0.00    -0.056 N 
HETATM    3  H   UNL     1      25.481  46.274  51.853  1.00  0.00     0.278 HD
HETATM    4  H   UNL     1      27.105  46.400  51.569  1.00  0.00     0.278 HD
HETATM    5  C   UNL     1      25.925  47.781  50.501  1.00  0.00     0.209 C 
HETATM    6  C   UNL     1      24.526  47.781  49.837  1.00  0.00     0.115 C 
HETATM    7  N   UNL     1      24.310  46.628  48.962  1.00  0.00    -0.353 N 
HETATM    8  C   UNL     1      24.745  45.361  49.277  1.00  0.00     0.249 C 
HETATM    9  O   UNL     1      24.192  44.380  48.790  1.00  0.00    -0.271 OA
HETATM   10  C   UNL     1      27.054  48.158  49.539  1.00  0.00     0.035 C 
HETATM   11  C   UNL     1      26.762  49.484  48.844  1.00  0.00     0.002 C 
HETATM   12  C   UNL     1      25.412  49.452  48.130  1.00  0.00     0.002 C 
HETATM   13  C   UNL     1      24.276  49.094  49.088  1.00  0.00     0.027 C 
HETATM   14  H   UNL     1      23.449  46.608  48.416  1.00  0.00     0.163 HD
ENDROOT
BRANCH   1  15
HETATM   15  C   UNL     1      26.088  43.918  50.891  1.00  0.00     0.146 C 
BRANCH  15  16
HETATM   16  C   UNL     1      25.307  43.974  52.176  1.00  0.00     0.224 C 
HETATM   17  N   UNL     1      25.868  43.721  53.387  1.00  0.00    -0.327 N 
HETATM   18  H   UNL     1      25.166  43.707  54.124  1.00  0.00     0.169 HD
HETATM   19  O   UNL     1      24.115  44.314  52.124  1.00  0.00    -0.273 OA
BRANCH  17  20
HETATM   20  C   UNL     1      27.187  43.491  53.826  1.00  0.00     0.034 A 
HETATM   21  C   UNL     1      27.909  42.307  53.655  1.00  0.00     0.032 A 
HETATM   22  C   UNL     1      29.230  42.208  54.109  1.00  0.00     0.044 A 
HETATM   23  C   UNL     1      29.835  43.291  54.731  1.00  0.00     0.116 A 
HETATM   24  C   UNL     1      29.144  44.478  54.904  1.00  0.00     0.044 A 
HETATM   25  F   UNL     1      31.099  43.188  55.157  1.00  0.00    -0.206 F 
HETATM   26  C   UNL     1      27.826  44.578  54.449  1.00  0.00     0.032 A 
ENDBRANCH  17  20
ENDBRANCH  15  16
ENDBRANCH   1  15
TORSDOF 3
ENDMDL
MODEL 6
REMARK VINA RESULT:      -7.9      3.817      7.055
REMARK  3 active torsions:
REMARK  status: ('A' for Active; 'I' for Inactive)
REMARK    1  A    between atoms: C_2  and  N_3 
REMARK       I    between atoms: N_3  and  C_4 
REMARK    2  A    between atoms: C_4  and  C_5 
REMARK    3  A    between atoms: C_5  and  C_6 
ROOT
HETATM    1  C   UNL     1      26.382  45.122  52.965  1.00  0.00     0.286 C 
HETATM    2  N   UNL     1      27.074  44.504  51.754  1.00  0.00    -0.056 N 
HETATM    3  H   UNL     1      26.301  44.135  51.160  1.00  0.00     0.278 HD
HETATM    4  H   UNL     1      27.549  45.219  51.189  1.00  0.00     0.278 HD
HETATM    5  C   UNL     1      27.991  43.357  52.072  1.00  0.00     0.209 C 
HETATM    6  C   UNL     1      27.221  42.299  52.900  1.00  0.00     0.115 C 
HETATM    7  N   UNL     1      26.493  42.877  54.029  1.00  0.00    -0.353 N 
HETATM    8  C   UNL     1      25.821  44.075  53.948  1.00  0.00     0.249 C 
HETATM    9  O   UNL     1      24.889  44.312  54.710  1.00  0.00    -0.271 OA
HETATM   10  C   UNL     1      29.254  43.871  52.767  1.00  0.00     0.035 C 
HETATM   11  C   UNL     1      30.159  42.715  53.183  1.00  0.00     0.002 C 
HETATM   12  C   UNL     1      29.413  41.712  54.059  1.00  0.00     0.002 C 
HETATM   13  C   UNL     1      28.159  41.179  53.365  1.00  0.00     0.027 C 
HETATM   14  H   UNL     1      26.040  42.232  54.675  1.00  0.00     0.163 HD
ENDROOT
BRANCH   1  15
HETATM   15  C   UNL     1      25.306  46.129  52.531  1.00  0.00     0.146 C 
BRANCH  15  16
HETATM   16  C   UNL     1      24.578  45.646  51.305  1.00  0.00     0.224 C 
HETATM   17  N   UNL     1      24.613  46.311  50.122  1.00  0.00    -0.327 N 
HETATM   18  H   UNL     1      23.982  45.891  49.443  1.00  0.00     0.169 HD
HETATM   19  O   UNL     1      23.964  44.571  51.374  1.00  0.00    -0.273 OA
BRANCH  17  20
HETATM   20  C   UNL     1      25.332  47.427  49.647  1.00  0.00     0.034 A 
HETATM   21  C   UNL     1      26.723  47.550  49.623  1.00  0.00     0.032 A 
HETATM   22  C   UNL     1      27.326  48.700  49.096  1.00  0.00     0.044 A 
HETATM   23  C   UNL     1      26.542  49.725  48.588  1.00  0.00     0.116 A 
HETATM   24  C   UNL     1      25.161  49.623  48.593  1.00  0.00     0.044 A 
HETATM   25  F   UNL     1      27.127  50.817  48.082  1.00  0.00    -0.206 F 
HETATM   26  C   UNL     1      24.559  48.475  49.117  1.00  0.00     0.032 A 
ENDBRANCH  17  20
ENDBRANCH  15  16
ENDBRANCH   1  15
TORSDOF 3
ENDMDL
MODEL 7
REMARK VINA RESULT:      -7.7      1.853      2.736
REMARK  3 active torsions:
REMARK  status: ('A' for Active; 'I' for Inactive)
REMARK    1  A    between atoms: C_2  and  N_3 
REMARK       I    between atoms: N_3  and  C_4 
REMARK    2  A    between atoms: C_4  and  C_5 
REMARK    3  A    between atoms: C_5  and  C_6 
ROOT
HETATM    1  C   UNL     1      27.238  44.336  50.757  1.00  0.00     0.286 C 
HETATM    2  N   UNL     1      26.215  44.784  51.796  1.00  0.00    -0.056 N 
HETATM    3  H   UNL     1      25.912  43.909  52.274  1.00  0.00     0.278 HD
HETATM    4  H   UNL     1      26.649  45.367  52.522  1.00  0.00     0.278 HD
HETATM    5  C   UNL     1      24.988  45.439  51.228  1.00  0.00     0.209 C 
HETATM    6  C   UNL     1      24.358  44.511  50.160  1.00  0.00     0.115 C 
HETATM    7  N   UNL     1      25.333  44.013  49.191  1.00  0.00    -0.353 N 
HETATM    8  C   UNL     1      26.605  43.624  49.545  1.00  0.00     0.249 C 
HETATM    9  O   UNL     1      27.222  42.825  48.848  1.00  0.00    -0.271 OA
HETATM   10  C   UNL     1      25.334  46.831  50.694  1.00  0.00     0.035 C 
HETATM   11  C   UNL     1      24.125  47.480  50.028  1.00  0.00     0.002 C 
HETATM   12  C   UNL     1      23.553  46.590  48.927  1.00  0.00     0.002 C 
HETATM   13  C   UNL     1      23.186  45.203  49.456  1.00  0.00     0.027 C 
HETATM   14  H   UNL     1      24.978  43.473  48.403  1.00  0.00     0.163 HD
ENDROOT
BRANCH   1  15
HETATM   15  C   UNL     1      28.343  43.487  51.402  1.00  0.00     0.146 C 
BRANCH  15  16
HETATM   16  C   UNL     1      27.769  42.535  52.417  1.00  0.00     0.224 C 
HETATM   17  N   UNL     1      28.014  42.647  53.748  1.00  0.00    -0.327 N 
HETATM   18  H   UNL     1      27.627  41.859  54.263  1.00  0.00     0.169 HD
HETATM   19  O   UNL     1      27.003  41.645  52.019  1.00  0.00    -0.273 OA
BRANCH  17  20
HETATM   20  C   UNL     1      28.664  43.609  54.547  1.00  0.00     0.034 A 
HETATM   21  C   UNL     1      28.129  44.838  54.941  1.00  0.00     0.032 A 
HETATM   22  C   UNL     1      28.863  45.702  55.765  1.00  0.00     0.044 A 
HETATM   23  C   UNL     1      30.130  45.339  56.199  1.00  0.00     0.116 A 
HETATM   24  C   UNL     1      30.679  44.123  55.828  1.00  0.00     0.044 A 
HETATM   25  F   UNL     1      30.821  46.168  56.989  1.00  0.00    -0.206 F 
HETATM   26  C   UNL     1      29.946  43.260  55.009  1.00  0.00     0.032 A 
ENDBRANCH  17  20
ENDBRANCH  15  16
ENDBRANCH   1  15
TORSDOF 3
ENDMDL
MODEL 8
REMARK VINA RESULT:      -7.7     14.443     16.719
REMARK  3 active torsions:
REMARK  status: ('A' for Active; 'I' for Inactive)
REMARK    1  A    between atoms: C_2  and  N_3 
REMARK       I    between atoms: N_3  and  C_4 
REMARK    2  A    between atoms: C_4  and  C_5 
REMARK    3  A    between atoms: C_5  and  C_6 
ROOT
HETATM    1  C   UNL     1      33.313  50.240  41.641  1.00  0.00     0.286 C 
HETATM    2  N   UNL     1      34.561  49.617  41.024  1.00  0.00    -0.056 N 
HETATM    3  H   UNL     1      34.841  48.860  41.685  1.00  0.00     0.278 HD
HETATM    4  H   UNL     1      34.346  49.151  40.135  1.00  0.00     0.278 HD
HETATM    5  C   UNL     1      35.728  50.553  40.885  1.00  0.00     0.209 C 
HETATM    6  C   UNL     1      36.026  51.209  42.256  1.00  0.00     0.115 C 
HETATM    7  N   UNL     1      34.831  51.755  42.900  1.00  0.00    -0.353 N 
HETATM    8  C   UNL     1      33.613  51.116  42.874  1.00  0.00     0.249 C 
HETATM    9  O   UNL     1      32.783  51.335  43.750  1.00  0.00    -0.271 OA
HETATM   10  C   UNL     1      35.456  51.569  39.772  1.00  0.00     0.035 C 
HETATM   11  C   UNL     1      36.586  52.589  39.674  1.00  0.00     0.002 C 
HETATM   12  C   UNL     1      36.827  53.284  41.012  1.00  0.00     0.002 C 
HETATM   13  C   UNL     1      37.118  52.277  42.126  1.00  0.00     0.027 C 
HETATM   14  H   UNL     1      34.962  52.285  43.760  1.00  0.00     0.163 HD
ENDROOT
BRANCH   1  15
HETATM   15  C   UNL     1      32.256  49.168  41.948  1.00  0.00     0.146 C 
BRANCH  15  16
HETATM   16  C   UNL     1      32.223  48.119  40.869  1.00  0.00     0.224 C 
HETATM   17  N   UNL     1      31.558  48.292  39.698  1.00  0.00    -0.327 N 
HETATM   18  H   UNL     1      31.564  47.441  39.140  1.00  0.00     0.169 HD
HETATM   19  O   UNL     1      32.872  47.077  41.044  1.00  0.00    -0.273 OA
BRANCH  17  20
HETATM   20  C   UNL     1      30.889  49.381  39.104  1.00  0.00     0.034 A 
HETATM   21  C   UNL     1      29.506  49.575  39.082  1.00  0.00     0.032 A 
HETATM   22  C   UNL     1      28.957  50.718  38.485  1.00  0.00     0.044 A 
HETATM   23  C   UNL     1      29.787  51.670  37.912  1.00  0.00     0.116 A 
HETATM   24  C   UNL     1      31.163  51.505  37.928  1.00  0.00     0.044 A 
HETATM   25  F   UNL     1      29.254  52.760  37.349  1.00  0.00    -0.206 F 
HETATM   26  C   UNL     1      31.710  50.366  38.526  1.00  0.00     0.032 A 
ENDBRANCH  17  20
ENDBRANCH  15  16
ENDBRANCH   1  15
TORSDOF 3
ENDMDL
MODEL 9
REMARK VINA RESULT:      -7.6      1.656      2.012
REMARK  3 active torsions:
REMARK  status: ('A' for Active; 'I' for Inactive)
REMARK    1  A    between atoms: C_2  and  N_3 
REMARK       I    between atoms: N_3  and  C_4 
REMARK    2  A    between atoms: C_4  and  C_5 
REMARK    3  A    between atoms: C_5  and  C_6 
ROOT
HETATM    1  C   UNL     1      27.065  43.729  51.454  1.00  0.00     0.286 C 
HETATM    2  N   UNL     1      26.979  43.272  50.001  1.00  0.00    -0.056 N 
HETATM    3  H   UNL     1      27.604  43.921  49.475  1.00  0.00     0.278 HD
HETATM    4  H   UNL     1      27.378  42.334  49.880  1.00  0.00     0.278 HD
HETATM    5  C   UNL     1      25.609  43.368  49.392  1.00  0.00     0.209 C 
HETATM    6  C   UNL     1      25.064  44.806  49.579  1.00  0.00     0.115 C 
HETATM    7  N   UNL     1      25.198  45.293  50.952  1.00  0.00    -0.353 N 
HETATM    8  C   UNL     1      26.308  45.044  51.727  1.00  0.00     0.249 C 
HETATM    9  O   UNL     1      26.595  45.796  52.653  1.00  0.00    -0.271 OA
HETATM   10  C   UNL     1      24.695  42.291  49.982  1.00  0.00     0.035 C 
HETATM   11  C   UNL     1      23.272  42.427  49.448  1.00  0.00     0.002 C 
HETATM   12  C   UNL     1      22.715  43.826  49.700  1.00  0.00     0.002 C 
HETATM   13  C   UNL     1      23.612  44.908  49.098  1.00  0.00     0.027 C 
HETATM   14  H   UNL     1      24.776  46.194  51.174  1.00  0.00     0.163 HD
ENDROOT
BRANCH   1  15
HETATM   15  C   UNL     1      28.526  43.807  51.922  1.00  0.00     0.146 C 
BRANCH  15  16
HETATM   16  C   UNL     1      28.935  42.540  52.626  1.00  0.00     0.224 C 
HETATM   17  N   UNL     1      29.501  42.538  53.859  1.00  0.00    -0.327 N 
HETATM   18  H   UNL     1      29.801  41.603  54.127  1.00  0.00     0.169 HD
HETATM   19  O   UNL     1      28.697  41.458  52.070  1.00  0.00    -0.273 OA
BRANCH  17  20
HETATM   20  C   UNL     1      29.744  43.533  54.828  1.00  0.00     0.034 A 
HETATM   21  C   UNL     1      29.000  44.704  54.997  1.00  0.00     0.032 A 
HETATM   22  C   UNL     1      29.320  45.608  56.019  1.00  0.00     0.044 A 
HETATM   23  C   UNL     1      30.378  45.342  56.876  1.00  0.00     0.116 A 
HETATM   24  C   UNL     1      31.125  44.185  56.734  1.00  0.00     0.044 A 
HETATM   25  F   UNL     1      30.673  46.209  57.852  1.00  0.00    -0.206 F 
HETATM   26  C   UNL     1      30.805  43.282  55.716  1.00  0.00     0.032 A 
ENDBRANCH  17  20
ENDBRANCH  15  16
ENDBRANCH   1  15
TORSDOF 3
ENDMDL
MODEL 10
REMARK VINA RESULT:      -7.4     14.462     16.412
REMARK  3 active torsions:
REMARK  status: ('A' for Active; 'I' for Inactive)
REMARK    1  A    between atoms: C_2  and  N_3 
REMARK       I    between atoms: N_3  and  C_4 
REMARK    2  A    between atoms: C_4  and  C_5 
REMARK    3  A    between atoms: C_5  and  C_6 
ROOT
HETATM    1  C   UNL     1      30.241  51.957  40.128  1.00  0.00     0.286 C 
HETATM    2  N   UNL     1      30.129  50.707  40.995  1.00  0.00    -0.056 N 
HETATM    3  H   UNL     1      29.387  50.927  41.694  1.00  0.00     0.278 HD
HETATM    4  H   UNL     1      29.778  49.907  40.454  1.00  0.00     0.278 HD
HETATM    5  C   UNL     1      31.377  50.352  41.752  1.00  0.00     0.209 C 
HETATM    6  C   UNL     1      31.848  51.580  42.569  1.00  0.00     0.115 C 
HETATM    7  N   UNL     1      31.899  52.808  41.775  1.00  0.00    -0.353 N 
HETATM    8  C   UNL     1      30.944  53.131  40.839  1.00  0.00     0.249 C 
HETATM    9  O   UNL     1      30.757  54.303  40.528  1.00  0.00    -0.271 OA
HETATM   10  C   UNL     1      32.441  49.818  40.791  1.00  0.00     0.035 C 
HETATM   11  C   UNL     1      33.750  49.538  41.522  1.00  0.00     0.002 C 
HETATM   12  C   UNL     1      34.246  50.775  42.267  1.00  0.00     0.002 C 
HETATM   13  C   UNL     1      33.196  51.304  43.244  1.00  0.00     0.027 C 
HETATM   14  H   UNL     1      32.290  53.638  42.219  1.00  0.00     0.163 HD
ENDROOT
BRANCH   1  15
HETATM   15  C   UNL     1      28.870  52.367  39.571  1.00  0.00     0.146 C 
BRANCH  15  16
HETATM   16  C   UNL     1      27.776  52.075  40.563  1.00  0.00     0.224 C 
HETATM   17  N   UNL     1      26.883  51.066  40.392  1.00  0.00    -0.327 N 
HETATM   18  H   UNL     1      26.160  51.087  41.108  1.00  0.00     0.169 HD
HETATM   19  O   UNL     1      27.724  52.755  41.598  1.00  0.00    -0.273 OA
BRANCH  17  20
HETATM   20  C   UNL     1      26.758  50.016  39.460  1.00  0.00     0.034 A 
HETATM   21  C   UNL     1      26.303  50.142  38.145  1.00  0.00     0.032 A 
HETATM   22  C   UNL     1      26.251  49.026  37.300  1.00  0.00     0.044 A 
HETATM   23  C   UNL     1      26.658  47.783  37.764  1.00  0.00     0.116 A 
HETATM   24  C   UNL     1      27.121  47.634  39.061  1.00  0.00     0.044 A 
HETATM   25  F   UNL     1      26.611  46.724  36.948  1.00  0.00    -0.206 F 
HETATM   26  C   UNL     1      27.175  48.748  39.903  1.00  0.00     0.032 A 
ENDBRANCH  17  20
ENDBRANCH  15  16
ENDBRANCH   1  15
TORSDOF 3
ENDMDL
