MODEL 1
REMARK VINA RESULT:      -8.6      0.000      0.000
REMARK  1 active torsions:
REMARK  status: ('A' for Active; 'I' for Inactive)
REMARK    1  A    between atoms: C_6  and  N_7 
ROOT
HETATM    1  N   UNL     1      26.751  45.024  53.225  1.00  0.00    -0.320 N 
HETATM    2  C   UNL     1      25.525  44.308  53.312  1.00  0.00     0.141 C 
HETATM    3  N   UNL     1      25.155  43.699  54.403  1.00  0.00    -0.380 N 
HETATM    4  H   UNL     1      24.278  43.199  54.425  1.00  0.00     0.158 HD
HETATM    5  H   UNL     1      25.756  43.746  55.215  1.00  0.00     0.158 HD
HETATM    6  S   UNL     1      24.622  44.309  51.856  1.00  0.00    -0.086 SA
HETATM    7  C   UNL     1      26.082  44.909  50.901  1.00  0.00     0.093 C 
HETATM    8  C   UNL     1      26.934  45.706  51.919  1.00  0.00     0.121 C 
HETATM    9  C   UNL     1      25.751  45.797  49.720  1.00  0.00     0.158 C 
HETATM   10  S   UNL     1      25.766  47.461  50.334  1.00  0.00     0.147 S 
HETATM   11  O   UNL     1      24.403  47.937  50.431  1.00  0.00    -0.228 OA
HETATM   12  O   UNL     1      26.795  48.190  49.625  1.00  0.00    -0.228 OA
HETATM   13  C   UNL     1      26.361  47.122  51.967  1.00  0.00     0.167 C 
ENDROOT
BRANCH   1  14
HETATM   14  C   UNL     1      27.921  44.747  53.964  1.00  0.00     0.048 A 
HETATM   15  C   UNL     1      28.684  43.580  53.705  1.00  0.00    -0.034 A 
HETATM   16  C   UNL     1      29.809  43.286  54.497  1.00  0.00     0.015 A 
HETATM   17  C   UNL     1      28.340  42.599  52.615  1.00  0.00     0.050 C 
HETATM   18  C   UNL     1      30.212  44.134  55.528  1.00  0.00    -0.061 A 
HETATM   19  C   UNL     1      31.437  43.828  56.339  1.00  0.00     0.048 C 
HETATM   20  C   UNL     1      29.484  45.302  55.756  1.00  0.00     0.015 A 
HETATM   21  C   UNL     1      28.332  45.607  55.008  1.00  0.00    -0.034 A 
HETATM   22  C   UNL     1      27.596  46.868  55.372  1.00  0.00     0.050 C 
ENDBRANCH   1  14
TORSDOF 1
ENDMDL
MODEL 2
REMARK VINA RESULT:      -7.6     12.302     13.890
REMARK  1 active torsions:
REMARK  status: ('A' for Active; 'I' for Inactive)
REMARK    1  A    between atoms: C_6  and  N_7 
ROOT
HETATM    1  N   UNL     1      32.080  51.008  42.192  1.00  0.00    -0.320 N 
HETATM    2  C   UNL     1      31.561  49.689  42.079  1.00  0.00     0.141 C 
HETATM    3  N   UNL     1      31.935  48.726  42.873  1.00  0.00    -0.380 N 
HETATM    4  H   UNL     1      31.545  47.802  42.759  1.00  0.00     0.158 HD
HETATM    5  H   UNL     1      32.610  48.929  43.599  1.00  0.00     0.158 HD
HETATM    6  S   UNL     1      30.438  49.499  40.799  1.00  0.00    -0.086 SA
HETATM    7  C   UNL     1      30.951  51.107  40.053  1.00  0.00     0.093 C 
HETATM    8  C   UNL     1      31.458  51.962  41.240  1.00  0.00     0.121 C 
HETATM    9  C   UNL     1      29.851  51.855  39.329  1.00  0.00     0.158 C 
HETATM   10  S   UNL     1      29.105  52.921  40.534  1.00  0.00     0.147 S 
HETATM   11  O   UNL     1      27.811  52.385  40.897  1.00  0.00    -0.228 OA
HETATM   12  O   UNL     1      29.284  54.289  40.093  1.00  0.00    -0.228 OA
HETATM   13  C   UNL     1      30.231  52.624  41.867  1.00  0.00     0.167 C 
ENDROOT
BRANCH   1  14
HETATM   14  C   UNL     1      33.357  51.351  42.688  1.00  0.00     0.048 A 
HETATM   15  C   UNL     1      33.511  51.880  43.995  1.00  0.00    -0.034 A 
HETATM   16  C   UNL     1      34.782  52.278  44.447  1.00  0.00     0.015 A 
HETATM   17  C   UNL     1      32.358  52.061  44.948  1.00  0.00     0.050 C 
HETATM   18  C   UNL     1      35.912  52.145  43.641  1.00  0.00    -0.061 A 
HETATM   19  C   UNL     1      37.268  52.538  44.151  1.00  0.00     0.048 C 
HETATM   20  C   UNL     1      35.766  51.590  42.371  1.00  0.00     0.015 A 
HETATM   21  C   UNL     1      34.504  51.216  41.873  1.00  0.00    -0.034 A 
HETATM   22  C   UNL     1      34.457  50.672  40.471  1.00  0.00     0.050 C 
ENDBRANCH   1  14
TORSDOF 1
ENDMDL
MODEL 3
REMARK VINA RESULT:      -7.4      2.419      2.961
REMARK  1 active torsions:
REMARK  status: ('A' for Active; 'I' for Inactive)
REMARK    1  A    between atoms: C_6  and  N_7 
ROOT
HETATM    1  N   UNL     1      27.281  42.855  52.809  1.00  0.00    -0.320 N 
HETATM    2  C   UNL     1      27.298  41.435  52.730  1.00  0.00     0.141 C 
HETATM    3  N   UNL     1      27.470  40.685  53.782  1.00  0.00    -0.380 N 
HETATM    4  H   UNL     1      27.478  39.680  53.686  1.00  0.00     0.158 HD
HETATM    5  H   UNL     1      27.585  41.130  54.683  1.00  0.00     0.158 HD
HETATM    6  S   UNL     1      27.100  40.831  51.139  1.00  0.00    -0.086 SA
HETATM    7  C   UNL     1      27.437  42.496  50.419  1.00  0.00     0.093 C 
HETATM    8  C   UNL     1      26.992  43.506  51.506  1.00  0.00     0.121 C 
HETATM    9  C   UNL     1      26.703  42.793  49.129  1.00  0.00     0.158 C 
HETATM   10  S   UNL     1      25.175  43.563  49.595  1.00  0.00     0.147 S 
HETATM   11  O   UNL     1      24.097  42.619  49.402  1.00  0.00    -0.228 OA
HETATM   12  O   UNL     1      25.153  44.895  49.027  1.00  0.00    -0.228 OA
HETATM   13  C   UNL     1      25.488  43.714  51.331  1.00  0.00     0.167 C 
ENDROOT
BRANCH   1  14
HETATM   14  C   UNL     1      27.961  43.635  53.769  1.00  0.00     0.048 A 
HETATM   15  C   UNL     1      29.373  43.582  53.880  1.00  0.00    -0.034 A 
HETATM   16  C   UNL     1      30.028  44.315  54.887  1.00  0.00     0.015 A 
HETATM   17  C   UNL     1      30.237  42.749  52.969  1.00  0.00     0.050 C 
HETATM   18  C   UNL     1      29.315  45.120  55.776  1.00  0.00    -0.061 A 
HETATM   19  C   UNL     1      30.030  45.926  56.820  1.00  0.00     0.048 C 
HETATM   20  C   UNL     1      27.930  45.202  55.642  1.00  0.00     0.015 A 
HETATM   21  C   UNL     1      27.241  44.453  54.670  1.00  0.00    -0.034 A 
HETATM   22  C   UNL     1      25.742  44.581  54.646  1.00  0.00     0.050 C 
ENDBRANCH   1  14
TORSDOF 1
ENDMDL
MODEL 4
REMARK VINA RESULT:      -7.1     13.295     14.706
REMARK  1 active torsions:
REMARK  status: ('A' for Active; 'I' for Inactive)
REMARK    1  A    between atoms: C_6  and  N_7 
ROOT
HETATM    1  N   UNL     1      31.279  51.887  40.571  1.00  0.00    -0.320 N 
HETATM    2  C   UNL     1      30.572  53.107  40.758  1.00  0.00     0.141 C 
HETATM    3  N   UNL     1      31.184  54.251  40.873  1.00  0.00    -0.380 N 
HETATM    4  H   UNL     1      30.647  55.096  41.007  1.00  0.00     0.158 HD
HETATM    5  H   UNL     1      32.194  54.271  40.818  1.00  0.00     0.158 HD
HETATM    6  S   UNL     1      28.872  52.912  40.841  1.00  0.00    -0.086 SA
HETATM    7  C   UNL     1      29.049  51.091  41.080  1.00  0.00     0.093 C 
HETATM    8  C   UNL     1      30.382  50.718  40.385  1.00  0.00     0.121 C 
HETATM    9  C   UNL     1      27.929  50.258  40.494  1.00  0.00     0.158 C 
HETATM   10  S   UNL     1      28.427  49.852  38.841  1.00  0.00     0.147 S 
HETATM   11  O   UNL     1      27.650  50.641  37.910  1.00  0.00    -0.228 OA
HETATM   12  O   UNL     1      28.527  48.411  38.745  1.00  0.00    -0.228 OA
HETATM   13  C   UNL     1      30.069  50.511  38.903  1.00  0.00     0.167 C 
ENDROOT
BRANCH   1  14
HETATM   14  C   UNL     1      32.587  51.615  41.027  1.00  0.00     0.048 A 
HETATM   15  C   UNL     1      33.657  51.453  40.109  1.00  0.00    -0.034 A 
HETATM   16  C   UNL     1      34.940  51.115  40.578  1.00  0.00     0.015 A 
HETATM   17  C   UNL     1      33.491  51.607  38.620  1.00  0.00     0.050 C 
HETATM   18  C   UNL     1      35.195  50.956  41.940  1.00  0.00    -0.061 A 
HETATM   19  C   UNL     1      36.577  50.634  42.428  1.00  0.00     0.048 C 
HETATM   20  C   UNL     1      34.152  51.153  42.844  1.00  0.00     0.015 A 
HETATM   21  C   UNL     1      32.849  51.453  42.407  1.00  0.00    -0.034 A 
HETATM   22  C   UNL     1      31.789  51.598  43.466  1.00  0.00     0.050 C 
ENDBRANCH   1  14
TORSDOF 1
ENDMDL
MODEL 5
REMARK VINA RESULT:      -7.1     13.271     14.786
REMARK  1 active torsions:
REMARK  status: ('A' for Active; 'I' for Inactive)
REMARK    1  A    between atoms: C_6  and  N_7 
ROOT
HETATM    1  N   UNL     1      31.254  51.873  40.560  1.00  0.00    -0.320 N 
HETATM    2  C   UNL     1      30.569  53.106  40.742  1.00  0.00     0.141 C 
HETATM    3  N   UNL     1      31.201  54.239  40.863  1.00  0.00    -0.380 N 
HETATM    4  H   UNL     1      30.679  55.093  40.993  1.00  0.00     0.158 HD
HETATM    5  H   UNL     1      32.212  54.240  40.816  1.00  0.00     0.158 HD
HETATM    6  S   UNL     1      28.865  52.943  40.811  1.00  0.00    -0.086 SA
HETATM    7  C   UNL     1      29.007  51.119  41.050  1.00  0.00     0.093 C 
HETATM    8  C   UNL     1      30.338  50.722  40.365  1.00  0.00     0.121 C 
HETATM    9  C   UNL     1      27.875  50.308  40.454  1.00  0.00     0.158 C 
HETATM   10  S   UNL     1      28.380  49.894  38.805  1.00  0.00     0.147 S 
HETATM   11  O   UNL     1      27.625  50.697  37.868  1.00  0.00    -0.228 OA
HETATM   12  O   UNL     1      28.454  48.451  38.708  1.00  0.00    -0.228 OA
HETATM   13  C   UNL     1      30.033  50.522  38.881  1.00  0.00     0.167 C 
ENDROOT
BRANCH   1  14
HETATM   14  C   UNL     1      32.554  51.577  41.026  1.00  0.00     0.048 A 
HETATM   15  C   UNL     1      32.814  51.438  42.413  1.00  0.00    -0.034 A 
HETATM   16  C   UNL     1      34.128  51.209  42.863  1.00  0.00     0.015 A 
HETATM   17  C   UNL     1      31.740  51.543  43.464  1.00  0.00     0.050 C 
HETATM   18  C   UNL     1      35.189  51.092  41.967  1.00  0.00    -0.061 A 
HETATM   19  C   UNL     1      36.579  50.809  42.458  1.00  0.00     0.048 C 
HETATM   20  C   UNL     1      34.927  51.189  40.601  1.00  0.00     0.015 A 
HETATM   21  C   UNL     1      33.632  51.456  40.119  1.00  0.00    -0.034 A 
HETATM   22  C   UNL     1      33.471  51.589  38.629  1.00  0.00     0.050 C 
ENDBRANCH   1  14
TORSDOF 1
ENDMDL
MODEL 6
REMARK VINA RESULT:      -6.9     12.702     13.638
REMARK  1 active torsions:
REMARK  status: ('A' for Active; 'I' for Inactive)
REMARK    1  A    between atoms: C_6  and  N_7 
ROOT
HETATM    1  N   UNL     1      29.743  49.716  40.385  1.00  0.00    -0.320 N 
HETATM    2  C   UNL     1      29.506  50.253  39.089  1.00  0.00     0.141 C 
HETATM    3  N   UNL     1      30.414  50.924  38.440  1.00  0.00    -0.380 N 
HETATM    4  H   UNL     1      30.207  51.291  37.523  1.00  0.00     0.158 HD
HETATM    5  H   UNL     1      31.320  51.058  38.870  1.00  0.00     0.158 HD
HETATM    6  S   UNL     1      27.925  49.953  38.499  1.00  0.00    -0.086 SA
HETATM    7  C   UNL     1      27.344  49.465  40.180  1.00  0.00     0.093 C 
HETATM    8  C   UNL     1      28.601  48.922  40.904  1.00  0.00     0.121 C 
HETATM    9  C   UNL     1      26.260  48.408  40.199  1.00  0.00     0.158 C 
HETATM   10  S   UNL     1      27.095  46.846  40.291  1.00  0.00     0.147 S 
HETATM   11  O   UNL     1      27.010  46.192  39.004  1.00  0.00    -0.228 OA
HETATM   12  O   UNL     1      26.693  46.196  41.521  1.00  0.00    -0.228 OA
HETATM   13  C   UNL     1      28.744  47.453  40.507  1.00  0.00     0.167 C 
ENDROOT
BRANCH   1  14
HETATM   14  C   UNL     1      30.635  50.244  41.344  1.00  0.00     0.048 A 
HETATM   15  C   UNL     1      30.371  51.486  41.975  1.00  0.00    -0.034 A 
HETATM   16  C   UNL     1      31.305  52.028  42.878  1.00  0.00     0.015 A 
HETATM   17  C   UNL     1      29.125  52.292  41.714  1.00  0.00     0.050 C 
HETATM   18  C   UNL     1      32.486  51.356  43.189  1.00  0.00    -0.061 A 
HETATM   19  C   UNL     1      33.454  51.927  44.184  1.00  0.00     0.048 C 
HETATM   20  C   UNL     1      32.726  50.116  42.598  1.00  0.00     0.015 A 
HETATM   21  C   UNL     1      31.832  49.563  41.663  1.00  0.00    -0.034 A 
HETATM   22  C   UNL     1      32.214  48.243  41.051  1.00  0.00     0.050 C 
ENDBRANCH   1  14
TORSDOF 1
ENDMDL
MODEL 7
REMARK VINA RESULT:      -6.9      8.938     10.584
REMARK  1 active torsions:
REMARK  status: ('A' for Active; 'I' for Inactive)
REMARK    1  A    between atoms: C_6  and  N_7 
ROOT
HETATM    1  N   UNL     1      19.173  48.924  48.439  1.00  0.00    -0.320 N 
HETATM    2  C   UNL     1      18.517  48.208  49.479  1.00  0.00     0.141 C 
HETATM    3  N   UNL     1      18.951  48.217  50.707  1.00  0.00    -0.380 N 
HETATM    4  H   UNL     1      18.459  47.694  51.417  1.00  0.00     0.158 HD
HETATM    5  H   UNL     1      19.776  48.759  50.928  1.00  0.00     0.158 HD
HETATM    6  S   UNL     1      17.143  47.331  48.950  1.00  0.00    -0.086 SA
HETATM    7  C   UNL     1      17.646  47.525  47.185  1.00  0.00     0.093 C 
HETATM    8  C   UNL     1      18.464  48.839  47.138  1.00  0.00     0.121 C 
HETATM    9  C   UNL     1      16.499  47.613  46.201  1.00  0.00     0.158 C 
HETATM   10  S   UNL     1      16.120  49.338  46.037  1.00  0.00     0.147 S 
HETATM   11  O   UNL     1      14.882  49.614  46.733  1.00  0.00    -0.228 OA
HETATM   12  O   UNL     1      16.336  49.714  44.656  1.00  0.00    -0.228 OA
HETATM   13  C   UNL     1      17.461  49.983  46.997  1.00  0.00     0.167 C 
ENDROOT
BRANCH   1  14
HETATM   14  C   UNL     1      20.551  49.227  48.391  1.00  0.00     0.048 A 
HETATM   15  C   UNL     1      21.003  50.567  48.497  1.00  0.00    -0.034 A 
HETATM   16  C   UNL     1      22.375  50.857  48.379  1.00  0.00     0.015 A 
HETATM   17  C   UNL     1      20.074  51.733  48.716  1.00  0.00     0.050 C 
HETATM   18  C   UNL     1      23.315  49.846  48.181  1.00  0.00    -0.061 A 
HETATM   19  C   UNL     1      24.778  50.166  48.096  1.00  0.00     0.048 C 
HETATM   20  C   UNL     1      22.873  48.525  48.115  1.00  0.00     0.015 A 
HETATM   21  C   UNL     1      21.506  48.204  48.191  1.00  0.00    -0.034 A 
HETATM   22  C   UNL     1      21.137  46.751  48.061  1.00  0.00     0.050 C 
ENDBRANCH   1  14
TORSDOF 1
ENDMDL
MODEL 8
REMARK VINA RESULT:      -6.8     12.568     14.748
REMARK  1 active torsions:
REMARK  status: ('A' for Active; 'I' for Inactive)
REMARK    1  A    between atoms: C_6  and  N_7 
ROOT
HETATM    1  N   UNL     1      29.981  49.557  40.124  1.00  0.00    -0.320 N 
HETATM    2  C   UNL     1      30.899  48.521  39.795  1.00  0.00     0.141 C 
HETATM    3  N   UNL     1      30.793  47.824  38.700  1.00  0.00    -0.380 N 
HETATM    4  H   UNL     1      31.463  47.095  38.502  1.00  0.00     0.158 HD
HETATM    5  H   UNL     1      30.038  48.034  38.059  1.00  0.00     0.158 HD
HETATM    6  S   UNL     1      32.114  48.277  40.978  1.00  0.00    -0.086 SA
HETATM    7  C   UNL     1      31.172  49.274  42.212  1.00  0.00     0.093 C 
HETATM    8  C   UNL     1      30.335  50.272  41.375  1.00  0.00     0.121 C 
HETATM    9  C   UNL     1      32.027  50.040  43.199  1.00  0.00     0.158 C 
HETATM   10  S   UNL     1      32.307  51.635  42.475  1.00  0.00     0.147 S 
HETATM   11  O   UNL     1      33.674  51.704  42.007  1.00  0.00    -0.228 OA
HETATM   12  O   UNL     1      31.736  52.633  43.355  1.00  0.00    -0.228 OA
HETATM   13  C   UNL     1      31.240  51.467  41.073  1.00  0.00     0.167 C 
ENDROOT
BRANCH   1  14
HETATM   14  C   UNL     1      28.629  49.618  39.721  1.00  0.00     0.048 A 
HETATM   15  C   UNL     1      27.669  48.723  40.261  1.00  0.00    -0.034 A 
HETATM   16  C   UNL     1      26.341  48.754  39.798  1.00  0.00     0.015 A 
HETATM   17  C   UNL     1      28.002  47.701  41.317  1.00  0.00     0.050 C 
HETATM   18  C   UNL     1      25.934  49.668  38.826  1.00  0.00    -0.061 A 
HETATM   19  C   UNL     1      24.505  49.716  38.370  1.00  0.00     0.048 C 
HETATM   20  C   UNL     1      26.868  50.572  38.324  1.00  0.00     0.015 A 
HETATM   21  C   UNL     1      28.213  50.544  38.737  1.00  0.00    -0.034 A 
HETATM   22  C   UNL     1      29.146  51.534  38.095  1.00  0.00     0.050 C 
ENDBRANCH   1  14
TORSDOF 1
ENDMDL
MODEL 9
REMARK VINA RESULT:      -6.6     12.817     15.027
REMARK  1 active torsions:
REMARK  status: ('A' for Active; 'I' for Inactive)
REMARK    1  A    between atoms: C_6  and  N_7 
ROOT
HETATM    1  N   UNL     1      29.795  51.108  40.736  1.00  0.00    -0.320 N 
HETATM    2  C   UNL     1      29.483  52.414  41.204  1.00  0.00     0.141 C 
HETATM    3  N   UNL     1      28.304  52.721  41.665  1.00  0.00    -0.380 N 
HETATM    4  H   UNL     1      28.120  53.660  41.987  1.00  0.00     0.158 HD
HETATM    5  H   UNL     1      27.592  52.003  41.700  1.00  0.00     0.158 HD
HETATM    6  S   UNL     1      30.784  53.521  41.075  1.00  0.00    -0.086 SA
HETATM    7  C   UNL     1      31.699  52.381  39.948  1.00  0.00     0.093 C 
HETATM    8  C   UNL     1      31.215  50.960  40.330  1.00  0.00     0.121 C 
HETATM    9  C   UNL     1      33.207  52.445  40.062  1.00  0.00     0.158 C 
HETATM   10  S   UNL     1      33.663  51.234  41.275  1.00  0.00     0.147 S 
HETATM   11  O   UNL     1      34.045  51.912  42.494  1.00  0.00    -0.228 OA
HETATM   12  O   UNL     1      34.512  50.254  40.631  1.00  0.00    -0.228 OA
HETATM   13  C   UNL     1      32.068  50.503  41.514  1.00  0.00     0.167 C 
ENDROOT
BRANCH   1  14
HETATM   14  C   UNL     1      28.878  50.193  40.174  1.00  0.00     0.048 A 
HETATM   15  C   UNL     1      28.247  50.466  38.934  1.00  0.00    -0.034 A 
HETATM   16  C   UNL     1      27.285  49.574  38.423  1.00  0.00     0.015 A 
HETATM   17  C   UNL     1      28.540  51.697  38.117  1.00  0.00     0.050 C 
HETATM   18  C   UNL     1      26.949  48.404  39.104  1.00  0.00    -0.061 A 
HETATM   19  C   UNL     1      25.950  47.443  38.528  1.00  0.00     0.048 C 
HETATM   20  C   UNL     1      27.598  48.117  40.304  1.00  0.00     0.015 A 
HETATM   21  C   UNL     1      28.536  49.005  40.861  1.00  0.00    -0.034 A 
HETATM   22  C   UNL     1      29.140  48.619  42.184  1.00  0.00     0.050 C 
ENDBRANCH   1  14
TORSDOF 1
ENDMDL
MODEL 10
REMARK VINA RESULT:      -6.5     12.628     14.395
REMARK  1 active torsions:
REMARK  status: ('A' for Active; 'I' for Inactive)
REMARK    1  A    between atoms: C_6  and  N_7 
ROOT
HETATM    1  N   UNL     1      30.544  50.278  40.544  1.00  0.00    -0.320 N 
HETATM    2  C   UNL     1      29.406  50.864  41.163  1.00  0.00     0.141 C 
HETATM    3  N   UNL     1      29.370  52.122  41.497  1.00  0.00    -0.380 N 
HETATM    4  H   UNL     1      28.544  52.501  41.937  1.00  0.00     0.158 HD
HETATM    5  H   UNL     1      30.175  52.702  41.300  1.00  0.00     0.158 HD
HETATM    6  S   UNL     1      28.128  49.757  41.441  1.00  0.00    -0.086 SA
HETATM    7  C   UNL     1      29.247  48.322  41.140  1.00  0.00     0.093 C 
HETATM    8  C   UNL     1      30.339  48.854  40.179  1.00  0.00     0.121 C 
HETATM    9  C   UNL     1      28.580  47.112  40.521  1.00  0.00     0.158 C 
HETATM   10  S   UNL     1      28.740  47.304  38.765  1.00  0.00     0.147 S 
HETATM   11  O   UNL     1      27.453  47.668  38.214  1.00  0.00    -0.228 OA
HETATM   12  O   UNL     1      29.514  46.190  38.261  1.00  0.00    -0.228 OA
HETATM   13  C   UNL     1      29.779  48.738  38.761  1.00  0.00     0.167 C 
ENDROOT
BRANCH   1  14
HETATM   14  C   UNL     1      31.881  50.703  40.707  1.00  0.00     0.048 A 
HETATM   15  C   UNL     1      32.594  51.285  39.628  1.00  0.00    -0.034 A 
HETATM   16  C   UNL     1      33.946  51.641  39.790  1.00  0.00     0.015 A 
HETATM   17  C   UNL     1      31.978  51.536  38.276  1.00  0.00     0.050 C 
HETATM   18  C   UNL     1      34.604  51.454  41.005  1.00  0.00    -0.061 A 
HETATM   19  C   UNL     1      36.034  51.874  41.175  1.00  0.00     0.048 C 
HETATM   20  C   UNL     1      33.891  50.917  42.076  1.00  0.00     0.015 A 
HETATM   21  C   UNL     1      32.550  50.515  41.938  1.00  0.00    -0.034 A 
HETATM   22  C   UNL     1      31.892  49.904  43.145  1.00  0.00     0.050 C 
ENDBRANCH   1  14
TORSDOF 1
ENDMDL
