MODEL 1
REMARK VINA RESULT:      -9.5      0.000      0.000
REMARK  8 active torsions:
REMARK  status: ('A' for Active; 'I' for Inactive)
REMARK    1  A    between atoms: C_5  and  O_6 
REMARK    2  A    between atoms: O_6  and  C_7 
REMARK    3  A    between atoms: C_7  and  C_8 
REMARK    4  A    between atoms: C_12  and  S_13 
REMARK    5  A    between atoms: S_13  and  C_14 
REMARK    6  A    between atoms: C_14  and  C_15 
REMARK       I    between atoms: C_15  and  N_16 
REMARK    7  A    between atoms: N_16  and  C_17 
REMARK    8  A    between atoms: C_20  and  C_21 
REMARK       I    between atoms: C_21  and  N_22 
ROOT
HETATM    1  S   UNL     1      24.829  47.556  49.878  1.00  0.00    -0.081 SA
ENDROOT
BRANCH   1   2
HETATM    2  C   UNL     1      25.004  46.427  51.161  1.00  0.00     0.185 A 
HETATM    3  N   UNL     1      24.270  45.288  51.237  1.00  0.00    -0.254 N 
HETATM    4  N   UNL     1      24.631  44.556  52.307  1.00  0.00    -0.155 NA
HETATM    5  H   UNL     1      23.540  44.956  50.617  1.00  0.00     0.191 HD
HETATM    6  C   UNL     1      25.628  45.300  52.817  1.00  0.00     0.172 A 
HETATM    7  N   UNL     1      25.861  46.479  52.145  1.00  0.00    -0.204 NA
BRANCH   6   8
HETATM    8  C   UNL     1      26.434  44.900  54.013  1.00  0.00     0.258 C 
BRANCH   8   9
HETATM    9  O   UNL     1      27.676  45.611  54.060  1.00  0.00    -0.344 OA
BRANCH   9  10
HETATM   10  C   UNL     1      28.719  45.002  54.701  1.00  0.00     0.069 A 
HETATM   11  C   UNL     1      29.274  45.746  55.743  1.00  0.00     0.037 A 
HETATM   12  C   UNL     1      30.340  45.241  56.493  1.00  0.00     0.009 A 
HETATM   13  C   UNL     1      30.869  43.980  56.204  1.00  0.00    -0.062 A 
HETATM   14  C   UNL     1      31.988  43.414  57.027  1.00  0.00     0.048 C 
HETATM   15  C   UNL     1      30.300  43.229  55.170  1.00  0.00     0.009 A 
HETATM   16  C   UNL     1      29.235  43.738  54.418  1.00  0.00     0.037 A 
ENDBRANCH   9  10
ENDBRANCH   8   9
ENDBRANCH   6   8
ENDBRANCH   1   2
BRANCH   1  17
HETATM   17  C   UNL     1      23.440  46.820  48.963  1.00  0.00     0.185 C 
BRANCH  17  18
HETATM   18  C   UNL     1      22.301  47.760  48.572  1.00  0.00     0.231 C 
HETATM   19  N   UNL     1      21.834  48.594  49.566  1.00  0.00    -0.327 N 
HETATM   20  H   UNL     1      22.218  48.423  50.488  1.00  0.00     0.169 HD
HETATM   21  O   UNL     1      21.909  47.758  47.404  1.00  0.00    -0.272 OA
BRANCH  19  22
HETATM   22  C   UNL     1      20.782  49.525  49.499  1.00  0.00     0.034 A 
HETATM   23  C   UNL     1      20.928  50.844  49.064  1.00  0.00     0.030 A 
HETATM   24  C   UNL     1      19.823  51.705  49.010  1.00  0.00     0.019 A 
HETATM   25  C   UNL     1      18.556  51.250  49.388  1.00  0.00     0.032 A 
HETATM   26  C   UNL     1      18.409  49.937  49.843  1.00  0.00     0.019 A 
HETATM   27  C   UNL     1      19.514  49.081  49.893  1.00  0.00     0.030 A 
BRANCH  25  28
HETATM   28  C   UNL     1      17.353  52.122  49.343  1.00  0.00     0.249 C 
HETATM   29  N   UNL     1      17.130  52.836  48.199  1.00  0.00    -0.366 N 
HETATM   30  H   UNL     1      17.604  52.633  47.331  1.00  0.00     0.159 HD
HETATM   31  H   UNL     1      16.250  53.334  48.147  1.00  0.00     0.159 HD
HETATM   32  O   UNL     1      16.565  52.179  50.280  1.00  0.00    -0.268 OA
ENDBRANCH  25  28
ENDBRANCH  19  22
ENDBRANCH  17  18
ENDBRANCH   1  17
TORSDOF 8
ENDMDL
MODEL 2
REMARK VINA RESULT:      -9.4      3.006     11.577
REMARK  8 active torsions:
REMARK  status: ('A' for Active; 'I' for Inactive)
REMARK    1  A    between atoms: C_5  and  O_6 
REMARK    2  A    between atoms: O_6  and  C_7 
REMARK    3  A    between atoms: C_7  and  C_8 
REMARK    4  A    between atoms: C_12  and  S_13 
REMARK    5  A    between atoms: S_13  and  C_14 
REMARK    6  A    between atoms: C_14  and  C_15 
REMARK       I    between atoms: C_15  and  N_16 
REMARK    7  A    between atoms: N_16  and  C_17 
REMARK    8  A    between atoms: C_20  and  C_21 
REMARK       I    between atoms: C_21  and  N_22 
ROOT
HETATM    1  S   UNL     1      24.646  45.324  51.169  1.00  0.00    -0.081 SA
ENDROOT
BRANCH   1   2
HETATM    2  C   UNL     1      25.319  46.656  50.319  1.00  0.00     0.185 A 
HETATM    3  N   UNL     1      26.592  46.654  49.848  1.00  0.00    -0.254 N 
HETATM    4  N   UNL     1      26.857  47.792  49.180  1.00  0.00    -0.155 NA
HETATM    5  H   UNL     1      27.304  45.939  49.936  1.00  0.00     0.191 HD
HETATM    6  C   UNL     1      25.674  48.427  49.252  1.00  0.00     0.172 A 
HETATM    7  N   UNL     1      24.712  47.761  49.977  1.00  0.00    -0.204 NA
BRANCH   6   8
HETATM    8  C   UNL     1      25.401  49.749  48.604  1.00  0.00     0.258 C 
BRANCH   8   9
HETATM    9  O   UNL     1      24.251  49.678  47.753  1.00  0.00    -0.344 OA
BRANCH   9  10
HETATM   10  C   UNL     1      23.084  50.197  48.240  1.00  0.00     0.069 A 
HETATM   11  C   UNL     1      22.013  50.159  47.344  1.00  0.00     0.037 A 
HETATM   12  C   UNL     1      20.756  50.645  47.712  1.00  0.00     0.009 A 
HETATM   13  C   UNL     1      20.554  51.183  48.986  1.00  0.00    -0.062 A 
HETATM   14  C   UNL     1      19.199  51.672  49.404  1.00  0.00     0.048 C 
HETATM   15  C   UNL     1      21.624  51.204  49.888  1.00  0.00     0.009 A 
HETATM   16  C   UNL     1      22.883  50.719  49.517  1.00  0.00     0.037 A 
ENDBRANCH   9  10
ENDBRANCH   8   9
ENDBRANCH   6   8
ENDBRANCH   1   2
BRANCH   1  17
HETATM   17  C   UNL     1      26.122  44.286  51.401  1.00  0.00     0.185 C 
BRANCH  17  18
HETATM   18  C   UNL     1      26.717  44.243  52.807  1.00  0.00     0.231 C 
HETATM   19  N   UNL     1      28.077  44.451  52.897  1.00  0.00    -0.327 N 
HETATM   20  H   UNL     1      28.566  44.502  52.010  1.00  0.00     0.169 HD
HETATM   21  O   UNL     1      25.958  44.083  53.764  1.00  0.00    -0.272 OA
BRANCH  19  22
HETATM   22  C   UNL     1      28.888  44.431  54.047  1.00  0.00     0.034 A 
HETATM   23  C   UNL     1      28.886  45.427  55.026  1.00  0.00     0.030 A 
HETATM   24  C   UNL     1      29.711  45.323  56.153  1.00  0.00     0.019 A 
HETATM   25  C   UNL     1      30.548  44.214  56.313  1.00  0.00     0.032 A 
HETATM   26  C   UNL     1      30.569  43.224  55.327  1.00  0.00     0.019 A 
HETATM   27  C   UNL     1      29.741  43.331  54.204  1.00  0.00     0.030 A 
BRANCH  25  28
HETATM   28  C   UNL     1      31.439  44.054  57.493  1.00  0.00     0.249 C 
HETATM   29  N   UNL     1      31.328  44.972  58.500  1.00  0.00    -0.366 N 
HETATM   30  H   UNL     1      30.540  45.600  58.579  1.00  0.00     0.159 HD
HETATM   31  H   UNL     1      31.861  44.782  59.339  1.00  0.00     0.159 HD
HETATM   32  O   UNL     1      32.223  43.117  57.584  1.00  0.00    -0.268 OA
ENDBRANCH  25  28
ENDBRANCH  19  22
ENDBRANCH  17  18
ENDBRANCH   1  17
TORSDOF 8
ENDMDL
MODEL 3
REMARK VINA RESULT:      -9.1      1.574      1.853
REMARK  8 active torsions:
REMARK  status: ('A' for Active; 'I' for Inactive)
REMARK    1  A    between atoms: C_5  and  O_6 
REMARK    2  A    between atoms: O_6  and  C_7 
REMARK    3  A    between atoms: C_7  and  C_8 
REMARK    4  A    between atoms: C_12  and  S_13 
REMARK    5  A    between atoms: S_13  and  C_14 
REMARK    6  A    between atoms: C_14  and  C_15 
REMARK       I    between atoms: C_15  and  N_16 
REMARK    7  A    between atoms: N_16  and  C_17 
REMARK    8  A    between atoms: C_20  and  C_21 
REMARK       I    between atoms: C_21  and  N_22 
ROOT
HETATM    1  S   UNL     1      23.518  45.109  49.593  1.00  0.00    -0.081 SA
ENDROOT
BRANCH   1   2
HETATM    2  C   UNL     1      25.076  44.458  49.908  1.00  0.00     0.185 A 
HETATM    3  N   UNL     1      25.818  43.844  48.951  1.00  0.00    -0.254 N 
HETATM    4  N   UNL     1      27.013  43.467  49.440  1.00  0.00    -0.155 NA
HETATM    5  H   UNL     1      25.584  43.658  47.983  1.00  0.00     0.191 HD
HETATM    6  C   UNL     1      26.944  43.927  50.703  1.00  0.00     0.172 A 
HETATM    7  N   UNL     1      25.744  44.518  51.029  1.00  0.00    -0.204 NA
BRANCH   6   8
HETATM    8  C   UNL     1      28.065  43.818  51.689  1.00  0.00     0.258 C 
BRANCH   8   9
HETATM    9  O   UNL     1      27.720  44.437  52.933  1.00  0.00    -0.344 OA
BRANCH   9  10
HETATM   10  C   UNL     1      28.633  44.350  53.946  1.00  0.00     0.069 A 
HETATM   11  C   UNL     1      29.448  43.218  53.897  1.00  0.00     0.037 A 
HETATM   12  C   UNL     1      30.434  43.005  54.864  1.00  0.00     0.009 A 
HETATM   13  C   UNL     1      30.614  43.925  55.901  1.00  0.00    -0.062 A 
HETATM   14  C   UNL     1      31.695  43.724  56.921  1.00  0.00     0.048 C 
HETATM   15  C   UNL     1      29.807  45.067  55.938  1.00  0.00     0.009 A 
HETATM   16  C   UNL     1      28.818  45.277  54.971  1.00  0.00     0.037 A 
ENDBRANCH   9  10
ENDBRANCH   8   9
ENDBRANCH   6   8
ENDBRANCH   1   2
BRANCH   1  17
HETATM   17  C   UNL     1      23.919  46.872  49.393  1.00  0.00     0.185 C 
BRANCH  17  18
HETATM   18  C   UNL     1      22.822  47.764  48.816  1.00  0.00     0.231 C 
HETATM   19  N   UNL     1      22.339  48.749  49.651  1.00  0.00    -0.327 N 
HETATM   20  H   UNL     1      22.683  48.715  50.604  1.00  0.00     0.169 HD
HETATM   21  O   UNL     1      22.475  47.591  47.647  1.00  0.00    -0.272 OA
BRANCH  19  22
HETATM   22  C   UNL     1      21.315  49.681  49.399  1.00  0.00     0.034 A 
HETATM   23  C   UNL     1      21.522  50.941  48.835  1.00  0.00     0.030 A 
HETATM   24  C   UNL     1      20.443  51.804  48.599  1.00  0.00     0.019 A 
HETATM   25  C   UNL     1      19.141  51.410  48.924  1.00  0.00     0.032 A 
HETATM   26  C   UNL     1      18.931  50.158  49.507  1.00  0.00     0.019 A 
HETATM   27  C   UNL     1      20.011  49.299  49.739  1.00  0.00     0.030 A 
BRANCH  25  28
HETATM   28  C   UNL     1      17.963  52.287  48.688  1.00  0.00     0.249 C 
HETATM   29  N   UNL     1      17.630  52.565  47.392  1.00  0.00    -0.366 N 
HETATM   30  H   UNL     1      17.996  52.039  46.612  1.00  0.00     0.159 HD
HETATM   31  H   UNL     1      16.763  53.069  47.252  1.00  0.00     0.159 HD
HETATM   32  O   UNL     1      17.290  52.721  49.615  1.00  0.00    -0.268 OA
ENDBRANCH  25  28
ENDBRANCH  19  22
ENDBRANCH  17  18
ENDBRANCH   1  17
TORSDOF 8
ENDMDL
MODEL 4
REMARK VINA RESULT:      -8.7      5.486      9.195
REMARK  8 active torsions:
REMARK  status: ('A' for Active; 'I' for Inactive)
REMARK    1  A    between atoms: C_5  and  O_6 
REMARK    2  A    between atoms: O_6  and  C_7 
REMARK    3  A    between atoms: C_7  and  C_8 
REMARK    4  A    between atoms: C_12  and  S_13 
REMARK    5  A    between atoms: S_13  and  C_14 
REMARK    6  A    between atoms: C_14  and  C_15 
REMARK       I    between atoms: C_15  and  N_16 
REMARK    7  A    between atoms: N_16  and  C_17 
REMARK    8  A    between atoms: C_20  and  C_21 
REMARK       I    between atoms: C_21  and  N_22 
ROOT
HETATM    1  S   UNL     1      23.393  44.874  49.326  1.00  0.00    -0.081 SA
ENDROOT
BRANCH   1   2
HETATM    2  C   UNL     1      24.685  45.038  50.445  1.00  0.00     0.185 A 
HETATM    3  N   UNL     1      25.447  46.158  50.523  1.00  0.00    -0.254 N 
HETATM    4  N   UNL     1      26.356  46.052  51.509  1.00  0.00    -0.155 NA
HETATM    5  H   UNL     1      25.402  47.001  49.961  1.00  0.00     0.191 HD
HETATM    6  C   UNL     1      26.058  44.844  52.020  1.00  0.00     0.172 A 
HETATM    7  N   UNL     1      25.047  44.181  51.362  1.00  0.00    -0.204 NA
BRANCH   6   8
HETATM    8  C   UNL     1      26.751  44.251  53.207  1.00  0.00     0.258 C 
BRANCH   8   9
HETATM    9  O   UNL     1      27.639  45.197  53.812  1.00  0.00    -0.344 OA
BRANCH   9  10
HETATM   10  C   UNL     1      28.694  44.695  54.522  1.00  0.00     0.069 A 
HETATM   11  C   UNL     1      29.111  45.496  55.587  1.00  0.00     0.037 A 
HETATM   12  C   UNL     1      30.173  45.102  56.405  1.00  0.00     0.009 A 
HETATM   13  C   UNL     1      30.838  43.897  56.163  1.00  0.00    -0.062 A 
HETATM   14  C   UNL     1      31.954  43.446  57.058  1.00  0.00     0.048 C 
HETATM   15  C   UNL     1      30.408  43.088  55.105  1.00  0.00     0.009 A 
HETATM   16  C   UNL     1      29.346  43.486  54.285  1.00  0.00     0.037 A 
ENDBRANCH   9  10
ENDBRANCH   8   9
ENDBRANCH   6   8
ENDBRANCH   1   2
BRANCH   1  17
HETATM   17  C   UNL     1      24.154  43.787  48.082  1.00  0.00     0.185 C 
BRANCH  17  18
HETATM   18  C   UNL     1      24.806  42.506  48.597  1.00  0.00     0.231 C 
HETATM   19  N   UNL     1      26.185  42.499  48.633  1.00  0.00    -0.327 N 
HETATM   20  H   UNL     1      26.632  43.304  48.210  1.00  0.00     0.169 HD
HETATM   21  O   UNL     1      24.081  41.592  48.993  1.00  0.00    -0.272 OA
BRANCH  19  22
HETATM   22  C   UNL     1      27.041  41.453  49.023  1.00  0.00     0.034 A 
HETATM   23  C   UNL     1      27.404  41.188  50.345  1.00  0.00     0.030 A 
HETATM   24  C   UNL     1      28.249  40.112  50.653  1.00  0.00     0.019 A 
HETATM   25  C   UNL     1      28.738  39.287  49.635  1.00  0.00     0.032 A 
HETATM   26  C   UNL     1      28.393  39.561  48.308  1.00  0.00     0.019 A 
HETATM   27  C   UNL     1      27.548  40.633  48.007  1.00  0.00     0.030 A 
BRANCH  25  28
HETATM   28  C   UNL     1      29.632  38.131  49.909  1.00  0.00     0.249 C 
HETATM   29  N   UNL     1      29.095  37.056  50.560  1.00  0.00    -0.366 N 
HETATM   30  H   UNL     1      28.099  36.921  50.658  1.00  0.00     0.159 HD
HETATM   31  H   UNL     1      29.688  36.239  50.637  1.00  0.00     0.159 HD
HETATM   32  O   UNL     1      30.800  38.121  49.540  1.00  0.00    -0.268 OA
ENDBRANCH  25  28
ENDBRANCH  19  22
ENDBRANCH  17  18
ENDBRANCH   1  17
TORSDOF 8
ENDMDL
MODEL 5
REMARK VINA RESULT:      -8.6      1.517      2.142
REMARK  8 active torsions:
REMARK  status: ('A' for Active; 'I' for Inactive)
REMARK    1  A    between atoms: C_5  and  O_6 
REMARK    2  A    between atoms: O_6  and  C_7 
REMARK    3  A    between atoms: C_7  and  C_8 
REMARK    4  A    between atoms: C_12  and  S_13 
REMARK    5  A    between atoms: S_13  and  C_14 
REMARK    6  A    between atoms: C_14  and  C_15 
REMARK       I    between atoms: C_15  and  N_16 
REMARK    7  A    between atoms: N_16  and  C_17 
REMARK    8  A    between atoms: C_20  and  C_21 
REMARK       I    between atoms: C_21  and  N_22 
ROOT
HETATM    1  S   UNL     1      23.289  45.560  48.457  1.00  0.00    -0.081 SA
ENDROOT
BRANCH   1   2
HETATM    2  C   UNL     1      24.153  44.863  49.769  1.00  0.00     0.185 A 
HETATM    3  N   UNL     1      23.690  44.889  51.044  1.00  0.00    -0.254 N 
HETATM    4  N   UNL     1      24.527  44.236  51.871  1.00  0.00    -0.155 NA
HETATM    5  H   UNL     1      22.844  45.312  51.408  1.00  0.00     0.191 HD
HETATM    6  C   UNL     1      25.466  43.800  51.012  1.00  0.00     0.172 A 
HETATM    7  N   UNL     1      25.276  44.199  49.708  1.00  0.00    -0.204 NA
BRANCH   6   8
HETATM    8  C   UNL     1      26.629  42.949  51.416  1.00  0.00     0.258 C 
BRANCH   8   9
HETATM    9  O   UNL     1      27.838  43.715  51.462  1.00  0.00    -0.344 OA
BRANCH   9  10
HETATM   10  C   UNL     1      28.526  43.722  52.643  1.00  0.00     0.069 A 
HETATM   11  C   UNL     1      29.692  42.954  52.640  1.00  0.00     0.037 A 
HETATM   12  C   UNL     1      30.500  42.878  53.777  1.00  0.00     0.009 A 
HETATM   13  C   UNL     1      30.148  43.570  54.940  1.00  0.00    -0.062 A 
HETATM   14  C   UNL     1      31.029  43.526  56.152  1.00  0.00     0.048 C 
HETATM   15  C   UNL     1      28.988  44.352  54.935  1.00  0.00     0.009 A 
HETATM   16  C   UNL     1      28.178  44.424  53.796  1.00  0.00     0.037 A 
ENDBRANCH   9  10
ENDBRANCH   8   9
ENDBRANCH   6   8
ENDBRANCH   1   2
BRANCH   1  17
HETATM   17  C   UNL     1      23.129  47.280  49.028  1.00  0.00     0.185 C 
BRANCH  17  18
HETATM   18  C   UNL     1      21.832  48.003  48.673  1.00  0.00     0.231 C 
HETATM   19  N   UNL     1      21.334  48.861  49.631  1.00  0.00    -0.327 N 
HETATM   20  H   UNL     1      21.818  48.843  50.520  1.00  0.00     0.169 HD
HETATM   21  O   UNL     1      21.344  47.824  47.556  1.00  0.00    -0.272 OA
BRANCH  19  22
HETATM   22  C   UNL     1      20.150  49.621  49.588  1.00  0.00     0.034 A 
HETATM   23  C   UNL     1      18.867  49.074  49.526  1.00  0.00     0.030 A 
HETATM   24  C   UNL     1      17.737  49.903  49.506  1.00  0.00     0.019 A 
HETATM   25  C   UNL     1      17.882  51.293  49.551  1.00  0.00     0.032 A 
HETATM   26  C   UNL     1      19.165  51.846  49.593  1.00  0.00     0.019 A 
HETATM   27  C   UNL     1      20.290  51.015  49.616  1.00  0.00     0.030 A 
BRANCH  25  28
HETATM   28  C   UNL     1      16.715  52.214  49.538  1.00  0.00     0.249 C 
HETATM   29  N   UNL     1      16.968  53.556  49.478  1.00  0.00    -0.366 N 
HETATM   30  H   UNL     1      17.872  53.928  49.223  1.00  0.00     0.159 HD
HETATM   31  H   UNL     1      16.163  54.158  49.357  1.00  0.00     0.159 HD
HETATM   32  O   UNL     1      15.564  51.794  49.546  1.00  0.00    -0.268 OA
ENDBRANCH  25  28
ENDBRANCH  19  22
ENDBRANCH  17  18
ENDBRANCH   1  17
TORSDOF 8
ENDMDL
MODEL 6
REMARK VINA RESULT:      -8.2     12.398     13.654
REMARK  8 active torsions:
REMARK  status: ('A' for Active; 'I' for Inactive)
REMARK    1  A    between atoms: C_5  and  O_6 
REMARK    2  A    between atoms: O_6  and  C_7 
REMARK    3  A    between atoms: C_7  and  C_8 
REMARK    4  A    between atoms: C_12  and  S_13 
REMARK    5  A    between atoms: S_13  and  C_14 
REMARK    6  A    between atoms: C_14  and  C_15 
REMARK       I    between atoms: C_15  and  N_16 
REMARK    7  A    between atoms: N_16  and  C_17 
REMARK    8  A    between atoms: C_20  and  C_21 
REMARK       I    between atoms: C_21  and  N_22 
ROOT
HETATM    1  S   UNL     1      25.092  46.382  38.682  1.00  0.00    -0.081 SA
ENDROOT
BRANCH   1   2
HETATM    2  C   UNL     1      26.732  46.136  39.128  1.00  0.00     0.185 A 
HETATM    3  N   UNL     1      27.141  45.058  39.844  1.00  0.00    -0.254 N 
HETATM    4  N   UNL     1      28.474  45.076  40.020  1.00  0.00    -0.155 NA
HETATM    5  H   UNL     1      26.588  44.299  40.226  1.00  0.00     0.191 HD
HETATM    6  C   UNL     1      28.819  46.185  39.340  1.00  0.00     0.172 A 
HETATM    7  N   UNL     1      27.757  46.877  38.803  1.00  0.00    -0.204 NA
BRANCH   6   8
HETATM    8  C   UNL     1      30.232  46.647  39.167  1.00  0.00     0.258 C 
BRANCH   8   9
HETATM    9  O   UNL     1      30.291  48.063  38.968  1.00  0.00    -0.344 OA
BRANCH   9  10
HETATM   10  C   UNL     1      30.771  48.817  40.003  1.00  0.00     0.069 A 
HETATM   11  C   UNL     1      30.331  48.418  41.266  1.00  0.00     0.037 A 
HETATM   12  C   UNL     1      30.750  49.092  42.415  1.00  0.00     0.009 A 
HETATM   13  C   UNL     1      31.617  50.184  42.315  1.00  0.00    -0.062 A 
HETATM   14  C   UNL     1      32.103  50.890  43.545  1.00  0.00     0.048 C 
HETATM   15  C   UNL     1      32.071  50.572  41.049  1.00  0.00     0.009 A 
HETATM   16  C   UNL     1      31.646  49.898  39.899  1.00  0.00     0.037 A 
ENDBRANCH   9  10
ENDBRANCH   8   9
ENDBRANCH   6   8
ENDBRANCH   1   2
BRANCH   1  17
HETATM   17  C   UNL     1      24.656  47.791  39.746  1.00  0.00     0.185 C 
BRANCH  17  18
HETATM   18  C   UNL     1      25.368  49.112  39.462  1.00  0.00     0.231 C 
HETATM   19  N   UNL     1      26.547  49.325  40.144  1.00  0.00    -0.327 N 
HETATM   20  H   UNL     1      26.769  48.633  40.850  1.00  0.00     0.169 HD
HETATM   21  O   UNL     1      24.889  49.871  38.618  1.00  0.00    -0.272 OA
BRANCH  19  22
HETATM   22  C   UNL     1      27.385  50.455  40.105  1.00  0.00     0.034 A 
HETATM   23  C   UNL     1      27.932  50.986  38.935  1.00  0.00     0.030 A 
HETATM   24  C   UNL     1      28.744  52.128  38.980  1.00  0.00     0.019 A 
HETATM   25  C   UNL     1      29.013  52.753  40.202  1.00  0.00     0.032 A 
HETATM   26  C   UNL     1      28.485  52.213  41.378  1.00  0.00     0.019 A 
HETATM   27  C   UNL     1      27.673  51.075  41.328  1.00  0.00     0.030 A 
BRANCH  25  28
HETATM   28  C   UNL     1      29.863  53.969  40.302  1.00  0.00     0.249 C 
HETATM   29  N   UNL     1      31.081  53.842  40.909  1.00  0.00    -0.366 N 
HETATM   30  H   UNL     1      31.511  52.945  41.084  1.00  0.00     0.159 HD
HETATM   31  H   UNL     1      31.688  54.651  40.866  1.00  0.00     0.159 HD
HETATM   32  O   UNL     1      29.507  55.042  39.830  1.00  0.00    -0.268 OA
ENDBRANCH  25  28
ENDBRANCH  19  22
ENDBRANCH  17  18
ENDBRANCH   1  17
TORSDOF 8
ENDMDL
MODEL 7
REMARK VINA RESULT:      -8.2      2.360      3.312
REMARK  8 active torsions:
REMARK  status: ('A' for Active; 'I' for Inactive)
REMARK    1  A    between atoms: C_5  and  O_6 
REMARK    2  A    between atoms: O_6  and  C_7 
REMARK    3  A    between atoms: C_7  and  C_8 
REMARK    4  A    between atoms: C_12  and  S_13 
REMARK    5  A    between atoms: S_13  and  C_14 
REMARK    6  A    between atoms: C_14  and  C_15 
REMARK       I    between atoms: C_15  and  N_16 
REMARK    7  A    between atoms: N_16  and  C_17 
REMARK    8  A    between atoms: C_20  and  C_21 
REMARK       I    between atoms: C_21  and  N_22 
ROOT
HETATM    1  S   UNL     1      24.000  50.397  48.088  1.00  0.00    -0.081 SA
ENDROOT
BRANCH   1   2
HETATM    2  C   UNL     1      24.781  49.165  48.996  1.00  0.00     0.185 A 
HETATM    3  N   UNL     1      26.120  48.955  48.941  1.00  0.00    -0.254 N 
HETATM    4  N   UNL     1      26.485  47.967  49.778  1.00  0.00    -0.155 NA
HETATM    5  H   UNL     1      26.819  49.431  48.382  1.00  0.00     0.191 HD
HETATM    6  C   UNL     1      25.308  47.648  50.345  1.00  0.00     0.172 A 
HETATM    7  N   UNL     1      24.231  48.353  49.858  1.00  0.00    -0.204 NA
BRANCH   6   8
HETATM    8  C   UNL     1      25.157  46.616  51.419  1.00  0.00     0.258 C 
BRANCH   8   9
HETATM    9  O   UNL     1      25.214  47.214  52.720  1.00  0.00    -0.344 OA
BRANCH   9  10
HETATM   10  C   UNL     1      26.230  46.816  53.543  1.00  0.00     0.069 A 
HETATM   11  C   UNL     1      26.555  47.730  54.547  1.00  0.00     0.037 A 
HETATM   12  C   UNL     1      27.567  47.450  55.468  1.00  0.00     0.009 A 
HETATM   13  C   UNL     1      28.275  46.247  55.393  1.00  0.00    -0.062 A 
HETATM   14  C   UNL     1      29.337  45.921  56.400  1.00  0.00     0.048 C 
HETATM   15  C   UNL     1      27.936  45.325  54.397  1.00  0.00     0.009 A 
HETATM   16  C   UNL     1      26.923  45.609  53.473  1.00  0.00     0.037 A 
ENDBRANCH   9  10
ENDBRANCH   8   9
ENDBRANCH   6   8
ENDBRANCH   1   2
BRANCH   1  17
HETATM   17  C   UNL     1      22.452  49.557  47.633  1.00  0.00     0.185 C 
BRANCH  17  18
HETATM   18  C   UNL     1      21.185  50.021  48.348  1.00  0.00     0.231 C 
HETATM   19  N   UNL     1      20.194  50.548  47.547  1.00  0.00    -0.327 N 
HETATM   20  H   UNL     1      20.448  50.678  46.574  1.00  0.00     0.169 HD
HETATM   21  O   UNL     1      21.099  49.852  49.565  1.00  0.00    -0.272 OA
BRANCH  19  22
HETATM   22  C   UNL     1      18.950  51.080  47.935  1.00  0.00     0.034 A 
HETATM   23  C   UNL     1      17.716  50.570  47.526  1.00  0.00     0.030 A 
HETATM   24  C   UNL     1      16.520  51.147  47.974  1.00  0.00     0.019 A 
HETATM   25  C   UNL     1      16.549  52.244  48.841  1.00  0.00     0.032 A 
HETATM   26  C   UNL     1      17.781  52.771  49.236  1.00  0.00     0.019 A 
HETATM   27  C   UNL     1      18.972  52.190  48.789  1.00  0.00     0.030 A 
BRANCH  25  28
HETATM   28  C   UNL     1      15.309  52.889  49.348  1.00  0.00     0.249 C 
HETATM   29  N   UNL     1      14.926  54.067  48.771  1.00  0.00    -0.366 N 
HETATM   30  H   UNL     1      15.309  54.393  47.895  1.00  0.00     0.159 HD
HETATM   31  H   UNL     1      14.024  54.430  49.052  1.00  0.00     0.159 HD
HETATM   32  O   UNL     1      14.630  52.373  50.227  1.00  0.00    -0.268 OA
ENDBRANCH  25  28
ENDBRANCH  19  22
ENDBRANCH  17  18
ENDBRANCH   1  17
TORSDOF 8
ENDMDL
MODEL 8
REMARK VINA RESULT:      -8.2      2.414     11.359
REMARK  8 active torsions:
REMARK  status: ('A' for Active; 'I' for Inactive)
REMARK    1  A    between atoms: C_5  and  O_6 
REMARK    2  A    between atoms: O_6  and  C_7 
REMARK    3  A    between atoms: C_7  and  C_8 
REMARK    4  A    between atoms: C_12  and  S_13 
REMARK    5  A    between atoms: S_13  and  C_14 
REMARK    6  A    between atoms: C_14  and  C_15 
REMARK       I    between atoms: C_15  and  N_16 
REMARK    7  A    between atoms: N_16  and  C_17 
REMARK    8  A    between atoms: C_20  and  C_21 
REMARK       I    between atoms: C_21  and  N_22 
ROOT
HETATM    1  S   UNL     1      23.893  44.943  49.095  1.00  0.00    -0.081 SA
ENDROOT
BRANCH   1   2
HETATM    2  C   UNL     1      23.710  46.644  49.256  1.00  0.00     0.185 A 
HETATM    3  N   UNL     1      24.495  47.388  50.076  1.00  0.00    -0.254 N 
HETATM    4  N   UNL     1      24.181  48.693  49.985  1.00  0.00    -0.155 NA
HETATM    5  H   UNL     1      25.238  47.086  50.696  1.00  0.00     0.191 HD
HETATM    6  C   UNL     1      23.214  48.671  49.050  1.00  0.00     0.172 A 
HETATM    7  N   UNL     1      22.881  47.413  48.603  1.00  0.00    -0.204 NA
BRANCH   6   8
HETATM    8  C   UNL     1      22.542  49.901  48.523  1.00  0.00     0.258 C 
BRANCH   8   9
HETATM    9  O   UNL     1      21.238  49.598  48.016  1.00  0.00    -0.344 OA
BRANCH   9  10
HETATM   10  C   UNL     1      20.209  50.400  48.425  1.00  0.00     0.069 A 
HETATM   11  C   UNL     1      19.386  49.836  49.401  1.00  0.00     0.037 A 
HETATM   12  C   UNL     1      18.301  50.548  49.920  1.00  0.00     0.009 A 
HETATM   13  C   UNL     1      18.022  51.838  49.462  1.00  0.00    -0.062 A 
HETATM   14  C   UNL     1      16.883  52.625  50.040  1.00  0.00     0.048 C 
HETATM   15  C   UNL     1      18.858  52.408  48.496  1.00  0.00     0.009 A 
HETATM   16  C   UNL     1      19.942  51.692  47.975  1.00  0.00     0.037 A 
ENDBRANCH   9  10
ENDBRANCH   8   9
ENDBRANCH   6   8
ENDBRANCH   1   2
BRANCH   1  17
HETATM   17  C   UNL     1      24.134  44.459  50.831  1.00  0.00     0.185 C 
BRANCH  17  18
HETATM   18  C   UNL     1      25.512  44.726  51.433  1.00  0.00     0.231 C 
HETATM   19  N   UNL     1      25.630  44.522  52.792  1.00  0.00    -0.327 N 
HETATM   20  H   UNL     1      24.763  44.321  53.276  1.00  0.00     0.169 HD
HETATM   21  O   UNL     1      26.432  45.049  50.681  1.00  0.00    -0.272 OA
BRANCH  19  22
HETATM   22  C   UNL     1      26.759  44.723  53.608  1.00  0.00     0.034 A 
HETATM   23  C   UNL     1      27.081  45.937  54.218  1.00  0.00     0.030 A 
HETATM   24  C   UNL     1      28.215  46.049  55.033  1.00  0.00     0.019 A 
HETATM   25  C   UNL     1      29.040  44.940  55.249  1.00  0.00     0.032 A 
HETATM   26  C   UNL     1      28.734  43.728  54.624  1.00  0.00     0.019 A 
HETATM   27  C   UNL     1      27.599  43.620  53.814  1.00  0.00     0.030 A 
BRANCH  25  28
HETATM   28  C   UNL     1      30.251  45.006  56.108  1.00  0.00     0.249 C 
HETATM   29  N   UNL     1      30.161  45.708  57.278  1.00  0.00    -0.366 N 
HETATM   30  H   UNL     1      29.276  45.984  57.679  1.00  0.00     0.159 HD
HETATM   31  H   UNL     1      30.958  45.646  57.898  1.00  0.00     0.159 HD
HETATM   32  O   UNL     1      31.287  44.427  55.804  1.00  0.00    -0.268 OA
ENDBRANCH  25  28
ENDBRANCH  19  22
ENDBRANCH  17  18
ENDBRANCH   1  17
TORSDOF 8
ENDMDL
MODEL 9
REMARK VINA RESULT:      -8.1     12.706     14.163
REMARK  8 active torsions:
REMARK  status: ('A' for Active; 'I' for Inactive)
REMARK    1  A    between atoms: C_5  and  O_6 
REMARK    2  A    between atoms: O_6  and  C_7 
REMARK    3  A    between atoms: C_7  and  C_8 
REMARK    4  A    between atoms: C_12  and  S_13 
REMARK    5  A    between atoms: S_13  and  C_14 
REMARK    6  A    between atoms: C_14  and  C_15 
REMARK       I    between atoms: C_15  and  N_16 
REMARK    7  A    between atoms: N_16  and  C_17 
REMARK    8  A    between atoms: C_20  and  C_21 
REMARK       I    between atoms: C_21  and  N_22 
ROOT
HETATM    1  S   UNL     1      23.941  48.409  39.435  1.00  0.00    -0.081 SA
ENDROOT
BRANCH   1   2
HETATM    2  C   UNL     1      25.287  47.352  39.293  1.00  0.00     0.185 A 
HETATM    3  N   UNL     1      25.491  46.573  38.201  1.00  0.00    -0.254 N 
HETATM    4  N   UNL     1      26.637  45.877  38.317  1.00  0.00    -0.155 NA
HETATM    5  H   UNL     1      24.917  46.472  37.372  1.00  0.00     0.191 HD
HETATM    6  C   UNL     1      27.102  46.320  39.499  1.00  0.00     0.172 A 
HETATM    7  N   UNL     1      26.272  47.212  40.139  1.00  0.00    -0.204 NA
BRANCH   6   8
HETATM    8  C   UNL     1      28.410  45.895  40.088  1.00  0.00     0.258 C 
BRANCH   8   9
HETATM    9  O   UNL     1      29.487  46.695  39.586  1.00  0.00    -0.344 OA
BRANCH   9  10
HETATM   10  C   UNL     1      30.087  47.553  40.465  1.00  0.00     0.069 A 
HETATM   11  C   UNL     1      31.462  47.709  40.276  1.00  0.00     0.037 A 
HETATM   12  C   UNL     1      32.203  48.564  41.095  1.00  0.00     0.009 A 
HETATM   13  C   UNL     1      31.576  49.273  42.124  1.00  0.00    -0.062 A 
HETATM   14  C   UNL     1      32.356  50.222  42.984  1.00  0.00     0.048 C 
HETATM   15  C   UNL     1      30.196  49.128  42.301  1.00  0.00     0.009 A 
HETATM   16  C   UNL     1      29.455  48.268  41.481  1.00  0.00     0.037 A 
ENDBRANCH   9  10
ENDBRANCH   8   9
ENDBRANCH   6   8
ENDBRANCH   1   2
BRANCH   1  17
HETATM   17  C   UNL     1      24.433  49.745  38.302  1.00  0.00     0.185 C 
BRANCH  17  18
HETATM   18  C   UNL     1      25.932  49.981  38.130  1.00  0.00     0.231 C 
HETATM   19  N   UNL     1      26.581  50.565  39.198  1.00  0.00    -0.327 N 
HETATM   20  H   UNL     1      25.978  50.882  39.949  1.00  0.00     0.169 HD
HETATM   21  O   UNL     1      26.476  49.596  37.094  1.00  0.00    -0.272 OA
BRANCH  19  22
HETATM   22  C   UNL     1      27.937  50.928  39.302  1.00  0.00     0.034 A 
HETATM   23  C   UNL     1      28.951  50.409  38.495  1.00  0.00     0.030 A 
HETATM   24  C   UNL     1      30.277  50.838  38.650  1.00  0.00     0.019 A 
HETATM   25  C   UNL     1      30.599  51.795  39.617  1.00  0.00     0.032 A 
HETATM   26  C   UNL     1      29.590  52.302  40.441  1.00  0.00     0.019 A 
HETATM   27  C   UNL     1      28.268  51.873  40.280  1.00  0.00     0.030 A 
BRANCH  25  28
HETATM   28  C   UNL     1      31.988  52.286  39.817  1.00  0.00     0.249 C 
HETATM   29  N   UNL     1      32.918  51.959  38.870  1.00  0.00    -0.366 N 
HETATM   30  H   UNL     1      32.665  51.605  37.959  1.00  0.00     0.159 HD
HETATM   31  H   UNL     1      33.827  52.395  38.968  1.00  0.00     0.159 HD
HETATM   32  O   UNL     1      32.290  52.986  40.777  1.00  0.00    -0.268 OA
ENDBRANCH  25  28
ENDBRANCH  19  22
ENDBRANCH  17  18
ENDBRANCH   1  17
TORSDOF 8
ENDMDL
MODEL 10
REMARK VINA RESULT:      -8.1      6.080      9.878
REMARK  8 active torsions:
REMARK  status: ('A' for Active; 'I' for Inactive)
REMARK    1  A    between atoms: C_5  and  O_6 
REMARK    2  A    between atoms: O_6  and  C_7 
REMARK    3  A    between atoms: C_7  and  C_8 
REMARK    4  A    between atoms: C_12  and  S_13 
REMARK    5  A    between atoms: S_13  and  C_14 
REMARK    6  A    between atoms: C_14  and  C_15 
REMARK       I    between atoms: C_15  and  N_16 
REMARK    7  A    between atoms: N_16  and  C_17 
REMARK    8  A    between atoms: C_20  and  C_21 
REMARK       I    between atoms: C_21  and  N_22 
ROOT
HETATM    1  S   UNL     1      23.214  43.134  47.391  1.00  0.00    -0.081 SA
ENDROOT
BRANCH   1   2
HETATM    2  C   UNL     1      23.890  43.548  48.915  1.00  0.00     0.185 A 
HETATM    3  N   UNL     1      23.163  43.546  50.062  1.00  0.00    -0.254 N 
HETATM    4  N   UNL     1      23.934  43.860  51.119  1.00  0.00    -0.155 NA
HETATM    5  H   UNL     1      22.178  43.345  50.193  1.00  0.00     0.191 HD
HETATM    6  C   UNL     1      25.139  44.000  50.539  1.00  0.00     0.172 A 
HETATM    7  N   UNL     1      25.136  43.842  49.171  1.00  0.00    -0.204 NA
BRANCH   6   8
HETATM    8  C   UNL     1      26.395  44.300  51.297  1.00  0.00     0.258 C 
BRANCH   8   9
HETATM    9  O   UNL     1      26.802  43.178  52.087  1.00  0.00    -0.344 OA
BRANCH   9  10
HETATM   10  C   UNL     1      27.760  43.400  53.037  1.00  0.00     0.069 A 
HETATM   11  C   UNL     1      28.880  42.572  52.935  1.00  0.00     0.037 A 
HETATM   12  C   UNL     1      29.943  42.695  53.834  1.00  0.00     0.009 A 
HETATM   13  C   UNL     1      29.896  43.650  54.853  1.00  0.00    -0.062 A 
HETATM   14  C   UNL     1      31.049  43.815  55.799  1.00  0.00     0.048 C 
HETATM   15  C   UNL     1      28.781  44.489  54.942  1.00  0.00     0.009 A 
HETATM   16  C   UNL     1      27.715  44.362  54.044  1.00  0.00     0.037 A 
ENDBRANCH   9  10
ENDBRANCH   8   9
ENDBRANCH   6   8
ENDBRANCH   1   2
BRANCH   1  17
HETATM   17  C   UNL     1      23.219  41.318  47.497  1.00  0.00     0.185 C 
BRANCH  17  18
HETATM   18  C   UNL     1      24.584  40.641  47.602  1.00  0.00     0.231 C 
HETATM   19  N   UNL     1      25.023  40.355  48.878  1.00  0.00    -0.327 N 
HETATM   20  H   UNL     1      24.446  40.722  49.626  1.00  0.00     0.169 HD
HETATM   21  O   UNL     1      25.178  40.347  46.564  1.00  0.00    -0.272 OA
BRANCH  19  22
HETATM   22  C   UNL     1      26.243  39.773  49.270  1.00  0.00     0.034 A 
HETATM   23  C   UNL     1      27.269  40.464  49.918  1.00  0.00     0.030 A 
HETATM   24  C   UNL     1      28.449  39.806  50.292  1.00  0.00     0.019 A 
HETATM   25  C   UNL     1      28.611  38.443  50.023  1.00  0.00     0.032 A 
HETATM   26  C   UNL     1      27.595  37.752  49.356  1.00  0.00     0.019 A 
HETATM   27  C   UNL     1      26.418  38.413  48.987  1.00  0.00     0.030 A 
BRANCH  25  28
HETATM   28  C   UNL     1      29.840  37.698  50.404  1.00  0.00     0.249 C 
HETATM   29  N   UNL     1      29.704  36.659  51.282  1.00  0.00    -0.366 N 
HETATM   30  H   UNL     1      28.809  36.245  51.500  1.00  0.00     0.159 HD
HETATM   31  H   UNL     1      30.531  36.098  51.440  1.00  0.00     0.159 HD
HETATM   32  O   UNL     1      30.934  37.977  49.928  1.00  0.00    -0.268 OA
ENDBRANCH  25  28
ENDBRANCH  19  22
ENDBRANCH  17  18
ENDBRANCH   1  17
TORSDOF 8
ENDMDL
