MODEL 1
REMARK VINA RESULT:      -8.2      0.000      0.000
REMARK  5 active torsions:
REMARK  status: ('A' for Active; 'I' for Inactive)
REMARK    1  A    between atoms: C_7  and  N_8 
REMARK    2  A    between atoms: N_8  and  C_9 
REMARK    3  A    between atoms: C_9  and  C_10 
REMARK       I    between atoms: C_10  and  N_11 
REMARK    4  A    between atoms: N_11  and  C_12 
REMARK    5  A    between atoms: C_16  and  C_17 
ROOT
HETATM    1  C   UNL     1      26.255  47.144  53.786  1.00  0.00     0.068 C 
HETATM    2  C   UNL     1      27.253  46.033  53.924  1.00  0.00     0.014 A 
HETATM    3  N   UNL     1      28.110  46.128  54.955  1.00  0.00    -0.359 N 
HETATM    4  H   UNL     1      28.036  46.937  55.571  1.00  0.00     0.166 HD
HETATM    5  C   UNL     1      29.051  45.218  55.247  1.00  0.00     0.044 A 
HETATM    6  C   UNL     1      29.193  44.080  54.428  1.00  0.00     0.012 A 
HETATM    7  C   UNL     1      28.346  43.963  53.289  1.00  0.00     0.030 A 
HETATM    8  C   UNL     1      27.328  44.924  53.056  1.00  0.00    -0.010 A 
HETATM    9  C   UNL     1      29.880  45.417  56.364  1.00  0.00     0.030 A 
HETATM   10  C   UNL     1      30.851  44.477  56.697  1.00  0.00     0.002 A 
HETATM   11  C   UNL     1      30.989  43.331  55.927  1.00  0.00     0.001 A 
HETATM   12  C   UNL     1      30.170  43.131  54.812  1.00  0.00     0.015 A 
ENDROOT
BRANCH   7  13
HETATM   13  N   UNL     1      28.509  42.923  52.357  1.00  0.00    -0.283 NA
HETATM   14  H   UNL     1      28.093  43.139  51.446  1.00  0.00     0.128 HD
BRANCH  13  15
HETATM   15  C   UNL     1      28.029  41.595  52.790  1.00  0.00     0.195 C 
BRANCH  15  16
HETATM   16  C   UNL     1      27.676  40.757  51.553  1.00  0.00     0.231 C 
HETATM   17  N   UNL     1      28.709  39.972  51.086  1.00  0.00    -0.356 N 
HETATM   18  H   UNL     1      29.642  40.143  51.437  1.00  0.00     0.162 HD
HETATM   19  O   UNL     1      26.563  40.811  51.035  1.00  0.00    -0.272 OA
BRANCH  17  20
HETATM   20  C   UNL     1      28.607  39.219  49.842  1.00  0.00     0.076 C 
HETATM   21  C   UNL     1      28.845  40.139  48.645  1.00  0.00     0.032 C 
HETATM   22  C   UNL     1      29.617  38.075  49.852  1.00  0.00     0.032 C 
ENDBRANCH  17  20
ENDBRANCH  15  16
ENDBRANCH  13  15
ENDBRANCH   7  13
BRANCH   8  23
HETATM   23  C   UNL     1      26.316  44.803  51.907  1.00  0.00     0.014 C 
HETATM   24  C   UNL     1      27.006  44.578  50.560  1.00  0.00     0.015 C 
HETATM   25  C   UNL     1      25.189  43.788  52.134  1.00  0.00     0.015 C 
ENDBRANCH   8  23
TORSDOF 5
ENDMDL
MODEL 2
REMARK VINA RESULT:      -8.0      2.241      2.699
REMARK  5 active torsions:
REMARK  status: ('A' for Active; 'I' for Inactive)
REMARK    1  A    between atoms: C_7  and  N_8 
REMARK    2  A    between atoms: N_8  and  C_9 
REMARK    3  A    between atoms: C_9  and  C_10 
REMARK       I    between atoms: C_10  and  N_11 
REMARK    4  A    between atoms: N_11  and  C_12 
REMARK    5  A    between atoms: C_16  and  C_17 
ROOT
HETATM    1  C   UNL     1      26.789  48.166  55.305  1.00  0.00     0.068 C 
HETATM    2  C   UNL     1      27.477  46.858  55.057  1.00  0.00     0.014 A 
HETATM    3  N   UNL     1      28.578  46.616  55.790  1.00  0.00    -0.359 N 
HETATM    4  H   UNL     1      28.877  47.325  56.457  1.00  0.00     0.166 HD
HETATM    5  C   UNL     1      29.306  45.492  55.719  1.00  0.00     0.044 A 
HETATM    6  C   UNL     1      28.932  44.479  54.813  1.00  0.00     0.012 A 
HETATM    7  C   UNL     1      27.806  44.712  53.973  1.00  0.00     0.030 A 
HETATM    8  C   UNL     1      27.035  45.894  54.126  1.00  0.00    -0.010 A 
HETATM    9  C   UNL     1      30.429  45.345  56.550  1.00  0.00     0.030 A 
HETATM   10  C   UNL     1      31.188  44.179  56.509  1.00  0.00     0.002 A 
HETATM   11  C   UNL     1      30.823  43.152  55.650  1.00  0.00     0.001 A 
HETATM   12  C   UNL     1      29.708  43.296  54.817  1.00  0.00     0.015 A 
ENDROOT
BRANCH   7  13
HETATM   13  N   UNL     1      27.446  43.806  52.961  1.00  0.00    -0.283 NA
HETATM   14  H   UNL     1      27.477  42.830  53.272  1.00  0.00     0.128 HD
BRANCH  13  15
HETATM   15  C   UNL     1      28.205  43.920  51.699  1.00  0.00     0.195 C 
BRANCH  15  16
HETATM   16  C   UNL     1      27.239  43.795  50.514  1.00  0.00     0.231 C 
HETATM   17  N   UNL     1      26.422  42.684  50.562  1.00  0.00    -0.356 N 
HETATM   18  H   UNL     1      26.640  41.954  51.226  1.00  0.00     0.162 HD
HETATM   19  O   UNL     1      27.225  44.621  49.604  1.00  0.00    -0.272 OA
BRANCH  17  20
HETATM   20  C   UNL     1      25.542  42.322  49.458  1.00  0.00     0.076 C 
HETATM   21  C   UNL     1      25.521  40.805  49.273  1.00  0.00     0.032 C 
HETATM   22  C   UNL     1      24.138  42.852  49.727  1.00  0.00     0.032 C 
ENDBRANCH  17  20
ENDBRANCH  15  16
ENDBRANCH  13  15
ENDBRANCH   7  13
BRANCH   8  23
HETATM   23  C   UNL     1      25.753  46.161  53.325  1.00  0.00     0.014 C 
HETATM   24  C   UNL     1      26.033  46.948  52.043  1.00  0.00     0.015 C 
HETATM   25  C   UNL     1      24.890  44.924  53.043  1.00  0.00     0.015 C 
ENDBRANCH   8  23
TORSDOF 5
ENDMDL
MODEL 3
REMARK VINA RESULT:      -7.3      2.344      4.988
REMARK  5 active torsions:
REMARK  status: ('A' for Active; 'I' for Inactive)
REMARK    1  A    between atoms: C_7  and  N_8 
REMARK    2  A    between atoms: N_8  and  C_9 
REMARK    3  A    between atoms: C_9  and  C_10 
REMARK       I    between atoms: C_10  and  N_11 
REMARK    4  A    between atoms: N_11  and  C_12 
REMARK    5  A    between atoms: C_16  and  C_17 
ROOT
HETATM    1  C   UNL     1      30.747  43.840  55.721  1.00  0.00     0.068 C 
HETATM    2  C   UNL     1      29.457  44.329  55.132  1.00  0.00     0.014 A 
HETATM    3  N   UNL     1      29.098  45.585  55.447  1.00  0.00    -0.359 N 
HETATM    4  H   UNL     1      29.710  46.122  56.060  1.00  0.00     0.166 HD
HETATM    5  C   UNL     1      27.993  46.196  54.995  1.00  0.00     0.044 A 
HETATM    6  C   UNL     1      27.115  45.498  54.142  1.00  0.00     0.012 A 
HETATM    7  C   UNL     1      27.422  44.144  53.825  1.00  0.00     0.030 A 
HETATM    8  C   UNL     1      28.633  43.562  54.283  1.00  0.00    -0.010 A 
HETATM    9  C   UNL     1      27.731  47.522  55.380  1.00  0.00     0.030 A 
HETATM   10  C   UNL     1      26.601  48.182  54.908  1.00  0.00     0.002 A 
HETATM   11  C   UNL     1      25.737  47.529  54.040  1.00  0.00     0.001 A 
HETATM   12  C   UNL     1      25.991  46.208  53.658  1.00  0.00     0.015 A 
ENDROOT
BRANCH   7  13
HETATM   13  N   UNL     1      26.534  43.344  53.084  1.00  0.00    -0.283 NA
HETATM   14  H   UNL     1      26.628  42.347  53.298  1.00  0.00     0.128 HD
BRANCH  13  15
HETATM   15  C   UNL     1      26.589  43.516  51.618  1.00  0.00     0.195 C 
BRANCH  15  16
HETATM   16  C   UNL     1      25.187  43.857  51.096  1.00  0.00     0.231 C 
HETATM   17  N   UNL     1      25.142  44.960  50.269  1.00  0.00    -0.356 N 
HETATM   18  H   UNL     1      25.950  45.565  50.227  1.00  0.00     0.162 HD
HETATM   19  O   UNL     1      24.203  43.195  51.416  1.00  0.00    -0.272 OA
BRANCH  17  20
HETATM   20  C   UNL     1      23.882  45.518  49.792  1.00  0.00     0.076 C 
HETATM   21  C   UNL     1      23.986  47.039  49.679  1.00  0.00     0.032 C 
HETATM   22  C   UNL     1      23.525  44.900  48.445  1.00  0.00     0.032 C 
ENDBRANCH  17  20
ENDBRANCH  15  16
ENDBRANCH  13  15
ENDBRANCH   7  13
BRANCH   8  23
HETATM   23  C   UNL     1      29.073  42.143  53.895  1.00  0.00     0.014 C 
HETATM   24  C   UNL     1      27.932  41.133  54.028  1.00  0.00     0.015 C 
HETATM   25  C   UNL     1      29.766  42.025  52.531  1.00  0.00     0.015 C 
ENDBRANCH   8  23
TORSDOF 5
ENDMDL
MODEL 4
REMARK VINA RESULT:      -7.3      1.643      3.853
REMARK  5 active torsions:
REMARK  status: ('A' for Active; 'I' for Inactive)
REMARK    1  A    between atoms: C_7  and  N_8 
REMARK    2  A    between atoms: N_8  and  C_9 
REMARK    3  A    between atoms: C_9  and  C_10 
REMARK       I    between atoms: C_10  and  N_11 
REMARK    4  A    between atoms: N_11  and  C_12 
REMARK    5  A    between atoms: C_16  and  C_17 
ROOT
HETATM    1  C   UNL     1      30.736  44.190  56.150  1.00  0.00     0.068 C 
HETATM    2  C   UNL     1      29.495  44.661  55.451  1.00  0.00     0.014 A 
HETATM    3  N   UNL     1      29.013  45.855  55.836  1.00  0.00    -0.359 N 
HETATM    4  H   UNL     1      29.508  46.361  56.569  1.00  0.00     0.166 HD
HETATM    5  C   UNL     1      27.930  46.444  55.306  1.00  0.00     0.044 A 
HETATM    6  C   UNL     1      27.213  45.786  54.287  1.00  0.00     0.012 A 
HETATM    7  C   UNL     1      27.651  44.493  53.885  1.00  0.00     0.030 A 
HETATM    8  C   UNL     1      28.835  43.938  54.436  1.00  0.00    -0.010 A 
HETATM    9  C   UNL     1      27.531  47.705  55.780  1.00  0.00     0.030 A 
HETATM   10  C   UNL     1      26.422  48.344  55.232  1.00  0.00     0.002 A 
HETATM   11  C   UNL     1      25.717  47.733  54.204  1.00  0.00     0.001 A 
HETATM   12  C   UNL     1      26.108  46.476  53.733  1.00  0.00     0.015 A 
ENDROOT
BRANCH   7  13
HETATM   13  N   UNL     1      26.918  43.723  52.965  1.00  0.00    -0.283 NA
HETATM   14  H   UNL     1      27.357  42.819  52.766  1.00  0.00     0.128 HD
BRANCH  13  15
HETATM   15  C   UNL     1      26.605  44.385  51.682  1.00  0.00     0.195 C 
BRANCH  15  16
HETATM   16  C   UNL     1      26.917  43.424  50.527  1.00  0.00     0.231 C 
HETATM   17  N   UNL     1      26.856  42.088  50.868  1.00  0.00    -0.356 N 
HETATM   18  H   UNL     1      26.817  41.841  51.847  1.00  0.00     0.162 HD
HETATM   19  O   UNL     1      27.210  43.836  49.407  1.00  0.00    -0.272 OA
BRANCH  17  20
HETATM   20  C   UNL     1      27.259  41.035  49.944  1.00  0.00     0.076 C 
HETATM   21  C   UNL     1      28.316  40.140  50.590  1.00  0.00     0.032 C 
HETATM   22  C   UNL     1      26.037  40.218  49.534  1.00  0.00     0.032 C 
ENDBRANCH  17  20
ENDBRANCH  15  16
ENDBRANCH  13  15
ENDBRANCH   7  13
BRANCH   8  23
HETATM   23  C   UNL     1      29.419  42.595  53.973  1.00  0.00     0.014 C 
HETATM   24  C   UNL     1      28.353  41.499  53.912  1.00  0.00     0.015 C 
HETATM   25  C   UNL     1      30.237  42.651  52.676  1.00  0.00     0.015 C 
ENDBRANCH   8  23
TORSDOF 5
ENDMDL
MODEL 5
REMARK VINA RESULT:      -7.1      2.791      5.181
REMARK  5 active torsions:
REMARK  status: ('A' for Active; 'I' for Inactive)
REMARK    1  A    between atoms: C_7  and  N_8 
REMARK    2  A    between atoms: N_8  and  C_9 
REMARK    3  A    between atoms: C_9  and  C_10 
REMARK       I    between atoms: C_10  and  N_11 
REMARK    4  A    between atoms: N_11  and  C_12 
REMARK    5  A    between atoms: C_16  and  C_17 
ROOT
HETATM    1  C   UNL     1      28.486  41.625  51.603  1.00  0.00     0.068 C 
HETATM    2  C   UNL     1      28.230  42.823  52.468  1.00  0.00     0.014 A 
HETATM    3  N   UNL     1      29.082  43.011  53.491  1.00  0.00    -0.359 N 
HETATM    4  H   UNL     1      29.837  42.339  53.618  1.00  0.00     0.166 HD
HETATM    5  C   UNL     1      29.021  44.038  54.351  1.00  0.00     0.044 A 
HETATM    6  C   UNL     1      27.997  44.997  54.215  1.00  0.00     0.012 A 
HETATM    7  C   UNL     1      27.035  44.810  53.182  1.00  0.00     0.030 A 
HETATM    8  C   UNL     1      27.176  43.738  52.263  1.00  0.00    -0.010 A 
HETATM    9  C   UNL     1      29.981  44.139  55.373  1.00  0.00     0.030 A 
HETATM   10  C   UNL     1      29.950  45.207  56.265  1.00  0.00     0.002 A 
HETATM   11  C   UNL     1      28.972  46.183  56.133  1.00  0.00     0.001 A 
HETATM   12  C   UNL     1      28.012  46.084  55.121  1.00  0.00     0.015 A 
ENDROOT
BRANCH   7  13
HETATM   13  N   UNL     1      25.916  45.652  53.060  1.00  0.00    -0.283 NA
HETATM   14  H   UNL     1      25.202  45.272  52.432  1.00  0.00     0.128 HD
BRANCH  13  15
HETATM   15  C   UNL     1      26.203  47.044  52.658  1.00  0.00     0.195 C 
BRANCH  15  16
HETATM   16  C   UNL     1      25.777  47.246  51.198  1.00  0.00     0.231 C 
HETATM   17  N   UNL     1      24.555  46.691  50.881  1.00  0.00    -0.356 N 
HETATM   18  H   UNL     1      24.135  46.043  51.534  1.00  0.00     0.162 HD
HETATM   19  O   UNL     1      26.491  47.843  50.396  1.00  0.00    -0.272 OA
BRANCH  17  20
HETATM   20  C   UNL     1      24.051  46.658  49.513  1.00  0.00     0.076 C 
HETATM   21  C   UNL     1      23.349  45.328  49.239  1.00  0.00     0.032 C 
HETATM   22  C   UNL     1      23.098  47.827  49.289  1.00  0.00     0.032 C 
ENDBRANCH  17  20
ENDBRANCH  15  16
ENDBRANCH  13  15
ENDBRANCH   7  13
BRANCH   8  23
HETATM   23  C   UNL     1      26.235  43.538  51.066  1.00  0.00     0.014 C 
HETATM   24  C   UNL     1      26.872  43.998  49.754  1.00  0.00     0.015 C 
HETATM   25  C   UNL     1      25.638  42.131  50.933  1.00  0.00     0.015 C 
ENDBRANCH   8  23
TORSDOF 5
ENDMDL
MODEL 6
REMARK VINA RESULT:      -7.1      1.860      4.386
REMARK  5 active torsions:
REMARK  status: ('A' for Active; 'I' for Inactive)
REMARK    1  A    between atoms: C_7  and  N_8 
REMARK    2  A    between atoms: N_8  and  C_9 
REMARK    3  A    between atoms: C_9  and  C_10 
REMARK       I    between atoms: C_10  and  N_11 
REMARK    4  A    between atoms: N_11  and  C_12 
REMARK    5  A    between atoms: C_16  and  C_17 
ROOT
HETATM    1  C   UNL     1      28.385  44.331  54.737  1.00  0.00     0.068 C 
HETATM    2  C   UNL     1      27.731  44.389  53.389  1.00  0.00     0.014 A 
HETATM    3  N   UNL     1      26.911  45.431  53.170  1.00  0.00    -0.359 N 
HETATM    4  H   UNL     1      26.780  46.107  53.921  1.00  0.00     0.166 HD
HETATM    5  C   UNL     1      26.260  45.657  52.019  1.00  0.00     0.044 A 
HETATM    6  C   UNL     1      26.410  44.752  50.949  1.00  0.00     0.012 A 
HETATM    7  C   UNL     1      27.223  43.601  51.151  1.00  0.00     0.030 A 
HETATM    8  C   UNL     1      27.935  43.437  52.368  1.00  0.00    -0.010 A 
HETATM    9  C   UNL     1      25.441  46.793  51.901  1.00  0.00     0.030 A 
HETATM   10  C   UNL     1      24.772  47.059  50.710  1.00  0.00     0.002 A 
HETATM   11  C   UNL     1      24.928  46.201  49.630  1.00  0.00     0.001 A 
HETATM   12  C   UNL     1      25.739  45.067  49.744  1.00  0.00     0.015 A 
ENDROOT
BRANCH   7  13
HETATM   13  N   UNL     1      27.323  42.592  50.178  1.00  0.00    -0.283 NA
HETATM   14  H   UNL     1      27.273  42.956  49.222  1.00  0.00     0.128 HD
BRANCH  13  15
HETATM   15  C   UNL     1      26.357  41.481  50.308  1.00  0.00     0.195 C 
BRANCH  15  16
HETATM   16  C   UNL     1      26.879  40.264  49.532  1.00  0.00     0.231 C 
HETATM   17  N   UNL     1      27.605  39.373  50.296  1.00  0.00    -0.356 N 
HETATM   18  H   UNL     1      27.909  39.662  51.216  1.00  0.00     0.162 HD
HETATM   19  O   UNL     1      26.667  40.127  48.330  1.00  0.00    -0.272 OA
BRANCH  17  20
HETATM   20  C   UNL     1      28.299  38.235  49.706  1.00  0.00     0.076 C 
HETATM   21  C   UNL     1      29.579  37.933  50.485  1.00  0.00     0.032 C 
HETATM   22  C   UNL     1      27.375  37.021  49.697  1.00  0.00     0.032 C 
ENDBRANCH  17  20
ENDBRANCH  15  16
ENDBRANCH  13  15
ENDBRANCH   7  13
BRANCH   8  23
HETATM   23  C   UNL     1      28.908  42.275  52.613  1.00  0.00     0.014 C 
HETATM   24  C   UNL     1      30.272  42.764  53.104  1.00  0.00     0.015 C 
HETATM   25  C   UNL     1      28.367  41.147  53.502  1.00  0.00     0.015 C 
ENDBRANCH   8  23
TORSDOF 5
ENDMDL
MODEL 7
REMARK VINA RESULT:      -7.0      2.676      6.171
REMARK  5 active torsions:
REMARK  status: ('A' for Active; 'I' for Inactive)
REMARK    1  A    between atoms: C_7  and  N_8 
REMARK    2  A    between atoms: N_8  and  C_9 
REMARK    3  A    between atoms: C_9  and  C_10 
REMARK       I    between atoms: C_10  and  N_11 
REMARK    4  A    between atoms: N_11  and  C_12 
REMARK    5  A    between atoms: C_16  and  C_17 
ROOT
HETATM    1  C   UNL     1      27.773  38.626  49.527  1.00  0.00     0.068 C 
HETATM    2  C   UNL     1      27.719  40.028  50.058  1.00  0.00     0.014 A 
HETATM    3  N   UNL     1      28.079  40.192  51.342  1.00  0.00    -0.359 N 
HETATM    4  H   UNL     1      28.360  39.369  51.873  1.00  0.00     0.166 HD
HETATM    5  C   UNL     1      28.115  41.373  51.976  1.00  0.00     0.044 A 
HETATM    6  C   UNL     1      27.739  42.543  51.285  1.00  0.00     0.012 A 
HETATM    7  C   UNL     1      27.294  42.414  49.939  1.00  0.00     0.030 A 
HETATM    8  C   UNL     1      27.329  41.149  49.296  1.00  0.00    -0.010 A 
HETATM    9  C   UNL     1      28.526  41.423  53.319  1.00  0.00     0.030 A 
HETATM   10  C   UNL     1      28.590  42.640  53.992  1.00  0.00     0.002 A 
HETATM   11  C   UNL     1      28.256  43.811  53.325  1.00  0.00     0.001 A 
HETATM   12  C   UNL     1      27.842  43.765  51.990  1.00  0.00     0.015 A 
ENDROOT
BRANCH   7  13
HETATM   13  N   UNL     1      26.786  43.513  49.225  1.00  0.00    -0.283 NA
HETATM   14  H   UNL     1      27.189  44.404  49.530  1.00  0.00     0.128 HD
BRANCH  13  15
HETATM   15  C   UNL     1      25.315  43.642  49.212  1.00  0.00     0.195 C 
BRANCH  15  16
HETATM   16  C   UNL     1      24.926  45.047  49.692  1.00  0.00     0.231 C 
HETATM   17  N   UNL     1      25.986  45.925  49.794  1.00  0.00    -0.356 N 
HETATM   18  H   UNL     1      26.925  45.555  49.750  1.00  0.00     0.162 HD
HETATM   19  O   UNL     1      23.765  45.334  49.971  1.00  0.00    -0.272 OA
BRANCH  17  20
HETATM   20  C   UNL     1      25.835  47.257  50.367  1.00  0.00     0.076 C 
HETATM   21  C   UNL     1      26.077  47.215  51.876  1.00  0.00     0.032 C 
HETATM   22  C   UNL     1      26.806  48.219  49.691  1.00  0.00     0.032 C 
ENDBRANCH  17  20
ENDBRANCH  15  16
ENDBRANCH  13  15
ENDBRANCH   7  13
BRANCH   8  23
HETATM   23  C   UNL     1      26.961  40.957  47.817  1.00  0.00     0.014 C 
HETATM   24  C   UNL     1      28.188  40.641  46.959  1.00  0.00     0.015 C 
HETATM   25  C   UNL     1      25.823  39.963  47.551  1.00  0.00     0.015 C 
ENDBRANCH   8  23
TORSDOF 5
ENDMDL
MODEL 8
REMARK VINA RESULT:      -6.9      2.723      5.142
REMARK  5 active torsions:
REMARK  status: ('A' for Active; 'I' for Inactive)
REMARK    1  A    between atoms: C_7  and  N_8 
REMARK    2  A    between atoms: N_8  and  C_9 
REMARK    3  A    between atoms: C_9  and  C_10 
REMARK       I    between atoms: C_10  and  N_11 
REMARK    4  A    between atoms: N_11  and  C_12 
REMARK    5  A    between atoms: C_16  and  C_17 
ROOT
HETATM    1  C   UNL     1      28.798  40.183  50.720  1.00  0.00     0.068 C 
HETATM    2  C   UNL     1      28.443  41.315  51.638  1.00  0.00     0.014 A 
HETATM    3  N   UNL     1      29.380  41.672  52.533  1.00  0.00    -0.359 N 
HETATM    4  H   UNL     1      30.260  41.159  52.538  1.00  0.00     0.166 HD
HETATM    5  C   UNL     1      29.247  42.675  53.414  1.00  0.00     0.044 A 
HETATM    6  C   UNL     1      28.048  43.416  53.444  1.00  0.00     0.012 A 
HETATM    7  C   UNL     1      27.003  43.039  52.555  1.00  0.00     0.030 A 
HETATM    8  C   UNL     1      27.214  42.008  51.603  1.00  0.00    -0.010 A 
HETATM    9  C   UNL     1      30.305  42.966  54.291  1.00  0.00     0.030 A 
HETATM   10  C   UNL     1      30.197  44.015  55.200  1.00  0.00     0.002 A 
HETATM   11  C   UNL     1      29.040  44.782  55.229  1.00  0.00     0.001 A 
HETATM   12  C   UNL     1      27.983  44.492  54.361  1.00  0.00     0.015 A 
ENDROOT
BRANCH   7  13
HETATM   13  N   UNL     1      25.737  43.648  52.610  1.00  0.00    -0.283 NA
HETATM   14  H   UNL     1      24.974  42.994  52.408  1.00  0.00     0.128 HD
BRANCH  13  15
HETATM   15  C   UNL     1      25.565  44.845  51.762  1.00  0.00     0.195 C 
BRANCH  15  16
HETATM   16  C   UNL     1      24.291  44.691  50.921  1.00  0.00     0.231 C 
HETATM   17  N   UNL     1      24.234  45.519  49.819  1.00  0.00    -0.356 N 
HETATM   18  H   UNL     1      24.898  46.279  49.752  1.00  0.00     0.162 HD
HETATM   19  O   UNL     1      23.404  43.900  51.234  1.00  0.00    -0.272 OA
BRANCH  17  20
HETATM   20  C   UNL     1      23.043  45.616  48.984  1.00  0.00     0.076 C 
HETATM   21  C   UNL     1      22.824  47.062  48.540  1.00  0.00     0.032 C 
HETATM   22  C   UNL     1      23.188  44.697  47.775  1.00  0.00     0.032 C 
ENDBRANCH  17  20
ENDBRANCH  15  16
ENDBRANCH  13  15
ENDBRANCH   7  13
BRANCH   8  23
HETATM   23  C   UNL     1      26.167  41.621  50.548  1.00  0.00     0.014 C 
HETATM   24  C   UNL     1      26.453  42.273  49.194  1.00  0.00     0.015 C 
HETATM   25  C   UNL     1      25.915  40.115  50.400  1.00  0.00     0.015 C 
ENDBRANCH   8  23
TORSDOF 5
ENDMDL
MODEL 9
REMARK VINA RESULT:      -6.8     13.404     14.970
REMARK  5 active torsions:
REMARK  status: ('A' for Active; 'I' for Inactive)
REMARK    1  A    between atoms: C_7  and  N_8 
REMARK    2  A    between atoms: N_8  and  C_9 
REMARK    3  A    between atoms: C_9  and  C_10 
REMARK       I    between atoms: C_10  and  N_11 
REMARK    4  A    between atoms: N_11  and  C_12 
REMARK    5  A    between atoms: C_16  and  C_17 
ROOT
HETATM    1  C   UNL     1      32.645  51.992  44.944  1.00  0.00     0.068 C 
HETATM    2  C   UNL     1      33.372  51.573  43.701  1.00  0.00     0.014 A 
HETATM    3  N   UNL     1      34.661  51.945  43.611  1.00  0.00    -0.359 N 
HETATM    4  H   UNL     1      35.061  52.484  44.379  1.00  0.00     0.166 HD
HETATM    5  C   UNL     1      35.470  51.641  42.586  1.00  0.00     0.044 A 
HETATM    6  C   UNL     1      34.966  50.895  41.502  1.00  0.00     0.012 A 
HETATM    7  C   UNL     1      33.591  50.527  41.523  1.00  0.00     0.030 A 
HETATM    8  C   UNL     1      32.790  50.824  42.657  1.00  0.00    -0.010 A 
HETATM    9  C   UNL     1      36.808  52.072  42.613  1.00  0.00     0.030 A 
HETATM   10  C   UNL     1      37.672  51.751  41.570  1.00  0.00     0.002 A 
HETATM   11  C   UNL     1      37.209  50.989  40.505  1.00  0.00     0.001 A 
HETATM   12  C   UNL     1      35.878  50.563  40.473  1.00  0.00     0.015 A 
ENDROOT
BRANCH   7  13
HETATM   13  N   UNL     1      32.984  49.893  40.425  1.00  0.00    -0.283 NA
HETATM   14  H   UNL     1      33.535  49.108  40.066  1.00  0.00     0.128 HD
BRANCH  13  15
HETATM   15  C   UNL     1      32.629  50.773  39.293  1.00  0.00     0.195 C 
BRANCH  15  16
HETATM   16  C   UNL     1      31.339  50.261  38.638  1.00  0.00     0.231 C 
HETATM   17  N   UNL     1      30.845  49.099  39.192  1.00  0.00    -0.356 N 
HETATM   18  H   UNL     1      31.438  48.572  39.819  1.00  0.00     0.162 HD
HETATM   19  O   UNL     1      30.820  50.849  37.693  1.00  0.00    -0.272 OA
BRANCH  17  20
HETATM   20  C   UNL     1      29.711  48.387  38.614  1.00  0.00     0.076 C 
HETATM   21  C   UNL     1      29.951  46.879  38.665  1.00  0.00     0.032 C 
HETATM   22  C   UNL     1      28.436  48.757  39.367  1.00  0.00     0.032 C 
ENDBRANCH  17  20
ENDBRANCH  15  16
ENDBRANCH  13  15
ENDBRANCH   7  13
BRANCH   8  23
HETATM   23  C   UNL     1      31.330  50.367  42.788  1.00  0.00     0.014 C 
HETATM   24  C   UNL     1      30.384  51.225  41.945  1.00  0.00     0.015 C 
HETATM   25  C   UNL     1      31.090  48.871  42.546  1.00  0.00     0.015 C 
ENDBRANCH   8  23
TORSDOF 5
ENDMDL
MODEL 10
REMARK VINA RESULT:      -6.8      1.838      2.492
REMARK  5 active torsions:
REMARK  status: ('A' for Active; 'I' for Inactive)
REMARK    1  A    between atoms: C_7  and  N_8 
REMARK    2  A    between atoms: N_8  and  C_9 
REMARK    3  A    between atoms: C_9  and  C_10 
REMARK       I    between atoms: C_10  and  N_11 
REMARK    4  A    between atoms: N_11  and  C_12 
REMARK    5  A    between atoms: C_16  and  C_17 
ROOT
HETATM    1  C   UNL     1      24.723  47.140  50.721  1.00  0.00     0.068 C 
HETATM    2  C   UNL     1      25.544  46.391  51.728  1.00  0.00     0.014 A 
HETATM    3  N   UNL     1      26.059  47.118  52.735  1.00  0.00    -0.359 N 
HETATM    4  H   UNL     1      25.868  48.119  52.753  1.00  0.00     0.166 HD
HETATM    5  C   UNL     1      26.796  46.614  53.736  1.00  0.00     0.044 A 
HETATM    6  C   UNL     1      27.086  45.235  53.757  1.00  0.00     0.012 A 
HETATM    7  C   UNL     1      26.611  44.432  52.682  1.00  0.00     0.030 A 
HETATM    8  C   UNL     1      25.787  45.003  51.676  1.00  0.00    -0.010 A 
HETATM    9  C   UNL     1      27.266  47.472  54.745  1.00  0.00     0.030 A 
HETATM   10  C   UNL     1      28.016  46.969  55.804  1.00  0.00     0.002 A 
HETATM   11  C   UNL     1      28.288  45.609  55.867  1.00  0.00     0.001 A 
HETATM   12  C   UNL     1      27.826  44.753  54.863  1.00  0.00     0.015 A 
ENDROOT
BRANCH   7  13
HETATM   13  N   UNL     1      26.962  43.076  52.567  1.00  0.00    -0.283 NA
HETATM   14  H   UNL     1      26.858  42.564  53.448  1.00  0.00     0.128 HD
BRANCH  13  15
HETATM   15  C   UNL     1      28.310  42.808  52.026  1.00  0.00     0.195 C 
BRANCH  15  16
HETATM   16  C   UNL     1      28.412  41.328  51.633  1.00  0.00     0.231 C 
HETATM   17  N   UNL     1      27.860  41.028  50.405  1.00  0.00    -0.356 N 
HETATM   18  H   UNL     1      27.271  41.718  49.958  1.00  0.00     0.162 HD
HETATM   19  O   UNL     1      28.934  40.499  52.375  1.00  0.00    -0.272 OA
BRANCH  17  20
HETATM   20  C   UNL     1      27.736  39.656  49.927  1.00  0.00     0.076 C 
HETATM   21  C   UNL     1      26.435  39.484  49.142  1.00  0.00     0.032 C 
HETATM   22  C   UNL     1      28.940  39.305  49.059  1.00  0.00     0.032 C 
ENDBRANCH  17  20
ENDBRANCH  15  16
ENDBRANCH  13  15
ENDBRANCH   7  13
BRANCH   8  23
HETATM   23  C   UNL     1      25.159  44.175  50.546  1.00  0.00     0.014 C 
HETATM   24  C   UNL     1      26.132  43.961  49.385  1.00  0.00     0.015 C 
HETATM   25  C   UNL     1      24.515  42.853  50.985  1.00  0.00     0.015 C 
ENDBRANCH   8  23
TORSDOF 5
ENDMDL
