MODEL 1
REMARK VINA RESULT:      -9.6      0.000      0.000
REMARK  6 active torsions:
REMARK  status: ('A' for Active; 'I' for Inactive)
REMARK       I    between atoms: C_2  and  N_3 
REMARK    1  A    between atoms: N_3  and  C_4 
REMARK    2  A    between atoms: C_4  and  C_5 
REMARK    3  A    between atoms: C_4  and  C_11 
REMARK    4  A    between atoms: C_11  and  C_12 
REMARK       I    between atoms: C_12  and  N_13 
REMARK    5  A    between atoms: N_13  and  C_14 
REMARK    6  A    between atoms: C_16  and  C_17 
ROOT
HETATM    1  C   UNL     1      26.621  46.493  53.198  1.00  0.00     0.224 C 
HETATM    2  N   UNL     1      27.028  45.188  52.960  1.00  0.00    -0.327 N 
HETATM    3  O   UNL     1      27.209  47.318  53.887  1.00  0.00    -0.273 OA
HETATM    4  H   UNL     1      26.405  44.609  52.409  1.00  0.00     0.169 HD
ENDROOT
BRANCH   1   5
HETATM    5  C   UNL     1      25.297  46.800  52.515  1.00  0.00     0.133 C 
BRANCH   5   6
HETATM    6  C   UNL     1      25.314  46.387  51.035  1.00  0.00     0.126 C 
BRANCH   6   7
HETATM    7  N   UNL     1      24.213  45.542  50.582  1.00  0.00    -0.352 N 
HETATM    8  C   UNL     1      24.100  44.185  50.755  1.00  0.00     0.214 C 
HETATM    9  C   UNL     1      22.847  43.607  50.151  1.00  0.00     0.117 C 
HETATM   10  O   UNL     1      24.907  43.487  51.359  1.00  0.00    -0.274 OA
HETATM   11  H   UNL     1      23.492  46.011  50.051  1.00  0.00     0.163 HD
ENDBRANCH   6   7
BRANCH   6  12
HETATM   12  C   UNL     1      25.526  47.585  50.119  1.00  0.00    -0.035 A 
HETATM   13  C   UNL     1      26.806  48.055  49.789  1.00  0.00     0.009 A 
HETATM   14  C   UNL     1      26.967  49.144  48.931  1.00  0.00     0.001 A 
HETATM   15  C   UNL     1      25.853  49.772  48.378  1.00  0.00     0.000 A 
HETATM   16  C   UNL     1      24.575  49.311  48.685  1.00  0.00     0.001 A 
HETATM   17  C   UNL     1      24.412  48.227  49.550  1.00  0.00     0.009 A 
ENDBRANCH   6  12
ENDBRANCH   5   6
ENDBRANCH   1   5
BRANCH   2  18
HETATM   18  C   UNL     1      28.172  44.542  53.476  1.00  0.00     0.035 A 
HETATM   19  C   UNL     1      28.736  44.829  54.722  1.00  0.00     0.042 A 
HETATM   20  C   UNL     1      29.871  44.140  55.182  1.00  0.00    -0.021 A 
HETATM   21  C   UNL     1      30.429  43.139  54.380  1.00  0.00     0.012 A 
HETATM   22  C   UNL     1      29.879  42.850  53.131  1.00  0.00     0.003 A 
HETATM   23  C   UNL     1      28.763  43.554  52.678  1.00  0.00     0.029 A 
BRANCH  20  24
HETATM   24  C   UNL     1      30.464  44.455  56.471  1.00  0.00     0.010 A 
HETATM   25  C   UNL     1      31.460  43.790  57.224  1.00  0.00     0.152 A 
HETATM   26  N   UNL     1      31.753  44.418  58.367  1.00  0.00    -0.187 NA
HETATM   27  N   UNL     1      30.943  45.489  58.351  1.00  0.00    -0.289 N 
HETATM   28  H   UNL     1      30.984  46.136  59.132  1.00  0.00     0.188 HD
HETATM   29  C   UNL     1      30.157  45.560  57.239  1.00  0.00     0.123 A 
ENDBRANCH  20  24
ENDBRANCH   2  18
TORSDOF 6
ENDMDL
MODEL 2
REMARK VINA RESULT:      -9.3      2.233      8.273
REMARK  6 active torsions:
REMARK  status: ('A' for Active; 'I' for Inactive)
REMARK       I    between atoms: C_2  and  N_3 
REMARK    1  A    between atoms: N_3  and  C_4 
REMARK    2  A    between atoms: C_4  and  C_5 
REMARK    3  A    between atoms: C_4  and  C_11 
REMARK    4  A    between atoms: C_11  and  C_12 
REMARK       I    between atoms: C_12  and  N_13 
REMARK    5  A    between atoms: N_13  and  C_14 
REMARK    6  A    between atoms: C_16  and  C_17 
ROOT
HETATM    1  C   UNL     1      27.529  44.494  53.082  1.00  0.00     0.224 C 
HETATM    2  N   UNL     1      26.504  45.425  52.999  1.00  0.00    -0.327 N 
HETATM    3  O   UNL     1      28.072  43.932  52.137  1.00  0.00    -0.273 OA
HETATM    4  H   UNL     1      26.123  45.762  53.876  1.00  0.00     0.169 HD
ENDROOT
BRANCH   1   5
HETATM    5  C   UNL     1      27.907  44.203  54.526  1.00  0.00     0.133 C 
BRANCH   5   6
HETATM    6  C   UNL     1      28.609  45.402  55.181  1.00  0.00     0.126 C 
BRANCH   6   7
HETATM    7  N   UNL     1      27.747  46.408  55.795  1.00  0.00    -0.352 N 
HETATM    8  C   UNL     1      27.429  47.638  55.276  1.00  0.00     0.214 C 
HETATM    9  C   UNL     1      26.526  48.448  56.168  1.00  0.00     0.117 C 
HETATM   10  O   UNL     1      27.804  48.057  54.186  1.00  0.00    -0.274 OA
HETATM   11  H   UNL     1      27.391  46.177  56.712  1.00  0.00     0.163 HD
ENDBRANCH   6   7
BRANCH   6  12
HETATM   12  C   UNL     1      29.722  44.958  56.120  1.00  0.00    -0.035 A 
HETATM   13  C   UNL     1      29.957  45.588  57.351  1.00  0.00     0.009 A 
HETATM   14  C   UNL     1      30.974  45.143  58.198  1.00  0.00     0.001 A 
HETATM   15  C   UNL     1      31.763  44.055  57.835  1.00  0.00     0.000 A 
HETATM   16  C   UNL     1      31.537  43.409  56.621  1.00  0.00     0.001 A 
HETATM   17  C   UNL     1      30.525  43.857  55.770  1.00  0.00     0.009 A 
ENDBRANCH   6  12
ENDBRANCH   5   6
ENDBRANCH   1   5
BRANCH   2  18
HETATM   18  C   UNL     1      25.865  45.892  51.830  1.00  0.00     0.035 A 
HETATM   19  C   UNL     1      26.297  46.997  51.093  1.00  0.00     0.042 A 
HETATM   20  C   UNL     1      25.621  47.404  49.930  1.00  0.00    -0.021 A 
HETATM   21  C   UNL     1      24.508  46.672  49.500  1.00  0.00     0.012 A 
HETATM   22  C   UNL     1      24.064  45.572  50.233  1.00  0.00     0.003 A 
HETATM   23  C   UNL     1      24.734  45.190  51.396  1.00  0.00     0.029 A 
BRANCH  20  24
HETATM   24  C   UNL     1      26.064  48.566  49.176  1.00  0.00     0.010 A 
HETATM   25  C   UNL     1      25.350  49.467  48.353  1.00  0.00     0.152 A 
HETATM   26  N   UNL     1      26.124  50.433  47.848  1.00  0.00    -0.187 NA
HETATM   27  N   UNL     1      27.339  50.153  48.346  1.00  0.00    -0.289 N 
HETATM   28  H   UNL     1      28.112  50.761  48.101  1.00  0.00     0.188 HD
HETATM   29  C   UNL     1      27.356  49.050  49.149  1.00  0.00     0.123 A 
ENDBRANCH  20  24
ENDBRANCH   2  18
TORSDOF 6
ENDMDL
MODEL 3
REMARK VINA RESULT:      -8.9      3.709      8.310
REMARK  6 active torsions:
REMARK  status: ('A' for Active; 'I' for Inactive)
REMARK       I    between atoms: C_2  and  N_3 
REMARK    1  A    between atoms: N_3  and  C_4 
REMARK    2  A    between atoms: C_4  and  C_5 
REMARK    3  A    between atoms: C_4  and  C_11 
REMARK    4  A    between atoms: C_11  and  C_12 
REMARK       I    between atoms: C_12  and  N_13 
REMARK    5  A    between atoms: N_13  and  C_14 
REMARK    6  A    between atoms: C_16  and  C_17 
ROOT
HETATM    1  C   UNL     1      28.999  41.708  52.988  1.00  0.00     0.224 C 
HETATM    2  N   UNL     1      28.822  41.918  51.627  1.00  0.00    -0.327 N 
HETATM    3  O   UNL     1      28.388  40.901  53.678  1.00  0.00    -0.273 OA
HETATM    4  H   UNL     1      29.369  42.661  51.206  1.00  0.00     0.169 HD
ENDROOT
BRANCH   1   5
HETATM    5  C   UNL     1      30.050  42.642  53.567  1.00  0.00     0.133 C 
BRANCH   5   6
HETATM    6  C   UNL     1      29.411  43.852  54.266  1.00  0.00     0.126 C 
BRANCH   6   7
HETATM    7  N   UNL     1      27.957  43.833  54.400  1.00  0.00    -0.352 N 
HETATM    8  C   UNL     1      27.046  44.295  53.484  1.00  0.00     0.214 C 
HETATM    9  C   UNL     1      25.616  44.147  53.936  1.00  0.00     0.117 C 
HETATM   10  O   UNL     1      27.331  44.762  52.387  1.00  0.00    -0.274 OA
HETATM   11  H   UNL     1      27.604  43.483  55.280  1.00  0.00     0.163 HD
ENDBRANCH   6   7
BRANCH   6  12
HETATM   12  C   UNL     1      30.101  44.169  55.585  1.00  0.00    -0.035 A 
HETATM   13  C   UNL     1      29.806  45.325  56.323  1.00  0.00     0.009 A 
HETATM   14  C   UNL     1      30.444  45.577  57.540  1.00  0.00     0.001 A 
HETATM   15  C   UNL     1      31.375  44.672  58.044  1.00  0.00     0.000 A 
HETATM   16  C   UNL     1      31.671  43.513  57.330  1.00  0.00     0.001 A 
HETATM   17  C   UNL     1      31.040  43.263  56.110  1.00  0.00     0.009 A 
ENDBRANCH   6  12
ENDBRANCH   5   6
ENDBRANCH   1   5
BRANCH   2  18
HETATM   18  C   UNL     1      27.897  41.276  50.776  1.00  0.00     0.035 A 
HETATM   19  C   UNL     1      26.650  41.808  50.435  1.00  0.00     0.042 A 
HETATM   20  C   UNL     1      25.780  41.121  49.572  1.00  0.00    -0.021 A 
HETATM   21  C   UNL     1      26.184  39.895  49.034  1.00  0.00     0.012 A 
HETATM   22  C   UNL     1      27.423  39.351  49.374  1.00  0.00     0.003 A 
HETATM   23  C   UNL     1      28.271  40.035  50.247  1.00  0.00     0.029 A 
BRANCH  20  24
HETATM   24  C   UNL     1      24.476  41.670  49.235  1.00  0.00     0.010 A 
HETATM   25  C   UNL     1      23.496  41.239  48.311  1.00  0.00     0.152 A 
HETATM   26  N   UNL     1      22.406  42.011  48.312  1.00  0.00    -0.187 NA
HETATM   27  N   UNL     1      22.684  42.943  49.237  1.00  0.00    -0.289 N 
HETATM   28  H   UNL     1      21.990  43.659  49.424  1.00  0.00     0.188 HD
HETATM   29  C   UNL     1      23.906  42.782  49.821  1.00  0.00     0.123 A 
ENDBRANCH  20  24
ENDBRANCH   2  18
TORSDOF 6
ENDMDL
MODEL 4
REMARK VINA RESULT:      -8.8      3.772      7.789
REMARK  6 active torsions:
REMARK  status: ('A' for Active; 'I' for Inactive)
REMARK       I    between atoms: C_2  and  N_3 
REMARK    1  A    between atoms: N_3  and  C_4 
REMARK    2  A    between atoms: C_4  and  C_5 
REMARK    3  A    between atoms: C_4  and  C_11 
REMARK    4  A    between atoms: C_11  and  C_12 
REMARK       I    between atoms: C_12  and  N_13 
REMARK    5  A    between atoms: N_13  and  C_14 
REMARK    6  A    between atoms: C_16  and  C_17 
ROOT
HETATM    1  C   UNL     1      27.833  43.712  53.348  1.00  0.00     0.224 C 
HETATM    2  N   UNL     1      26.936  42.717  52.988  1.00  0.00    -0.327 N 
HETATM    3  O   UNL     1      28.762  44.127  52.664  1.00  0.00    -0.273 OA
HETATM    4  H   UNL     1      26.252  42.446  53.686  1.00  0.00     0.169 HD
ENDROOT
BRANCH   1   5
HETATM    5  C   UNL     1      27.558  44.236  54.749  1.00  0.00     0.133 C 
BRANCH   5   6
HETATM    6  C   UNL     1      28.473  45.419  55.102  1.00  0.00     0.126 C 
BRANCH   6   7
HETATM    7  N   UNL     1      27.813  46.646  55.537  1.00  0.00    -0.352 N 
HETATM    8  C   UNL     1      27.033  47.472  54.768  1.00  0.00     0.214 C 
HETATM    9  C   UNL     1      26.513  48.671  55.516  1.00  0.00     0.117 C 
HETATM   10  O   UNL     1      26.746  47.269  53.593  1.00  0.00    -0.274 OA
HETATM   11  H   UNL     1      27.995  46.924  56.492  1.00  0.00     0.163 HD
ENDBRANCH   6   7
BRANCH   6  12
HETATM   12  C   UNL     1      29.588  45.003  56.052  1.00  0.00    -0.035 A 
HETATM   13  C   UNL     1      29.788  45.633  57.289  1.00  0.00     0.009 A 
HETATM   14  C   UNL     1      30.808  45.215  58.146  1.00  0.00     0.001 A 
HETATM   15  C   UNL     1      31.635  44.154  57.787  1.00  0.00     0.000 A 
HETATM   16  C   UNL     1      31.443  43.508  56.567  1.00  0.00     0.001 A 
HETATM   17  C   UNL     1      30.429  43.930  55.706  1.00  0.00     0.009 A 
ENDBRANCH   6  12
ENDBRANCH   5   6
ENDBRANCH   1   5
BRANCH   2  18
HETATM   18  C   UNL     1      26.921  41.970  51.791  1.00  0.00     0.035 A 
HETATM   19  C   UNL     1      27.832  40.952  51.495  1.00  0.00     0.042 A 
HETATM   20  C   UNL     1      27.756  40.237  50.287  1.00  0.00    -0.021 A 
HETATM   21  C   UNL     1      26.736  40.545  49.380  1.00  0.00     0.012 A 
HETATM   22  C   UNL     1      25.827  41.564  49.662  1.00  0.00     0.003 A 
HETATM   23  C   UNL     1      25.925  42.278  50.857  1.00  0.00     0.029 A 
BRANCH  20  24
HETATM   24  C   UNL     1      28.717  39.191  49.977  1.00  0.00     0.010 A 
HETATM   25  C   UNL     1      29.584  38.448  50.811  1.00  0.00     0.152 A 
HETATM   26  N   UNL     1      30.306  37.548  50.138  1.00  0.00    -0.187 NA
HETATM   27  N   UNL     1      29.905  37.712  48.867  1.00  0.00    -0.289 N 
HETATM   28  H   UNL     1      30.320  37.125  48.151  1.00  0.00     0.188 HD
HETATM   29  C   UNL     1      28.954  38.678  48.718  1.00  0.00     0.123 A 
ENDBRANCH  20  24
ENDBRANCH   2  18
TORSDOF 6
ENDMDL
MODEL 5
REMARK VINA RESULT:      -8.7      2.070      8.220
REMARK  6 active torsions:
REMARK  status: ('A' for Active; 'I' for Inactive)
REMARK       I    between atoms: C_2  and  N_3 
REMARK    1  A    between atoms: N_3  and  C_4 
REMARK    2  A    between atoms: C_4  and  C_5 
REMARK    3  A    between atoms: C_4  and  C_11 
REMARK    4  A    between atoms: C_11  and  C_12 
REMARK       I    between atoms: C_12  and  N_13 
REMARK    5  A    between atoms: N_13  and  C_14 
REMARK    6  A    between atoms: C_16  and  C_17 
ROOT
HETATM    1  C   UNL     1      25.748  44.324  53.662  1.00  0.00     0.224 C 
HETATM    2  N   UNL     1      26.041  44.527  52.320  1.00  0.00    -0.327 N 
HETATM    3  O   UNL     1      24.654  44.481  54.192  1.00  0.00    -0.273 OA
HETATM    4  H   UNL     1      27.008  44.406  52.042  1.00  0.00     0.169 HD
ENDROOT
BRANCH   1   5
HETATM    5  C   UNL     1      26.979  43.902  54.447  1.00  0.00     0.133 C 
BRANCH   5   6
HETATM    6  C   UNL     1      27.919  45.089  54.711  1.00  0.00     0.126 C 
BRANCH   6   7
HETATM    7  N   UNL     1      27.313  46.283  55.294  1.00  0.00    -0.352 N 
HETATM    8  C   UNL     1      26.877  47.393  54.614  1.00  0.00     0.214 C 
HETATM    9  C   UNL     1      26.315  48.462  55.514  1.00  0.00     0.117 C 
HETATM   10  O   UNL     1      26.903  47.523  53.395  1.00  0.00    -0.274 OA
HETATM   11  H   UNL     1      27.256  46.296  56.303  1.00  0.00     0.163 HD
ENDBRANCH   6   7
BRANCH   6  12
HETATM   12  C   UNL     1      29.170  44.660  55.464  1.00  0.00    -0.035 A 
HETATM   13  C   UNL     1      29.924  43.541  55.082  1.00  0.00     0.009 A 
HETATM   14  C   UNL     1      31.079  43.185  55.782  1.00  0.00     0.001 A 
HETATM   15  C   UNL     1      31.504  43.948  56.867  1.00  0.00     0.000 A 
HETATM   16  C   UNL     1      30.774  45.070  57.253  1.00  0.00     0.001 A 
HETATM   17  C   UNL     1      29.616  45.423  56.558  1.00  0.00     0.009 A 
ENDBRANCH   6  12
ENDBRANCH   5   6
ENDBRANCH   1   5
BRANCH   2  18
HETATM   18  C   UNL     1      25.162  44.974  51.310  1.00  0.00     0.035 A 
HETATM   19  C   UNL     1      25.055  46.307  50.903  1.00  0.00     0.042 A 
HETATM   20  C   UNL     1      24.166  46.684  49.881  1.00  0.00    -0.021 A 
HETATM   21  C   UNL     1      23.393  45.700  49.256  1.00  0.00     0.012 A 
HETATM   22  C   UNL     1      23.487  44.368  49.661  1.00  0.00     0.003 A 
HETATM   23  C   UNL     1      24.360  44.010  50.688  1.00  0.00     0.029 A 
BRANCH  20  24
HETATM   24  C   UNL     1      24.046  48.074  49.473  1.00  0.00     0.010 A 
HETATM   25  C   UNL     1      25.015  48.997  49.015  1.00  0.00     0.152 A 
HETATM   26  N   UNL     1      24.496  50.190  48.714  1.00  0.00    -0.187 NA
HETATM   27  N   UNL     1      23.188  50.037  48.979  1.00  0.00    -0.289 N 
HETATM   28  H   UNL     1      22.569  50.826  48.823  1.00  0.00     0.188 HD
HETATM   29  C   UNL     1      22.867  48.791  49.431  1.00  0.00     0.123 A 
ENDBRANCH  20  24
ENDBRANCH   2  18
TORSDOF 6
ENDMDL
MODEL 6
REMARK VINA RESULT:      -8.6      4.534      8.623
REMARK  6 active torsions:
REMARK  status: ('A' for Active; 'I' for Inactive)
REMARK       I    between atoms: C_2  and  N_3 
REMARK    1  A    between atoms: N_3  and  C_4 
REMARK    2  A    between atoms: C_4  and  C_5 
REMARK    3  A    between atoms: C_4  and  C_11 
REMARK    4  A    between atoms: C_11  and  C_12 
REMARK       I    between atoms: C_12  and  N_13 
REMARK    5  A    between atoms: N_13  and  C_14 
REMARK    6  A    between atoms: C_16  and  C_17 
ROOT
HETATM    1  C   UNL     1      28.937  41.698  52.960  1.00  0.00     0.224 C 
HETATM    2  N   UNL     1      28.794  41.924  51.598  1.00  0.00    -0.327 N 
HETATM    3  O   UNL     1      28.295  40.896  53.629  1.00  0.00    -0.273 OA
HETATM    4  H   UNL     1      29.364  42.659  51.196  1.00  0.00     0.169 HD
ENDROOT
BRANCH   1   5
HETATM    5  C   UNL     1      29.992  42.606  53.571  1.00  0.00     0.133 C 
BRANCH   5   6
HETATM    6  C   UNL     1      29.360  43.826  54.260  1.00  0.00     0.126 C 
BRANCH   6   7
HETATM    7  N   UNL     1      27.907  43.810  54.409  1.00  0.00    -0.352 N 
HETATM    8  C   UNL     1      26.990  44.318  53.524  1.00  0.00     0.214 C 
HETATM    9  C   UNL     1      25.564  44.158  53.984  1.00  0.00     0.117 C 
HETATM   10  O   UNL     1      27.266  44.834  52.447  1.00  0.00    -0.274 OA
HETATM   11  H   UNL     1      27.561  43.422  55.276  1.00  0.00     0.163 HD
ENDBRANCH   6   7
BRANCH   6  12
HETATM   12  C   UNL     1      30.063  44.160  55.568  1.00  0.00    -0.035 A 
HETATM   13  C   UNL     1      29.759  45.314  56.305  1.00  0.00     0.009 A 
HETATM   14  C   UNL     1      30.409  45.582  57.512  1.00  0.00     0.001 A 
HETATM   15  C   UNL     1      31.362  44.696  58.006  1.00  0.00     0.000 A 
HETATM   16  C   UNL     1      31.668  43.539  57.293  1.00  0.00     0.001 A 
HETATM   17  C   UNL     1      31.025  43.273  56.083  1.00  0.00     0.009 A 
ENDBRANCH   6  12
ENDBRANCH   5   6
ENDBRANCH   1   5
BRANCH   2  18
HETATM   18  C   UNL     1      27.877  41.307  50.720  1.00  0.00     0.035 A 
HETATM   19  C   UNL     1      28.217  40.287  49.827  1.00  0.00     0.042 A 
HETATM   20  C   UNL     1      27.253  39.706  48.986  1.00  0.00    -0.021 A 
HETATM   21  C   UNL     1      25.928  40.150  49.064  1.00  0.00     0.012 A 
HETATM   22  C   UNL     1      25.580  41.173  49.946  1.00  0.00     0.003 A 
HETATM   23  C   UNL     1      26.551  41.754  50.763  1.00  0.00     0.029 A 
BRANCH  20  24
HETATM   24  C   UNL     1      27.615  38.658  48.046  1.00  0.00     0.010 A 
HETATM   25  C   UNL     1      28.865  38.064  47.752  1.00  0.00     0.152 A 
HETATM   26  N   UNL     1      28.778  37.103  46.828  1.00  0.00    -0.187 NA
HETATM   27  N   UNL     1      27.470  37.077  46.525  1.00  0.00    -0.289 N 
HETATM   28  H   UNL     1      27.149  36.411  45.831  1.00  0.00     0.188 HD
HETATM   29  C   UNL     1      26.732  37.984  47.228  1.00  0.00     0.123 A 
ENDBRANCH  20  24
ENDBRANCH   2  18
TORSDOF 6
ENDMDL
MODEL 7
REMARK VINA RESULT:      -8.5      2.235      8.643
REMARK  6 active torsions:
REMARK  status: ('A' for Active; 'I' for Inactive)
REMARK       I    between atoms: C_2  and  N_3 
REMARK    1  A    between atoms: N_3  and  C_4 
REMARK    2  A    between atoms: C_4  and  C_5 
REMARK    3  A    between atoms: C_4  and  C_11 
REMARK    4  A    between atoms: C_11  and  C_12 
REMARK       I    between atoms: C_12  and  N_13 
REMARK    5  A    between atoms: N_13  and  C_14 
REMARK    6  A    between atoms: C_16  and  C_17 
ROOT
HETATM    1  C   UNL     1      25.420  45.537  52.125  1.00  0.00     0.224 C 
HETATM    2  N   UNL     1      26.008  46.755  51.816  1.00  0.00    -0.327 N 
HETATM    3  O   UNL     1      24.586  44.946  51.447  1.00  0.00    -0.273 OA
HETATM    4  H   UNL     1      26.643  47.142  52.505  1.00  0.00     0.169 HD
ENDROOT
BRANCH   1   5
HETATM    5  C   UNL     1      25.909  45.000  53.461  1.00  0.00     0.133 C 
BRANCH   5   6
HETATM    6  C   UNL     1      27.167  45.739  53.942  1.00  0.00     0.126 C 
BRANCH   6   7
HETATM    7  N   UNL     1      27.004  46.626  55.090  1.00  0.00    -0.352 N 
HETATM    8  C   UNL     1      26.287  47.795  55.124  1.00  0.00     0.214 C 
HETATM    9  C   UNL     1      26.333  48.486  56.462  1.00  0.00     0.117 C 
HETATM   10  O   UNL     1      25.640  48.247  54.186  1.00  0.00    -0.274 OA
HETATM   11  H   UNL     1      27.512  46.360  55.923  1.00  0.00     0.163 HD
ENDBRANCH   6   7
BRANCH   6  12
HETATM   12  C   UNL     1      28.344  44.789  54.119  1.00  0.00    -0.035 A 
HETATM   13  C   UNL     1      28.698  43.849  53.140  1.00  0.00     0.009 A 
HETATM   14  C   UNL     1      29.795  43.004  53.324  1.00  0.00     0.001 A 
HETATM   15  C   UNL     1      30.562  43.095  54.483  1.00  0.00     0.000 A 
HETATM   16  C   UNL     1      30.233  44.031  55.460  1.00  0.00     0.001 A 
HETATM   17  C   UNL     1      29.132  44.871  55.281  1.00  0.00     0.009 A 
ENDBRANCH   6  12
ENDBRANCH   5   6
ENDBRANCH   1   5
BRANCH   2  18
HETATM   18  C   UNL     1      25.754  47.567  50.690  1.00  0.00     0.035 A 
HETATM   19  C   UNL     1      24.473  47.875  50.223  1.00  0.00     0.042 A 
HETATM   20  C   UNL     1      24.288  48.700  49.100  1.00  0.00    -0.021 A 
HETATM   21  C   UNL     1      25.410  49.232  48.457  1.00  0.00     0.012 A 
HETATM   22  C   UNL     1      26.694  48.925  48.910  1.00  0.00     0.003 A 
HETATM   23  C   UNL     1      26.863  48.090  50.015  1.00  0.00     0.029 A 
BRANCH  20  24
HETATM   24  C   UNL     1      22.954  49.003  48.608  1.00  0.00     0.010 A 
HETATM   25  C   UNL     1      21.715  48.354  48.820  1.00  0.00     0.152 A 
HETATM   26  N   UNL     1      20.699  48.962  48.202  1.00  0.00    -0.187 NA
HETATM   27  N   UNL     1      21.283  50.004  47.590  1.00  0.00    -0.289 N 
HETATM   28  H   UNL     1      20.701  50.632  47.045  1.00  0.00     0.188 HD
HETATM   29  C   UNL     1      22.628  50.076  47.804  1.00  0.00     0.123 A 
ENDBRANCH  20  24
ENDBRANCH   2  18
TORSDOF 6
ENDMDL
MODEL 8
REMARK VINA RESULT:      -8.4      2.300      8.593
REMARK  6 active torsions:
REMARK  status: ('A' for Active; 'I' for Inactive)
REMARK       I    between atoms: C_2  and  N_3 
REMARK    1  A    between atoms: N_3  and  C_4 
REMARK    2  A    between atoms: C_4  and  C_5 
REMARK    3  A    between atoms: C_4  and  C_11 
REMARK    4  A    between atoms: C_11  and  C_12 
REMARK       I    between atoms: C_12  and  N_13 
REMARK    5  A    between atoms: N_13  and  C_14 
REMARK    6  A    between atoms: C_16  and  C_17 
ROOT
HETATM    1  C   UNL     1      27.222  44.525  53.126  1.00  0.00     0.224 C 
HETATM    2  N   UNL     1      25.931  45.015  52.991  1.00  0.00    -0.327 N 
HETATM    3  O   UNL     1      27.990  44.256  52.209  1.00  0.00    -0.273 OA
HETATM    4  H   UNL     1      25.400  45.140  53.845  1.00  0.00     0.169 HD
ENDROOT
BRANCH   1   5
HETATM    5  C   UNL     1      27.593  44.315  54.585  1.00  0.00     0.133 C 
BRANCH   5   6
HETATM    6  C   UNL     1      28.445  45.474  55.126  1.00  0.00     0.126 C 
BRANCH   6   7
HETATM    7  N   UNL     1      27.720  46.595  55.717  1.00  0.00    -0.352 N 
HETATM    8  C   UNL     1      27.159  47.651  55.044  1.00  0.00     0.214 C 
HETATM    9  C   UNL     1      26.495  48.654  55.952  1.00  0.00     0.117 C 
HETATM   10  O   UNL     1      27.156  47.783  53.825  1.00  0.00    -0.274 OA
HETATM   11  H   UNL     1      27.674  46.602  56.727  1.00  0.00     0.163 HD
ENDBRANCH   6   7
BRANCH   6  12
HETATM   12  C   UNL     1      29.561  44.976  56.033  1.00  0.00    -0.035 A 
HETATM   13  C   UNL     1      30.390  43.902  55.676  1.00  0.00     0.009 A 
HETATM   14  C   UNL     1      31.419  43.482  56.522  1.00  0.00     0.001 A 
HETATM   15  C   UNL     1      31.643  44.136  57.731  1.00  0.00     0.000 A 
HETATM   16  C   UNL     1      30.837  45.212  58.096  1.00  0.00     0.001 A 
HETATM   17  C   UNL     1      29.804  45.628  57.255  1.00  0.00     0.009 A 
ENDBRANCH   6  12
ENDBRANCH   5   6
ENDBRANCH   1   5
BRANCH   2  18
HETATM   18  C   UNL     1      25.236  45.277  51.791  1.00  0.00     0.035 A 
HETATM   19  C   UNL     1      24.639  44.288  51.004  1.00  0.00     0.042 A 
HETATM   20  C   UNL     1      23.950  44.617  49.823  1.00  0.00    -0.021 A 
HETATM   21  C   UNL     1      23.851  45.961  49.447  1.00  0.00     0.012 A 
HETATM   22  C   UNL     1      24.450  46.955  50.221  1.00  0.00     0.003 A 
HETATM   23  C   UNL     1      25.146  46.613  51.382  1.00  0.00     0.029 A 
BRANCH  20  24
HETATM   24  C   UNL     1      23.346  43.583  48.999  1.00  0.00     0.010 A 
HETATM   25  C   UNL     1      23.043  42.230  49.278  1.00  0.00     0.152 A 
HETATM   26  N   UNL     1      22.461  41.606  48.250  1.00  0.00    -0.187 NA
HETATM   27  N   UNL     1      22.391  42.557  47.305  1.00  0.00    -0.289 N 
HETATM   28  H   UNL     1      21.976  42.319  46.411  1.00  0.00     0.188 HD
HETATM   29  C   UNL     1      22.902  43.758  47.704  1.00  0.00     0.123 A 
ENDBRANCH  20  24
ENDBRANCH   2  18
TORSDOF 6
ENDMDL
MODEL 9
REMARK VINA RESULT:      -8.3      4.519      8.522
REMARK  6 active torsions:
REMARK  status: ('A' for Active; 'I' for Inactive)
REMARK       I    between atoms: C_2  and  N_3 
REMARK    1  A    between atoms: N_3  and  C_4 
REMARK    2  A    between atoms: C_4  and  C_5 
REMARK    3  A    between atoms: C_4  and  C_11 
REMARK    4  A    between atoms: C_11  and  C_12 
REMARK       I    between atoms: C_12  and  N_13 
REMARK    5  A    between atoms: N_13  and  C_14 
REMARK    6  A    between atoms: C_16  and  C_17 
ROOT
HETATM    1  C   UNL     1      27.768  41.038  52.077  1.00  0.00     0.224 C 
HETATM    2  N   UNL     1      28.776  40.381  51.386  1.00  0.00    -0.327 N 
HETATM    3  O   UNL     1      26.602  41.151  51.716  1.00  0.00    -0.273 OA
HETATM    4  H   UNL     1      29.704  40.418  51.790  1.00  0.00     0.169 HD
ENDROOT
BRANCH   1   5
HETATM    5  C   UNL     1      28.284  41.657  53.366  1.00  0.00     0.133 C 
BRANCH   5   6
HETATM    6  C   UNL     1      28.463  43.177  53.233  1.00  0.00     0.126 C 
BRANCH   6   7
HETATM    7  N   UNL     1      27.264  43.951  52.923  1.00  0.00    -0.352 N 
HETATM    8  C   UNL     1      26.953  44.528  51.717  1.00  0.00     0.214 C 
HETATM    9  C   UNL     1      25.646  45.275  51.732  1.00  0.00     0.117 C 
HETATM   10  O   UNL     1      27.636  44.440  50.702  1.00  0.00    -0.274 OA
HETATM   11  H   UNL     1      26.632  44.104  53.696  1.00  0.00     0.163 HD
ENDBRANCH   6   7
BRANCH   6  12
HETATM   12  C   UNL     1      29.227  43.759  54.414  1.00  0.00    -0.035 A 
HETATM   13  C   UNL     1      30.331  43.108  54.984  1.00  0.00     0.009 A 
HETATM   14  C   UNL     1      31.022  43.678  56.055  1.00  0.00     0.001 A 
HETATM   15  C   UNL     1      30.629  44.913  56.565  1.00  0.00     0.000 A 
HETATM   16  C   UNL     1      29.542  45.580  56.004  1.00  0.00     0.001 A 
HETATM   17  C   UNL     1      28.846  45.008  54.938  1.00  0.00     0.009 A 
ENDBRANCH   6  12
ENDBRANCH   5   6
ENDBRANCH   1   5
BRANCH   2  18
HETATM   18  C   UNL     1      28.676  39.740  50.132  1.00  0.00     0.035 A 
HETATM   19  C   UNL     1      28.117  40.331  48.996  1.00  0.00     0.042 A 
HETATM   20  C   UNL     1      28.059  39.642  47.772  1.00  0.00    -0.021 A 
HETATM   21  C   UNL     1      28.588  38.349  47.696  1.00  0.00     0.012 A 
HETATM   22  C   UNL     1      29.141  37.747  48.826  1.00  0.00     0.003 A 
HETATM   23  C   UNL     1      29.177  38.436  50.039  1.00  0.00     0.029 A 
BRANCH  20  24
HETATM   24  C   UNL     1      27.460  40.255  46.598  1.00  0.00     0.010 A 
HETATM   25  C   UNL     1      26.120  40.289  46.148  1.00  0.00     0.152 A 
HETATM   26  N   UNL     1      25.969  40.984  45.017  1.00  0.00    -0.187 NA
HETATM   27  N   UNL     1      27.215  41.399  44.737  1.00  0.00    -0.289 N 
HETATM   28  H   UNL     1      27.360  41.961  43.905  1.00  0.00     0.188 HD
HETATM   29  C   UNL     1      28.142  40.994  45.652  1.00  0.00     0.123 A 
ENDBRANCH  20  24
ENDBRANCH   2  18
TORSDOF 6
ENDMDL
MODEL 10
REMARK VINA RESULT:      -8.3      3.163      8.409
REMARK  6 active torsions:
REMARK  status: ('A' for Active; 'I' for Inactive)
REMARK       I    between atoms: C_2  and  N_3 
REMARK    1  A    between atoms: N_3  and  C_4 
REMARK    2  A    between atoms: C_4  and  C_5 
REMARK    3  A    between atoms: C_4  and  C_11 
REMARK    4  A    between atoms: C_11  and  C_12 
REMARK       I    between atoms: C_12  and  N_13 
REMARK    5  A    between atoms: N_13  and  C_14 
REMARK    6  A    between atoms: C_16  and  C_17 
ROOT
HETATM    1  C   UNL     1      25.456  44.971  50.952  1.00  0.00     0.224 C 
HETATM    2  N   UNL     1      25.846  46.283  51.182  1.00  0.00    -0.327 N 
HETATM    3  O   UNL     1      24.996  44.529  49.905  1.00  0.00    -0.273 OA
HETATM    4  H   UNL     1      26.160  46.506  52.119  1.00  0.00     0.169 HD
ENDROOT
BRANCH   1   5
HETATM    5  C   UNL     1      25.634  44.107  52.191  1.00  0.00     0.133 C 
BRANCH   5   6
HETATM    6  C   UNL     1      26.670  42.995  51.963  1.00  0.00     0.126 C 
BRANCH   6   7
HETATM    7  N   UNL     1      27.010  42.696  50.575  1.00  0.00    -0.352 N 
HETATM    8  C   UNL     1      26.701  41.548  49.888  1.00  0.00     0.214 C 
HETATM    9  C   UNL     1      27.214  41.544  48.471  1.00  0.00     0.117 C 
HETATM   10  O   UNL     1      26.053  40.612  50.342  1.00  0.00    -0.274 OA
HETATM   11  H   UNL     1      27.565  43.394  50.100  1.00  0.00     0.163 HD
ENDBRANCH   6   7
BRANCH   6  12
HETATM   12  C   UNL     1      27.910  43.198  52.822  1.00  0.00    -0.035 A 
HETATM   13  C   UNL     1      27.900  44.004  53.969  1.00  0.00     0.009 A 
HETATM   14  C   UNL     1      29.051  44.153  54.747  1.00  0.00     0.001 A 
HETATM   15  C   UNL     1      30.224  43.489  54.398  1.00  0.00     0.000 A 
HETATM   16  C   UNL     1      30.248  42.674  53.268  1.00  0.00     0.001 A 
HETATM   17  C   UNL     1      29.102  42.530  52.486  1.00  0.00     0.009 A 
ENDBRANCH   6  12
ENDBRANCH   5   6
ENDBRANCH   1   5
BRANCH   2  18
HETATM   18  C   UNL     1      25.771  47.368  50.283  1.00  0.00     0.035 A 
HETATM   19  C   UNL     1      24.576  47.989  49.908  1.00  0.00     0.042 A 
HETATM   20  C   UNL     1      24.570  49.075  49.015  1.00  0.00    -0.021 A 
HETATM   21  C   UNL     1      25.788  49.546  48.512  1.00  0.00     0.012 A 
HETATM   22  C   UNL     1      26.986  48.928  48.874  1.00  0.00     0.003 A 
HETATM   23  C   UNL     1      26.975  47.840  49.747  1.00  0.00     0.029 A 
BRANCH  20  24
HETATM   24  C   UNL     1      23.324  49.706  48.615  1.00  0.00     0.010 A 
HETATM   25  C   UNL     1      22.238  49.218  47.851  1.00  0.00     0.152 A 
HETATM   26  N   UNL     1      21.252  50.111  47.721  1.00  0.00    -0.187 NA
HETATM   27  N   UNL     1      21.704  51.176  48.402  1.00  0.00    -0.289 N 
HETATM   28  H   UNL     1      21.116  52.002  48.450  1.00  0.00     0.188 HD
HETATM   29  C   UNL     1      22.934  50.984  48.959  1.00  0.00     0.123 A 
ENDBRANCH  20  24
ENDBRANCH   2  18
TORSDOF 6
ENDMDL
