MODEL 1
REMARK VINA RESULT:      -9.2      0.000      0.000
REMARK  5 active torsions:
REMARK  status: ('A' for Active; 'I' for Inactive)
REMARK    1  A    between atoms: C_2  and  N_3 
REMARK       I    between atoms: N_3  and  C_4 
REMARK    2  A    between atoms: C_4  and  C_5 
REMARK    3  A    between atoms: C_13  and  C_14 
REMARK    4  A    between atoms: C_16  and  O_17 
REMARK    5  A    between atoms: C_19  and  O_20 
ROOT
HETATM    1  C   UNL     1      27.771  41.348  50.934  1.00  0.00     0.046 A 
HETATM    2  C   UNL     1      26.480  41.842  50.645  1.00  0.00     0.008 A 
HETATM    3  C   UNL     1      26.022  42.888  51.470  1.00  0.00     0.068 A 
HETATM    4  C   UNL     1      24.762  43.424  51.239  1.00  0.00     0.032 A 
HETATM    5  C   UNL     1      23.936  42.962  50.212  1.00  0.00     0.002 A 
HETATM    6  C   UNL     1      24.378  41.939  49.388  1.00  0.00     0.001 A 
HETATM    7  C   UNL     1      25.639  41.385  49.598  1.00  0.00     0.015 A 
HETATM    8  N   UNL     1      26.753  43.405  52.473  1.00  0.00    -0.248 NA
HETATM    9  C   UNL     1      27.980  42.903  52.747  1.00  0.00     0.069 A 
HETATM   10  C   UNL     1      28.516  41.874  51.995  1.00  0.00     0.050 A 
ENDROOT
BRANCH   9  11
HETATM   11  C   UNL     1      28.708  43.548  53.863  1.00  0.00    -0.004 A 
HETATM   12  C   UNL     1      28.237  44.752  54.425  1.00  0.00     0.053 A 
HETATM   13  C   UNL     1      28.924  45.404  55.459  1.00  0.00     0.102 A 
HETATM   14  C   UNL     1      30.127  44.863  55.944  1.00  0.00     0.101 A 
HETATM   15  C   UNL     1      30.592  43.656  55.421  1.00  0.00     0.040 A 
HETATM   16  C   UNL     1      29.889  43.007  54.398  1.00  0.00     0.017 A 
BRANCH  13  17
HETATM   17  O   UNL     1      28.516  46.585  56.030  1.00  0.00    -0.353 OA
HETATM   18  C   UNL     1      27.550  47.350  55.322  1.00  0.00     0.210 C 
ENDBRANCH  13  17
BRANCH  14  19
HETATM   19  O   UNL     1      30.755  45.566  56.941  1.00  0.00    -0.353 OA
HETATM   20  C   UNL     1      31.018  44.877  58.155  1.00  0.00     0.210 C 
ENDBRANCH  14  19
ENDBRANCH   9  11
BRANCH   1  21
HETATM   21  C   UNL     1      28.386  40.241  50.153  1.00  0.00     0.253 C 
HETATM   22  N   UNL     1      28.610  39.082  50.870  1.00  0.00    -0.349 N 
HETATM   23  H   UNL     1      28.554  39.146  51.879  1.00  0.00     0.163 HD
HETATM   24  O   UNL     1      28.646  40.388  48.967  1.00  0.00    -0.268 OA
BRANCH  22  25
HETATM   25  C   UNL     1      29.234  37.865  50.326  1.00  0.00     0.022 C 
HETATM   26  C   UNL     1      29.893  37.052  51.449  1.00  0.00     0.037 C 
HETATM   27  C   UNL     1      30.268  38.200  49.238  1.00  0.00     0.037 C 
HETATM   28  C   UNL     1      28.126  37.013  49.682  1.00  0.00     0.037 C 
ENDBRANCH  22  25
ENDBRANCH   1  21
TORSDOF 5
ENDMDL
MODEL 2
REMARK VINA RESULT:      -8.6      4.078      7.229
REMARK  5 active torsions:
REMARK  status: ('A' for Active; 'I' for Inactive)
REMARK    1  A    between atoms: C_2  and  N_3 
REMARK       I    between atoms: N_3  and  C_4 
REMARK    2  A    between atoms: C_4  and  C_5 
REMARK    3  A    between atoms: C_13  and  C_14 
REMARK    4  A    between atoms: C_16  and  O_17 
REMARK    5  A    between atoms: C_19  and  O_20 
ROOT
HETATM    1  C   UNL     1      24.481  46.953  50.422  1.00  0.00     0.046 A 
HETATM    2  C   UNL     1      23.975  45.684  50.064  1.00  0.00     0.008 A 
HETATM    3  C   UNL     1      24.454  44.595  50.819  1.00  0.00     0.068 A 
HETATM    4  C   UNL     1      23.994  43.319  50.523  1.00  0.00     0.032 A 
HETATM    5  C   UNL     1      23.070  43.080  49.504  1.00  0.00     0.002 A 
HETATM    6  C   UNL     1      22.585  44.144  48.759  1.00  0.00     0.001 A 
HETATM    7  C   UNL     1      23.029  45.435  49.037  1.00  0.00     0.015 A 
HETATM    8  N   UNL     1      25.334  44.731  51.826  1.00  0.00    -0.248 NA
HETATM    9  C   UNL     1      25.823  45.954  52.141  1.00  0.00     0.069 A 
HETATM   10  C   UNL     1      25.415  47.085  51.455  1.00  0.00     0.050 A 
ENDROOT
BRANCH   9  11
HETATM   11  C   UNL     1      26.776  45.998  53.271  1.00  0.00    -0.004 A 
HETATM   12  C   UNL     1      27.603  44.892  53.556  1.00  0.00     0.053 A 
HETATM   13  C   UNL     1      28.490  44.892  54.641  1.00  0.00     0.102 A 
HETATM   14  C   UNL     1      28.553  46.011  55.489  1.00  0.00     0.101 A 
HETATM   15  C   UNL     1      27.764  47.127  55.205  1.00  0.00     0.040 A 
HETATM   16  C   UNL     1      26.892  47.120  54.109  1.00  0.00     0.017 A 
BRANCH  13  17
HETATM   17  O   UNL     1      29.305  43.836  54.970  1.00  0.00    -0.353 OA
HETATM   18  C   UNL     1      29.875  43.097  53.898  1.00  0.00     0.210 C 
ENDBRANCH  13  17
BRANCH  14  19
HETATM   19  O   UNL     1      29.428  45.932  56.543  1.00  0.00    -0.353 OA
HETATM   20  C   UNL     1      28.894  46.118  57.846  1.00  0.00     0.210 C 
ENDBRANCH  14  19
ENDBRANCH   9  11
BRANCH   1  21
HETATM   21  C   UNL     1      24.073  48.195  49.711  1.00  0.00     0.253 C 
HETATM   22  N   UNL     1      22.710  48.415  49.666  1.00  0.00    -0.349 N 
HETATM   23  H   UNL     1      22.110  47.636  49.906  1.00  0.00     0.163 HD
HETATM   24  O   UNL     1      24.916  48.940  49.231  1.00  0.00    -0.268 OA
BRANCH  22  25
HETATM   25  C   UNL     1      22.065  49.555  48.995  1.00  0.00     0.022 C 
HETATM   26  C   UNL     1      20.606  49.223  48.656  1.00  0.00     0.037 C 
HETATM   27  C   UNL     1      22.825  49.964  47.722  1.00  0.00     0.037 C 
HETATM   28  C   UNL     1      22.090  50.750  49.966  1.00  0.00     0.037 C 
ENDBRANCH  22  25
ENDBRANCH   1  21
TORSDOF 5
ENDMDL
MODEL 3
REMARK VINA RESULT:      -8.4      4.376      7.381
REMARK  5 active torsions:
REMARK  status: ('A' for Active; 'I' for Inactive)
REMARK    1  A    between atoms: C_2  and  N_3 
REMARK       I    between atoms: N_3  and  C_4 
REMARK    2  A    between atoms: C_4  and  C_5 
REMARK    3  A    between atoms: C_13  and  C_14 
REMARK    4  A    between atoms: C_16  and  O_17 
REMARK    5  A    between atoms: C_19  and  O_20 
ROOT
HETATM    1  C   UNL     1      24.244  47.079  50.045  1.00  0.00     0.046 A 
HETATM    2  C   UNL     1      23.684  45.861  49.603  1.00  0.00     0.008 A 
HETATM    3  C   UNL     1      24.064  44.711  50.322  1.00  0.00     0.068 A 
HETATM    4  C   UNL     1      23.547  43.480  49.942  1.00  0.00     0.032 A 
HETATM    5  C   UNL     1      22.659  43.345  48.874  1.00  0.00     0.002 A 
HETATM    6  C   UNL     1      22.270  44.469  48.162  1.00  0.00     0.001 A 
HETATM    7  C   UNL     1      22.774  45.718  48.524  1.00  0.00     0.015 A 
HETATM    8  N   UNL     1      24.902  44.746  51.372  1.00  0.00    -0.248 NA
HETATM    9  C   UNL     1      25.445  45.922  51.768  1.00  0.00     0.069 A 
HETATM   10  C   UNL     1      25.135  47.106  51.124  1.00  0.00     0.050 A 
ENDROOT
BRANCH   9  11
HETATM   11  C   UNL     1      26.345  45.856  52.941  1.00  0.00    -0.004 A 
HETATM   12  C   UNL     1      26.332  46.875  53.914  1.00  0.00     0.053 A 
HETATM   13  C   UNL     1      27.197  46.858  55.017  1.00  0.00     0.102 A 
HETATM   14  C   UNL     1      28.123  45.810  55.158  1.00  0.00     0.101 A 
HETATM   15  C   UNL     1      28.130  44.775  54.221  1.00  0.00     0.040 A 
HETATM   16  C   UNL     1      27.250  44.798  53.131  1.00  0.00     0.017 A 
BRANCH  13  17
HETATM   17  O   UNL     1      27.235  47.834  55.983  1.00  0.00    -0.353 OA
HETATM   18  C   UNL     1      26.234  48.841  55.928  1.00  0.00     0.210 C 
ENDBRANCH  13  17
BRANCH  14  19
HETATM   19  O   UNL     1      28.952  45.868  56.249  1.00  0.00    -0.353 OA
HETATM   20  C   UNL     1      30.157  45.118  56.191  1.00  0.00     0.210 C 
ENDBRANCH  14  19
ENDBRANCH   9  11
BRANCH   1  21
HETATM   21  C   UNL     1      23.941  48.376  49.381  1.00  0.00     0.253 C 
HETATM   22  N   UNL     1      22.706  48.910  49.691  1.00  0.00    -0.349 N 
HETATM   23  H   UNL     1      22.039  48.297  50.144  1.00  0.00     0.163 HD
HETATM   24  O   UNL     1      24.758  48.896  48.635  1.00  0.00    -0.268 OA
BRANCH  22  25
HETATM   25  C   UNL     1      22.170  50.164  49.137  1.00  0.00     0.022 C 
HETATM   26  C   UNL     1      21.617  49.933  47.724  1.00  0.00     0.037 C 
HETATM   27  C   UNL     1      23.236  51.272  49.114  1.00  0.00     0.037 C 
HETATM   28  C   UNL     1      21.020  50.630  50.049  1.00  0.00     0.037 C 
ENDBRANCH  22  25
ENDBRANCH   1  21
TORSDOF 5
ENDMDL
MODEL 4
REMARK VINA RESULT:      -8.4      1.681      4.305
REMARK  5 active torsions:
REMARK  status: ('A' for Active; 'I' for Inactive)
REMARK    1  A    between atoms: C_2  and  N_3 
REMARK       I    between atoms: N_3  and  C_4 
REMARK    2  A    between atoms: C_4  and  C_5 
REMARK    3  A    between atoms: C_13  and  C_14 
REMARK    4  A    between atoms: C_16  and  O_17 
REMARK    5  A    between atoms: C_19  and  O_20 
ROOT
HETATM    1  C   UNL     1      27.339  42.912  50.905  1.00  0.00     0.046 A 
HETATM    2  C   UNL     1      27.776  41.589  50.677  1.00  0.00     0.008 A 
HETATM    3  C   UNL     1      28.678  41.067  51.625  1.00  0.00     0.068 A 
HETATM    4  C   UNL     1      29.145  39.769  51.464  1.00  0.00     0.032 A 
HETATM    5  C   UNL     1      28.747  38.964  50.395  1.00  0.00     0.002 A 
HETATM    6  C   UNL     1      27.854  39.463  49.459  1.00  0.00     0.001 A 
HETATM    7  C   UNL     1      27.369  40.762  49.599  1.00  0.00     0.015 A 
HETATM    8  N   UNL     1      29.106  41.763  52.692  1.00  0.00    -0.248 NA
HETATM    9  C   UNL     1      28.691  43.038  52.882  1.00  0.00     0.069 A 
HETATM   10  C   UNL     1      27.807  43.640  52.004  1.00  0.00     0.050 A 
ENDROOT
BRANCH   9  11
HETATM   11  C   UNL     1      29.210  43.714  54.091  1.00  0.00    -0.004 A 
HETATM   12  C   UNL     1      28.563  44.854  54.609  1.00  0.00     0.053 A 
HETATM   13  C   UNL     1      29.051  45.536  55.733  1.00  0.00     0.102 A 
HETATM   14  C   UNL     1      30.228  45.091  56.359  1.00  0.00     0.101 A 
HETATM   15  C   UNL     1      30.865  43.946  55.879  1.00  0.00     0.040 A 
HETATM   16  C   UNL     1      30.359  43.266  54.764  1.00  0.00     0.017 A 
BRANCH  13  17
HETATM   17  O   UNL     1      28.467  46.659  56.267  1.00  0.00    -0.353 OA
HETATM   18  C   UNL     1      27.485  47.318  55.479  1.00  0.00     0.210 C 
ENDBRANCH  13  17
BRANCH  14  19
HETATM   19  O   UNL     1      30.659  45.819  57.439  1.00  0.00    -0.353 OA
HETATM   20  C   UNL     1      31.056  45.094  58.594  1.00  0.00     0.210 C 
ENDBRANCH  14  19
ENDBRANCH   9  11
BRANCH   1  21
HETATM   21  C   UNL     1      26.392  43.600  49.987  1.00  0.00     0.253 C 
HETATM   22  N   UNL     1      25.060  43.297  50.195  1.00  0.00    -0.349 N 
HETATM   23  H   UNL     1      24.856  42.493  50.776  1.00  0.00     0.163 HD
HETATM   24  O   UNL     1      26.805  44.376  49.137  1.00  0.00    -0.268 OA
BRANCH  22  25
HETATM   25  C   UNL     1      23.943  43.827  49.397  1.00  0.00     0.022 C 
HETATM   26  C   UNL     1      24.000  43.279  47.964  1.00  0.00     0.037 C 
HETATM   27  C   UNL     1      23.944  45.365  49.377  1.00  0.00     0.037 C 
HETATM   28  C   UNL     1      22.631  43.361  50.054  1.00  0.00     0.037 C 
ENDBRANCH  22  25
ENDBRANCH   1  21
TORSDOF 5
ENDMDL
MODEL 5
REMARK VINA RESULT:      -8.3      1.044      2.076
REMARK  5 active torsions:
REMARK  status: ('A' for Active; 'I' for Inactive)
REMARK    1  A    between atoms: C_2  and  N_3 
REMARK       I    between atoms: N_3  and  C_4 
REMARK    2  A    between atoms: C_4  and  C_5 
REMARK    3  A    between atoms: C_13  and  C_14 
REMARK    4  A    between atoms: C_16  and  O_17 
REMARK    5  A    between atoms: C_19  and  O_20 
ROOT
HETATM    1  C   UNL     1      27.326  41.503  50.569  1.00  0.00     0.046 A 
HETATM    2  C   UNL     1      25.991  41.821  50.234  1.00  0.00     0.008 A 
HETATM    3  C   UNL     1      25.397  42.852  50.986  1.00  0.00     0.068 A 
HETATM    4  C   UNL     1      24.087  43.218  50.706  1.00  0.00     0.032 A 
HETATM    5  C   UNL     1      23.342  42.599  49.701  1.00  0.00     0.002 A 
HETATM    6  C   UNL     1      23.917  41.588  48.947  1.00  0.00     0.001 A 
HETATM    7  C   UNL     1      25.231  41.203  49.208  1.00  0.00     0.015 A 
HETATM    8  N   UNL     1      26.040  43.513  51.964  1.00  0.00    -0.248 NA
HETATM    9  C   UNL     1      27.313  43.180  52.284  1.00  0.00     0.069 A 
HETATM   10  C   UNL     1      27.983  42.178  51.604  1.00  0.00     0.050 A 
ENDROOT
BRANCH   9  11
HETATM   11  C   UNL     1      27.937  43.974  53.365  1.00  0.00    -0.004 A 
HETATM   12  C   UNL     1      29.192  43.606  53.892  1.00  0.00     0.053 A 
HETATM   13  C   UNL     1      29.792  44.319  54.941  1.00  0.00     0.102 A 
HETATM   14  C   UNL     1      29.125  45.420  55.503  1.00  0.00     0.101 A 
HETATM   15  C   UNL     1      27.896  45.818  54.974  1.00  0.00     0.040 A 
HETATM   16  C   UNL     1      27.315  45.106  53.917  1.00  0.00     0.017 A 
BRANCH  13  17
HETATM   17  O   UNL     1      31.003  43.993  55.499  1.00  0.00    -0.353 OA
HETATM   18  C   UNL     1      31.004  43.000  56.516  1.00  0.00     0.210 C 
ENDBRANCH  13  17
BRANCH  14  19
HETATM   19  O   UNL     1      29.761  46.057  56.539  1.00  0.00    -0.353 OA
HETATM   20  C   UNL     1      29.136  46.008  57.814  1.00  0.00     0.210 C 
ENDBRANCH  14  19
ENDBRANCH   9  11
BRANCH   1  21
HETATM   21  C   UNL     1      28.083  40.432  49.867  1.00  0.00     0.253 C 
HETATM   22  N   UNL     1      27.867  39.157  50.352  1.00  0.00    -0.349 N 
HETATM   23  H   UNL     1      27.410  39.078  51.252  1.00  0.00     0.163 HD
HETATM   24  O   UNL     1      28.820  40.706  48.930  1.00  0.00    -0.268 OA
BRANCH  22  25
HETATM   25  C   UNL     1      28.525  37.942  49.843  1.00  0.00     0.022 C 
HETATM   26  C   UNL     1      28.773  38.059  48.333  1.00  0.00     0.037 C 
HETATM   27  C   UNL     1      27.697  36.683  50.149  1.00  0.00     0.037 C 
HETATM   28  C   UNL     1      29.881  37.804  50.559  1.00  0.00     0.037 C 
ENDBRANCH  22  25
ENDBRANCH   1  21
TORSDOF 5
ENDMDL
MODEL 6
REMARK VINA RESULT:      -8.2      2.491      8.153
REMARK  5 active torsions:
REMARK  status: ('A' for Active; 'I' for Inactive)
REMARK    1  A    between atoms: C_2  and  N_3 
REMARK       I    between atoms: N_3  and  C_4 
REMARK    2  A    between atoms: C_4  and  C_5 
REMARK    3  A    between atoms: C_13  and  C_14 
REMARK    4  A    between atoms: C_16  and  O_17 
REMARK    5  A    between atoms: C_19  and  O_20 
ROOT
HETATM    1  C   UNL     1      27.377  43.707  52.314  1.00  0.00     0.046 A 
HETATM    2  C   UNL     1      28.340  43.762  53.345  1.00  0.00     0.008 A 
HETATM    3  C   UNL     1      29.286  42.719  53.360  1.00  0.00     0.068 A 
HETATM    4  C   UNL     1      30.264  42.714  54.346  1.00  0.00     0.032 A 
HETATM    5  C   UNL     1      30.343  43.712  55.319  1.00  0.00     0.002 A 
HETATM    6  C   UNL     1      29.423  44.748  55.311  1.00  0.00     0.001 A 
HETATM    7  C   UNL     1      28.431  44.777  54.332  1.00  0.00     0.015 A 
HETATM    8  N   UNL     1      29.297  41.724  52.457  1.00  0.00    -0.248 NA
HETATM    9  C   UNL     1      28.352  41.677  51.487  1.00  0.00     0.069 A 
HETATM   10  C   UNL     1      27.378  42.655  51.391  1.00  0.00     0.050 A 
ENDROOT
BRANCH   9  11
HETATM   11  C   UNL     1      28.458  40.550  50.536  1.00  0.00    -0.004 A 
HETATM   12  C   UNL     1      29.157  39.377  50.887  1.00  0.00     0.053 A 
HETATM   13  C   UNL     1      29.303  38.306  49.994  1.00  0.00     0.102 A 
HETATM   14  C   UNL     1      28.759  38.400  48.702  1.00  0.00     0.101 A 
HETATM   15  C   UNL     1      28.038  39.540  48.346  1.00  0.00     0.040 A 
HETATM   16  C   UNL     1      27.886  40.596  49.253  1.00  0.00     0.017 A 
BRANCH  13  17
HETATM   17  O   UNL     1      29.987  37.150  50.282  1.00  0.00    -0.353 OA
HETATM   18  C   UNL     1      29.919  36.671  51.619  1.00  0.00     0.210 C 
ENDBRANCH  13  17
BRANCH  14  19
HETATM   19  O   UNL     1      28.959  37.323  47.875  1.00  0.00    -0.353 OA
HETATM   20  C   UNL     1      27.965  37.064  46.894  1.00  0.00     0.210 C 
ENDBRANCH  14  19
ENDBRANCH   9  11
BRANCH   1  21
HETATM   21  C   UNL     1      26.310  44.734  52.173  1.00  0.00     0.253 C 
HETATM   22  N   UNL     1      26.572  45.715  51.237  1.00  0.00    -0.349 N 
HETATM   23  H   UNL     1      27.524  45.788  50.899  1.00  0.00     0.163 HD
HETATM   24  O   UNL     1      25.291  44.667  52.846  1.00  0.00    -0.268 OA
BRANCH  22  25
HETATM   25  C   UNL     1      25.685  46.852  50.941  1.00  0.00     0.022 C 
HETATM   26  C   UNL     1      24.406  46.368  50.245  1.00  0.00     0.037 C 
HETATM   27  C   UNL     1      26.392  47.909  50.075  1.00  0.00     0.037 C 
HETATM   28  C   UNL     1      25.302  47.513  52.278  1.00  0.00     0.037 C 
ENDBRANCH  22  25
ENDBRANCH   1  21
TORSDOF 5
ENDMDL
MODEL 7
REMARK VINA RESULT:      -8.1      1.599      2.051
REMARK  5 active torsions:
REMARK  status: ('A' for Active; 'I' for Inactive)
REMARK    1  A    between atoms: C_2  and  N_3 
REMARK       I    between atoms: N_3  and  C_4 
REMARK    2  A    between atoms: C_4  and  C_5 
REMARK    3  A    between atoms: C_13  and  C_14 
REMARK    4  A    between atoms: C_16  and  O_17 
REMARK    5  A    between atoms: C_19  and  O_20 
ROOT
HETATM    1  C   UNL     1      26.526  41.482  50.675  1.00  0.00     0.046 A 
HETATM    2  C   UNL     1      25.413  42.327  50.473  1.00  0.00     0.008 A 
HETATM    3  C   UNL     1      25.341  43.461  51.305  1.00  0.00     0.068 A 
HETATM    4  C   UNL     1      24.274  44.336  51.156  1.00  0.00     0.032 A 
HETATM    5  C   UNL     1      23.272  44.132  50.206  1.00  0.00     0.002 A 
HETATM    6  C   UNL     1      23.335  43.024  49.374  1.00  0.00     0.001 A 
HETATM    7  C   UNL     1      24.396  42.130  49.503  1.00  0.00     0.015 A 
HETATM    8  N   UNL     1      26.265  43.746  52.238  1.00  0.00    -0.248 NA
HETATM    9  C   UNL     1      27.315  42.912  52.431  1.00  0.00     0.069 A 
HETATM   10  C   UNL     1      27.472  41.771  51.665  1.00  0.00     0.050 A 
ENDROOT
BRANCH   9  11
HETATM   11  C   UNL     1      28.282  43.321  53.473  1.00  0.00    -0.004 A 
HETATM   12  C   UNL     1      28.068  44.490  54.231  1.00  0.00     0.053 A 
HETATM   13  C   UNL     1      28.985  44.922  55.201  1.00  0.00     0.102 A 
HETATM   14  C   UNL     1      30.163  44.187  55.420  1.00  0.00     0.101 A 
HETATM   15  C   UNL     1      30.377  43.011  54.701  1.00  0.00     0.040 A 
HETATM   16  C   UNL     1      29.447  42.583  53.745  1.00  0.00     0.017 A 
BRANCH  13  17
HETATM   17  O   UNL     1      28.831  46.060  55.954  1.00  0.00    -0.353 OA
HETATM   18  C   UNL     1      27.975  47.070  55.438  1.00  0.00     0.210 C 
ENDBRANCH  13  17
BRANCH  14  19
HETATM   19  O   UNL     1      31.023  44.680  56.369  1.00  0.00    -0.353 OA
HETATM   20  C   UNL     1      31.393  43.806  57.425  1.00  0.00     0.210 C 
ENDBRANCH  14  19
ENDBRANCH   9  11
BRANCH   1  21
HETATM   21  C   UNL     1      26.734  40.244  49.877  1.00  0.00     0.253 C 
HETATM   22  N   UNL     1      27.323  40.443  48.643  1.00  0.00    -0.349 N 
HETATM   23  H   UNL     1      27.356  41.394  48.296  1.00  0.00     0.163 HD
HETATM   24  O   UNL     1      26.404  39.154  50.324  1.00  0.00    -0.268 OA
BRANCH  22  25
HETATM   25  C   UNL     1      27.602  39.380  47.664  1.00  0.00     0.022 C 
HETATM   26  C   UNL     1      28.018  39.986  46.317  1.00  0.00     0.037 C 
HETATM   27  C   UNL     1      26.388  38.454  47.476  1.00  0.00     0.037 C 
HETATM   28  C   UNL     1      28.766  38.531  48.207  1.00  0.00     0.037 C 
ENDBRANCH  22  25
ENDBRANCH   1  21
TORSDOF 5
ENDMDL
MODEL 8
REMARK VINA RESULT:      -7.9      7.432     10.419
REMARK  5 active torsions:
REMARK  status: ('A' for Active; 'I' for Inactive)
REMARK    1  A    between atoms: C_2  and  N_3 
REMARK       I    between atoms: N_3  and  C_4 
REMARK    2  A    between atoms: C_4  and  C_5 
REMARK    3  A    between atoms: C_13  and  C_14 
REMARK    4  A    between atoms: C_16  and  O_17 
REMARK    5  A    between atoms: C_19  and  O_20 
ROOT
HETATM    1  C   UNL     1      24.216  47.235  49.537  1.00  0.00     0.046 A 
HETATM    2  C   UNL     1      25.374  48.008  49.300  1.00  0.00     0.008 A 
HETATM    3  C   UNL     1      25.155  49.320  48.838  1.00  0.00     0.068 A 
HETATM    4  C   UNL     1      26.250  50.135  48.588  1.00  0.00     0.032 A 
HETATM    5  C   UNL     1      27.562  49.698  48.783  1.00  0.00     0.002 A 
HETATM    6  C   UNL     1      27.791  48.411  49.245  1.00  0.00     0.001 A 
HETATM    7  C   UNL     1      26.709  47.573  49.505  1.00  0.00     0.015 A 
HETATM    8  N   UNL     1      23.929  49.831  48.634  1.00  0.00    -0.248 NA
HETATM    9  C   UNL     1      22.831  49.068  48.848  1.00  0.00     0.069 A 
HETATM   10  C   UNL     1      22.942  47.765  49.300  1.00  0.00     0.050 A 
ENDROOT
BRANCH   9  11
HETATM   11  C   UNL     1      21.528  49.727  48.606  1.00  0.00    -0.004 A 
HETATM   12  C   UNL     1      20.388  48.964  48.282  1.00  0.00     0.053 A 
HETATM   13  C   UNL     1      19.148  49.562  48.013  1.00  0.00     0.102 A 
HETATM   14  C   UNL     1      19.031  50.962  48.045  1.00  0.00     0.101 A 
HETATM   15  C   UNL     1      20.141  51.732  48.394  1.00  0.00     0.040 A 
HETATM   16  C   UNL     1      21.370  51.121  48.674  1.00  0.00     0.017 A 
BRANCH  13  17
HETATM   17  O   UNL     1      18.013  48.866  47.679  1.00  0.00    -0.353 OA
HETATM   18  C   UNL     1      17.397  48.096  48.703  1.00  0.00     0.210 C 
ENDBRANCH  13  17
BRANCH  14  19
HETATM   19  O   UNL     1      17.794  51.479  47.751  1.00  0.00    -0.353 OA
HETATM   20  C   UNL     1      17.086  52.109  48.809  1.00  0.00     0.210 C 
ENDBRANCH  14  19
ENDBRANCH   9  11
BRANCH   1  21
HETATM   21  C   UNL     1      24.288  45.830  50.020  1.00  0.00     0.253 C 
HETATM   22  N   UNL     1      24.205  44.872  49.029  1.00  0.00    -0.349 N 
HETATM   23  H   UNL     1      23.885  45.178  48.118  1.00  0.00     0.163 HD
HETATM   24  O   UNL     1      24.422  45.590  51.212  1.00  0.00    -0.268 OA
BRANCH  22  25
HETATM   25  C   UNL     1      24.221  43.419  49.261  1.00  0.00     0.022 C 
HETATM   26  C   UNL     1      23.069  43.010  50.189  1.00  0.00     0.037 C 
HETATM   27  C   UNL     1      25.565  42.957  49.850  1.00  0.00     0.037 C 
HETATM   28  C   UNL     1      24.034  42.721  47.901  1.00  0.00     0.037 C 
ENDBRANCH  22  25
ENDBRANCH   1  21
TORSDOF 5
ENDMDL
MODEL 9
REMARK VINA RESULT:      -7.8      2.567      8.206
REMARK  5 active torsions:
REMARK  status: ('A' for Active; 'I' for Inactive)
REMARK    1  A    between atoms: C_2  and  N_3 
REMARK       I    between atoms: N_3  and  C_4 
REMARK    2  A    between atoms: C_4  and  C_5 
REMARK    3  A    between atoms: C_13  and  C_14 
REMARK    4  A    between atoms: C_16  and  O_17 
REMARK    5  A    between atoms: C_19  and  O_20 
ROOT
HETATM    1  C   UNL     1      27.311  43.492  52.026  1.00  0.00     0.046 A 
HETATM    2  C   UNL     1      28.288  43.518  53.046  1.00  0.00     0.008 A 
HETATM    3  C   UNL     1      29.234  42.475  53.018  1.00  0.00     0.068 A 
HETATM    4  C   UNL     1      30.226  42.442  53.990  1.00  0.00     0.032 A 
HETATM    5  C   UNL     1      30.317  43.411  54.991  1.00  0.00     0.002 A 
HETATM    6  C   UNL     1      29.397  44.447  55.025  1.00  0.00     0.001 A 
HETATM    7  C   UNL     1      28.392  44.504  54.060  1.00  0.00     0.015 A 
HETATM    8  N   UNL     1      29.233  41.507  52.086  1.00  0.00    -0.248 NA
HETATM    9  C   UNL     1      28.276  41.488  51.128  1.00  0.00     0.069 A 
HETATM   10  C   UNL     1      27.300  42.468  51.073  1.00  0.00     0.050 A 
ENDROOT
BRANCH   9  11
HETATM   11  C   UNL     1      28.368  40.389  50.142  1.00  0.00    -0.004 A 
HETATM   12  C   UNL     1      28.014  40.602  48.795  1.00  0.00     0.053 A 
HETATM   13  C   UNL     1      28.058  39.571  47.846  1.00  0.00     0.102 A 
HETATM   14  C   UNL     1      28.447  38.279  48.240  1.00  0.00     0.101 A 
HETATM   15  C   UNL     1      28.831  38.056  49.563  1.00  0.00     0.040 A 
HETATM   16  C   UNL     1      28.796  39.099  50.498  1.00  0.00     0.017 A 
BRANCH  13  17
HETATM   17  O   UNL     1      27.708  39.722  46.526  1.00  0.00    -0.353 OA
HETATM   18  C   UNL     1      28.110  40.923  45.881  1.00  0.00     0.210 C 
ENDBRANCH  13  17
BRANCH  14  19
HETATM   19  O   UNL     1      28.447  37.315  47.263  1.00  0.00    -0.353 OA
HETATM   20  C   UNL     1      27.292  36.494  47.161  1.00  0.00     0.210 C 
ENDBRANCH  14  19
ENDBRANCH   9  11
BRANCH   1  21
HETATM   21  C   UNL     1      26.243  44.523  51.929  1.00  0.00     0.253 C 
HETATM   22  N   UNL     1      26.560  45.614  51.143  1.00  0.00    -0.349 N 
HETATM   23  H   UNL     1      27.534  45.733  50.892  1.00  0.00     0.163 HD
HETATM   24  O   UNL     1      25.177  44.368  52.508  1.00  0.00    -0.268 OA
BRANCH  22  25
HETATM   25  C   UNL     1      25.681  46.773  50.920  1.00  0.00     0.022 C 
HETATM   26  C   UNL     1      24.382  46.337  50.230  1.00  0.00     0.037 C 
HETATM   27  C   UNL     1      26.383  47.861  50.090  1.00  0.00     0.037 C 
HETATM   28  C   UNL     1      25.335  47.374  52.295  1.00  0.00     0.037 C 
ENDBRANCH  22  25
ENDBRANCH   1  21
TORSDOF 5
ENDMDL
MODEL 10
REMARK VINA RESULT:      -7.8      6.897     10.002
REMARK  5 active torsions:
REMARK  status: ('A' for Active; 'I' for Inactive)
REMARK    1  A    between atoms: C_2  and  N_3 
REMARK       I    between atoms: N_3  and  C_4 
REMARK    2  A    between atoms: C_4  and  C_5 
REMARK    3  A    between atoms: C_13  and  C_14 
REMARK    4  A    between atoms: C_16  and  O_17 
REMARK    5  A    between atoms: C_19  and  O_20 
ROOT
HETATM    1  C   UNL     1      24.616  47.012  49.827  1.00  0.00     0.046 A 
HETATM    2  C   UNL     1      25.515  48.018  49.410  1.00  0.00     0.008 A 
HETATM    3  C   UNL     1      24.954  49.077  48.670  1.00  0.00     0.068 A 
HETATM    4  C   UNL     1      25.781  50.101  48.231  1.00  0.00     0.032 A 
HETATM    5  C   UNL     1      27.150  50.119  48.503  1.00  0.00     0.002 A 
HETATM    6  C   UNL     1      27.714  49.087  49.237  1.00  0.00     0.001 A 
HETATM    7  C   UNL     1      26.905  48.046  49.690  1.00  0.00     0.015 A 
HETATM    8  N   UNL     1      23.645  49.151  48.372  1.00  0.00    -0.248 NA
HETATM    9  C   UNL     1      22.802  48.166  48.764  1.00  0.00     0.069 A 
HETATM   10  C   UNL     1      23.259  47.083  49.493  1.00  0.00     0.050 A 
ENDROOT
BRANCH   9  11
HETATM   11  C   UNL     1      21.381  48.348  48.396  1.00  0.00    -0.004 A 
HETATM   12  C   UNL     1      20.590  49.315  49.049  1.00  0.00     0.053 A 
HETATM   13  C   UNL     1      19.231  49.486  48.747  1.00  0.00     0.102 A 
HETATM   14  C   UNL     1      18.624  48.664  47.783  1.00  0.00     0.101 A 
HETATM   15  C   UNL     1      19.399  47.722  47.105  1.00  0.00     0.040 A 
HETATM   16  C   UNL     1      20.758  47.571  47.406  1.00  0.00     0.017 A 
BRANCH  13  17
HETATM   17  O   UNL     1      18.414  50.402  49.363  1.00  0.00    -0.353 OA
HETATM   18  C   UNL     1      19.020  51.597  49.839  1.00  0.00     0.210 C 
ENDBRANCH  13  17
BRANCH  14  19
HETATM   19  O   UNL     1      17.287  48.873  47.554  1.00  0.00    -0.353 OA
HETATM   20  C   UNL     1      16.392  47.844  47.949  1.00  0.00     0.210 C 
ENDBRANCH  14  19
ENDBRANCH   9  11
BRANCH   1  21
HETATM   21  C   UNL     1      25.062  45.828  50.610  1.00  0.00     0.253 C 
HETATM   22  N   UNL     1      25.607  44.807  49.856  1.00  0.00    -0.349 N 
HETATM   23  H   UNL     1      25.458  44.843  48.855  1.00  0.00     0.163 HD
HETATM   24  O   UNL     1      24.946  45.811  51.828  1.00  0.00    -0.268 OA
BRANCH  22  25
HETATM   25  C   UNL     1      26.089  43.527  50.400  1.00  0.00     0.022 C 
HETATM   26  C   UNL     1      24.946  42.773  51.093  1.00  0.00     0.037 C 
HETATM   27  C   UNL     1      27.257  43.733  51.378  1.00  0.00     0.037 C 
HETATM   28  C   UNL     1      26.601  42.677  49.222  1.00  0.00     0.037 C 
ENDBRANCH  22  25
ENDBRANCH   1  21
TORSDOF 5
ENDMDL
