MODEL 1
REMARK VINA RESULT:      -8.1      0.000      0.000
REMARK  6 active torsions:
REMARK  status: ('A' for Active; 'I' for Inactive)
REMARK    1  A    between atoms: C_2  and  C_3 
REMARK    2  A    between atoms: C_3  and  N_4 
REMARK    3  A    between atoms: C_3  and  C_17 
REMARK    4  A    between atoms: N_4  and  C_5 
REMARK    5  A    between atoms: C_5  and  C_6 
REMARK       I    between atoms: C_6  and  N_7 
REMARK    6  A    between atoms: N_7  and  C_8 
ROOT
HETATM    1  N   UNL     1      27.730  43.384  53.897  1.00  0.00     0.101 N 
HETATM    2  H   UNL     1      27.505  43.363  54.893  1.00  0.00     0.317 HD
ENDROOT
BRANCH   1   3
HETATM    3  C   UNL     1      29.130  43.823  53.732  1.00  0.00     0.256 C 
BRANCH   3   4
HETATM    4  C   UNL     1      29.918  42.761  52.932  1.00  0.00     0.036 C 
HETATM    5  C   UNL     1      29.180  41.433  52.812  1.00  0.00     0.007 C 
ENDBRANCH   3   4
BRANCH   3   6
HETATM    6  C   UNL     1      29.819  44.094  55.062  1.00  0.00     0.013 A 
HETATM    7  C   UNL     1      29.530  45.270  55.770  1.00  0.00     0.127 A 
HETATM    8  F   UNL     1      28.661  46.158  55.264  1.00  0.00    -0.205 F 
HETATM    9  C   UNL     1      30.115  45.545  57.001  1.00  0.00     0.085 A 
HETATM   10  C   UNL     1      31.008  44.631  57.538  1.00  0.00     0.119 A 
HETATM   11  F   UNL     1      31.575  44.881  58.725  1.00  0.00    -0.206 F 
HETATM   12  C   UNL     1      31.326  43.457  56.863  1.00  0.00     0.043 A 
HETATM   13  C   UNL     1      30.736  43.188  55.626  1.00  0.00     0.015 A 
ENDBRANCH   3   6
ENDBRANCH   1   3
BRANCH   1  14
HETATM   14  C   UNL     1      26.784  44.305  53.225  1.00  0.00     0.372 C 
BRANCH  14  15
HETATM   15  C   UNL     1      26.501  43.827  51.795  1.00  0.00     0.250 C 
HETATM   16  N   UNL     1      25.497  42.881  51.747  1.00  0.00    -0.322 N 
HETATM   17  H   UNL     1      25.141  42.587  52.651  1.00  0.00     0.169 HD
HETATM   18  O   UNL     1      27.170  44.238  50.855  1.00  0.00    -0.271 OA
BRANCH  16  19
HETATM   19  C   UNL     1      24.954  42.289  50.624  1.00  0.00     0.085 A 
HETATM   20  C   UNL     1      23.811  42.571  49.818  1.00  0.00     0.079 A 
HETATM   21  C   UNL     1      22.769  43.619  49.956  1.00  0.00     0.075 C 
HETATM   22  N   UNL     1      23.688  41.686  48.817  1.00  0.00    -0.177 NA
HETATM   23  N   UNL     1      24.723  40.856  48.980  1.00  0.00    -0.280 N 
HETATM   24  H   UNL     1      24.832  40.098  48.316  1.00  0.00     0.189 HD
HETATM   25  C   UNL     1      25.508  41.158  50.055  1.00  0.00     0.052 A 
HETATM   26  C   UNL     1      26.703  40.351  50.395  1.00  0.00     0.072 C 
ENDBRANCH  16  19
ENDBRANCH  14  15
ENDBRANCH   1  14
TORSDOF 6
ENDMDL
MODEL 2
REMARK VINA RESULT:      -8.0      1.284      1.963
REMARK  6 active torsions:
REMARK  status: ('A' for Active; 'I' for Inactive)
REMARK    1  A    between atoms: C_2  and  C_3 
REMARK    2  A    between atoms: C_3  and  N_4 
REMARK    3  A    between atoms: C_3  and  C_17 
REMARK    4  A    between atoms: N_4  and  C_5 
REMARK    5  A    between atoms: C_5  and  C_6 
REMARK       I    between atoms: C_6  and  N_7 
REMARK    6  A    between atoms: N_7  and  C_8 
ROOT
HETATM    1  N   UNL     1      27.769  43.294  54.133  1.00  0.00     0.101 N 
HETATM    2  H   UNL     1      27.704  42.940  55.088  1.00  0.00     0.317 HD
ENDROOT
BRANCH   1   3
HETATM    3  C   UNL     1      29.128  43.829  53.911  1.00  0.00     0.256 C 
BRANCH   3   4
HETATM    4  C   UNL     1      29.931  42.856  53.018  1.00  0.00     0.036 C 
HETATM    5  C   UNL     1      29.209  41.536  52.771  1.00  0.00     0.007 C 
ENDBRANCH   3   4
BRANCH   3   6
HETATM    6  C   UNL     1      29.876  44.083  55.212  1.00  0.00     0.013 A 
HETATM    7  C   UNL     1      29.703  45.300  55.889  1.00  0.00     0.127 A 
HETATM    8  F   UNL     1      28.892  46.239  55.379  1.00  0.00    -0.205 F 
HETATM    9  C   UNL     1      30.344  45.564  57.094  1.00  0.00     0.085 A 
HETATM   10  C   UNL     1      31.177  44.598  57.636  1.00  0.00     0.119 A 
HETATM   11  F   UNL     1      31.797  44.837  58.798  1.00  0.00    -0.206 F 
HETATM   12  C   UNL     1      31.380  43.382  56.991  1.00  0.00     0.043 A 
HETATM   13  C   UNL     1      30.734  43.123  55.780  1.00  0.00     0.015 A 
ENDBRANCH   3   6
ENDBRANCH   1   3
BRANCH   1  14
HETATM   14  C   UNL     1      26.733  44.338  53.951  1.00  0.00     0.372 C 
BRANCH  14  15
HETATM   15  C   UNL     1      25.798  43.964  52.794  1.00  0.00     0.250 C 
HETATM   16  N   UNL     1      26.490  43.610  51.654  1.00  0.00    -0.322 N 
HETATM   17  H   UNL     1      27.498  43.710  51.716  1.00  0.00     0.169 HD
HETATM   18  O   UNL     1      24.583  44.051  52.919  1.00  0.00    -0.271 OA
BRANCH  16  19
HETATM   19  C   UNL     1      25.965  43.165  50.456  1.00  0.00     0.085 A 
HETATM   20  C   UNL     1      25.767  41.870  49.890  1.00  0.00     0.079 A 
HETATM   21  C   UNL     1      26.114  40.525  50.414  1.00  0.00     0.075 C 
HETATM   22  N   UNL     1      25.218  41.950  48.668  1.00  0.00    -0.177 NA
HETATM   23  N   UNL     1      25.072  43.261  48.457  1.00  0.00    -0.280 N 
HETATM   24  H   UNL     1      24.659  43.556  47.579  1.00  0.00     0.189 HD
HETATM   25  C   UNL     1      25.515  44.040  49.487  1.00  0.00     0.052 A 
HETATM   26  C   UNL     1      25.433  45.518  49.434  1.00  0.00     0.072 C 
ENDBRANCH  16  19
ENDBRANCH  14  15
ENDBRANCH   1  14
TORSDOF 6
ENDMDL
MODEL 3
REMARK VINA RESULT:      -8.0      2.052      3.115
REMARK  6 active torsions:
REMARK  status: ('A' for Active; 'I' for Inactive)
REMARK    1  A    between atoms: C_2  and  C_3 
REMARK    2  A    between atoms: C_3  and  N_4 
REMARK    3  A    between atoms: C_3  and  C_17 
REMARK    4  A    between atoms: N_4  and  C_5 
REMARK    5  A    between atoms: C_5  and  C_6 
REMARK       I    between atoms: C_6  and  N_7 
REMARK    6  A    between atoms: N_7  and  C_8 
ROOT
HETATM    1  N   UNL     1      27.246  45.622  53.617  1.00  0.00     0.101 N 
HETATM    2  H   UNL     1      27.831  44.840  53.319  1.00  0.00     0.317 HD
ENDROOT
BRANCH   1   3
HETATM    3  C   UNL     1      27.636  46.018  54.985  1.00  0.00     0.256 C 
BRANCH   3   4
HETATM    4  C   UNL     1      27.871  47.545  55.038  1.00  0.00     0.036 C 
HETATM    5  C   UNL     1      26.638  48.326  55.476  1.00  0.00     0.007 C 
ENDBRANCH   3   4
BRANCH   3   6
HETATM    6  C   UNL     1      28.873  45.281  55.478  1.00  0.00     0.013 A 
HETATM    7  C   UNL     1      29.417  45.593  56.732  1.00  0.00     0.127 A 
HETATM    8  F   UNL     1      28.855  46.551  57.484  1.00  0.00    -0.205 F 
HETATM    9  C   UNL     1      30.530  44.926  57.233  1.00  0.00     0.085 A 
HETATM   10  C   UNL     1      31.113  43.928  56.469  1.00  0.00     0.119 A 
HETATM   11  F   UNL     1      32.182  43.274  56.942  1.00  0.00    -0.206 F 
HETATM   12  C   UNL     1      30.607  43.595  55.217  1.00  0.00     0.043 A 
HETATM   13  C   UNL     1      29.491  44.269  54.719  1.00  0.00     0.015 A 
ENDBRANCH   3   6
ENDBRANCH   1   3
BRANCH   1  14
HETATM   14  C   UNL     1      25.829  45.195  53.553  1.00  0.00     0.372 C 
BRANCH  14  15
HETATM   15  C   UNL     1      25.682  43.971  52.639  1.00  0.00     0.250 C 
HETATM   16  N   UNL     1      26.900  43.417  52.304  1.00  0.00    -0.322 N 
HETATM   17  H   UNL     1      27.711  43.926  52.643  1.00  0.00     0.169 HD
HETATM   18  O   UNL     1      24.579  43.616  52.242  1.00  0.00    -0.271 OA
BRANCH  16  19
HETATM   19  C   UNL     1      27.129  42.281  51.553  1.00  0.00     0.085 A 
HETATM   20  C   UNL     1      26.791  41.898  50.221  1.00  0.00     0.079 A 
HETATM   21  C   UNL     1      26.014  42.615  49.179  1.00  0.00     0.075 C 
HETATM   22  N   UNL     1      27.234  40.662  49.940  1.00  0.00    -0.177 NA
HETATM   23  N   UNL     1      27.838  40.265  51.064  1.00  0.00    -0.280 N 
HETATM   24  H   UNL     1      28.261  39.343  51.074  1.00  0.00     0.189 HD
HETATM   25  C   UNL     1      27.794  41.186  52.071  1.00  0.00     0.052 A 
HETATM   26  C   UNL     1      28.411  40.923  53.391  1.00  0.00     0.072 C 
ENDBRANCH  16  19
ENDBRANCH  14  15
ENDBRANCH   1  14
TORSDOF 6
ENDMDL
MODEL 4
REMARK VINA RESULT:      -7.8      3.863      5.049
REMARK  6 active torsions:
REMARK  status: ('A' for Active; 'I' for Inactive)
REMARK    1  A    between atoms: C_2  and  C_3 
REMARK    2  A    between atoms: C_3  and  N_4 
REMARK    3  A    between atoms: C_3  and  C_17 
REMARK    4  A    between atoms: N_4  and  C_5 
REMARK    5  A    between atoms: C_5  and  C_6 
REMARK       I    between atoms: C_6  and  N_7 
REMARK    6  A    between atoms: N_7  and  C_8 
ROOT
HETATM    1  N   UNL     1      27.397  45.030  52.224  1.00  0.00     0.101 N 
HETATM    2  H   UNL     1      28.185  44.564  51.771  1.00  0.00     0.317 HD
ENDROOT
BRANCH   1   3
HETATM    3  C   UNL     1      27.146  44.386  53.529  1.00  0.00     0.256 C 
BRANCH   3   4
HETATM    4  C   UNL     1      26.026  45.145  54.277  1.00  0.00     0.036 C 
HETATM    5  C   UNL     1      24.925  44.228  54.797  1.00  0.00     0.007 C 
ENDBRANCH   3   4
BRANCH   3   6
HETATM    6  C   UNL     1      28.395  44.312  54.395  1.00  0.00     0.013 A 
HETATM    7  C   UNL     1      29.182  43.150  54.384  1.00  0.00     0.127 A 
HETATM    8  F   UNL     1      28.821  42.106  53.624  1.00  0.00    -0.205 F 
HETATM    9  C   UNL     1      30.347  43.049  55.137  1.00  0.00     0.085 A 
HETATM   10  C   UNL     1      30.735  44.125  55.919  1.00  0.00     0.119 A 
HETATM   11  F   UNL     1      31.857  44.043  56.646  1.00  0.00    -0.206 F 
HETATM   12  C   UNL     1      29.977  45.291  55.962  1.00  0.00     0.043 A 
HETATM   13  C   UNL     1      28.808  45.386  55.205  1.00  0.00     0.015 A 
ENDBRANCH   3   6
ENDBRANCH   1   3
BRANCH   1  14
HETATM   14  C   UNL     1      26.221  44.932  51.329  1.00  0.00     0.372 C 
BRANCH  14  15
HETATM   15  C   UNL     1      26.357  45.916  50.159  1.00  0.00     0.250 C 
HETATM   16  N   UNL     1      25.545  47.022  50.307  1.00  0.00    -0.322 N 
HETATM   17  H   UNL     1      24.932  46.998  51.116  1.00  0.00     0.169 HD
HETATM   18  O   UNL     1      27.080  45.656  49.205  1.00  0.00    -0.271 OA
BRANCH  16  19
HETATM   19  C   UNL     1      25.465  48.122  49.477  1.00  0.00     0.085 A 
HETATM   20  C   UNL     1      26.431  49.027  48.946  1.00  0.00     0.079 A 
HETATM   21  C   UNL     1      27.899  49.103  49.157  1.00  0.00     0.075 C 
HETATM   22  N   UNL     1      25.854  49.963  48.176  1.00  0.00    -0.177 NA
HETATM   23  N   UNL     1      24.552  49.667  48.217  1.00  0.00    -0.280 N 
HETATM   24  H   UNL     1      23.916  50.254  47.688  1.00  0.00     0.189 HD
HETATM   25  C   UNL     1      24.255  48.583  48.992  1.00  0.00     0.052 A 
HETATM   26  C   UNL     1      22.864  48.103  49.156  1.00  0.00     0.072 C 
ENDBRANCH  16  19
ENDBRANCH  14  15
ENDBRANCH   1  14
TORSDOF 6
ENDMDL
MODEL 5
REMARK VINA RESULT:      -7.8      3.938      4.886
REMARK  6 active torsions:
REMARK  status: ('A' for Active; 'I' for Inactive)
REMARK    1  A    between atoms: C_2  and  C_3 
REMARK    2  A    between atoms: C_3  and  N_4 
REMARK    3  A    between atoms: C_3  and  C_17 
REMARK    4  A    between atoms: N_4  and  C_5 
REMARK    5  A    between atoms: C_5  and  C_6 
REMARK       I    between atoms: C_6  and  N_7 
REMARK    6  A    between atoms: N_7  and  C_8 
ROOT
HETATM    1  N   UNL     1      27.253  44.927  52.331  1.00  0.00     0.101 N 
HETATM    2  H   UNL     1      27.857  44.457  51.654  1.00  0.00     0.317 HD
ENDROOT
BRANCH   1   3
HETATM    3  C   UNL     1      27.136  44.080  53.535  1.00  0.00     0.256 C 
BRANCH   3   4
HETATM    4  C   UNL     1      25.905  44.518  54.361  1.00  0.00     0.036 C 
HETATM    5  C   UNL     1      25.450  43.463  55.363  1.00  0.00     0.007 C 
ENDBRANCH   3   4
BRANCH   3   6
HETATM    6  C   UNL     1      28.387  44.119  54.401  1.00  0.00     0.013 A 
HETATM    7  C   UNL     1      29.233  43.001  54.453  1.00  0.00     0.127 A 
HETATM    8  F   UNL     1      28.927  41.899  53.752  1.00  0.00    -0.205 F 
HETATM    9  C   UNL     1      30.400  43.001  55.208  1.00  0.00     0.085 A 
HETATM   10  C   UNL     1      30.732  44.138  55.929  1.00  0.00     0.119 A 
HETATM   11  F   UNL     1      31.856  44.154  56.657  1.00  0.00    -0.206 F 
HETATM   12  C   UNL     1      29.914  45.263  55.909  1.00  0.00     0.043 A 
HETATM   13  C   UNL     1      28.743  45.256  55.150  1.00  0.00     0.015 A 
ENDBRANCH   3   6
ENDBRANCH   1   3
BRANCH   1  14
HETATM   14  C   UNL     1      25.936  45.162  51.696  1.00  0.00     0.372 C 
BRANCH  14  15
HETATM   15  C   UNL     1      25.759  46.651  51.372  1.00  0.00     0.250 C 
HETATM   16  N   UNL     1      25.521  46.872  50.031  1.00  0.00    -0.322 N 
HETATM   17  H   UNL     1      25.566  46.043  49.446  1.00  0.00     0.169 HD
HETATM   18  O   UNL     1      25.886  47.500  52.246  1.00  0.00    -0.271 OA
BRANCH  16  19
HETATM   19  C   UNL     1      25.258  48.078  49.411  1.00  0.00     0.085 A 
HETATM   20  C   UNL     1      24.058  48.740  49.017  1.00  0.00     0.079 A 
HETATM   21  C   UNL     1      22.641  48.308  49.117  1.00  0.00     0.075 C 
HETATM   22  N   UNL     1      24.320  49.917  48.427  1.00  0.00    -0.177 NA
HETATM   23  N   UNL     1      25.653  50.003  48.440  1.00  0.00    -0.280 N 
HETATM   24  H   UNL     1      26.077  50.834  48.042  1.00  0.00     0.189 HD
HETATM   25  C   UNL     1      26.272  48.924  49.003  1.00  0.00     0.052 A 
HETATM   26  C   UNL     1      27.746  48.842  49.107  1.00  0.00     0.072 C 
ENDBRANCH  16  19
ENDBRANCH  14  15
ENDBRANCH   1  14
TORSDOF 6
ENDMDL
MODEL 6
REMARK VINA RESULT:      -7.6      3.681      4.626
REMARK  6 active torsions:
REMARK  status: ('A' for Active; 'I' for Inactive)
REMARK    1  A    between atoms: C_2  and  C_3 
REMARK    2  A    between atoms: C_3  and  N_4 
REMARK    3  A    between atoms: C_3  and  C_17 
REMARK    4  A    between atoms: N_4  and  C_5 
REMARK    5  A    between atoms: C_5  and  C_6 
REMARK       I    between atoms: C_6  and  N_7 
REMARK    6  A    between atoms: N_7  and  C_8 
ROOT
HETATM    1  N   UNL     1      26.746  44.658  53.228  1.00  0.00     0.101 N 
HETATM    2  H   UNL     1      26.747  45.565  53.696  1.00  0.00     0.317 HD
ENDROOT
BRANCH   1   3
HETATM    3  C   UNL     1      27.966  43.920  53.612  1.00  0.00     0.256 C 
BRANCH   3   4
HETATM    4  C   UNL     1      27.607  42.452  53.938  1.00  0.00     0.036 C 
HETATM    5  C   UNL     1      28.112  41.466  52.892  1.00  0.00     0.007 C 
ENDBRANCH   3   4
BRANCH   3   6
HETATM    6  C   UNL     1      28.687  44.556  54.792  1.00  0.00     0.013 A 
HETATM    7  C   UNL     1      29.990  44.146  55.116  1.00  0.00     0.127 A 
HETATM    8  F   UNL     1      30.586  43.186  54.396  1.00  0.00    -0.205 F 
HETATM    9  C   UNL     1      30.696  44.719  56.168  1.00  0.00     0.085 A 
HETATM   10  C   UNL     1      30.093  45.720  56.915  1.00  0.00     0.119 A 
HETATM   11  F   UNL     1      30.764  46.284  57.927  1.00  0.00    -0.206 F 
HETATM   12  C   UNL     1      28.801  46.148  56.628  1.00  0.00     0.043 A 
HETATM   13  C   UNL     1      28.096  45.567  55.572  1.00  0.00     0.015 A 
ENDBRANCH   3   6
ENDBRANCH   1   3
BRANCH   1  14
HETATM   14  C   UNL     1      26.681  44.887  51.766  1.00  0.00     0.372 C 
BRANCH  14  15
HETATM   15  C   UNL     1      26.262  46.333  51.471  1.00  0.00     0.250 C 
HETATM   16  N   UNL     1      26.229  46.604  50.119  1.00  0.00    -0.322 N 
HETATM   17  H   UNL     1      26.549  45.847  49.522  1.00  0.00     0.169 HD
HETATM   18  O   UNL     1      26.050  47.121  52.385  1.00  0.00    -0.271 OA
BRANCH  16  19
HETATM   19  C   UNL     1      25.839  47.779  49.506  1.00  0.00     0.085 A 
HETATM   20  C   UNL     1      26.541  48.944  49.075  1.00  0.00     0.079 A 
HETATM   21  C   UNL     1      27.978  49.300  49.188  1.00  0.00     0.075 C 
HETATM   22  N   UNL     1      25.707  49.843  48.530  1.00  0.00    -0.177 NA
HETATM   23  N   UNL     1      24.503  49.270  48.613  1.00  0.00    -0.280 N 
HETATM   24  H   UNL     1      23.709  49.782  48.246  1.00  0.00     0.189 HD
HETATM   25  C   UNL     1      24.516  48.039  49.202  1.00  0.00     0.052 A 
HETATM   26  C   UNL     1      23.276  47.250  49.381  1.00  0.00     0.072 C 
ENDBRANCH  16  19
ENDBRANCH  14  15
ENDBRANCH   1  14
TORSDOF 6
ENDMDL
MODEL 7
REMARK VINA RESULT:      -7.5      1.204      1.601
REMARK  6 active torsions:
REMARK  status: ('A' for Active; 'I' for Inactive)
REMARK    1  A    between atoms: C_2  and  C_3 
REMARK    2  A    between atoms: C_3  and  N_4 
REMARK    3  A    between atoms: C_3  and  C_17 
REMARK    4  A    between atoms: N_4  and  C_5 
REMARK    5  A    between atoms: C_5  and  C_6 
REMARK       I    between atoms: C_6  and  N_7 
REMARK    6  A    between atoms: N_7  and  C_8 
ROOT
HETATM    1  N   UNL     1      27.600  44.858  53.145  1.00  0.00     0.101 N 
HETATM    2  H   UNL     1      27.907  45.021  52.185  1.00  0.00     0.317 HD
ENDROOT
BRANCH   1   3
HETATM    3  C   UNL     1      28.543  43.927  53.798  1.00  0.00     0.256 C 
BRANCH   3   4
HETATM    4  C   UNL     1      27.826  42.594  54.112  1.00  0.00     0.036 C 
HETATM    5  C   UNL     1      28.444  41.399  53.396  1.00  0.00     0.007 C 
ENDBRANCH   3   4
BRANCH   3   6
HETATM    6  C   UNL     1      29.150  44.506  55.068  1.00  0.00     0.013 A 
HETATM    7  C   UNL     1      30.362  43.995  55.556  1.00  0.00     0.127 A 
HETATM    8  F   UNL     1      30.971  42.990  54.911  1.00  0.00    -0.205 F 
HETATM    9  C   UNL     1      30.967  44.512  56.697  1.00  0.00     0.085 A 
HETATM   10  C   UNL     1      30.351  45.558  57.367  1.00  0.00     0.119 A 
HETATM   11  F   UNL     1      30.925  46.068  58.464  1.00  0.00    -0.206 F 
HETATM   12  C   UNL     1      29.145  46.086  56.918  1.00  0.00     0.043 A 
HETATM   13  C   UNL     1      28.542  45.562  55.773  1.00  0.00     0.015 A 
ENDBRANCH   3   6
ENDBRANCH   1   3
BRANCH   1  14
HETATM   14  C   UNL     1      26.225  44.308  53.108  1.00  0.00     0.372 C 
BRANCH  14  15
HETATM   15  C   UNL     1      25.813  44.000  51.662  1.00  0.00     0.250 C 
HETATM   16  N   UNL     1      25.334  42.714  51.516  1.00  0.00    -0.322 N 
HETATM   17  H   UNL     1      25.385  42.140  52.353  1.00  0.00     0.169 HD
HETATM   18  O   UNL     1      25.974  44.830  50.776  1.00  0.00    -0.271 OA
BRANCH  16  19
HETATM   19  C   UNL     1      24.825  42.132  50.373  1.00  0.00     0.085 A 
HETATM   20  C   UNL     1      23.702  42.416  49.539  1.00  0.00     0.079 A 
HETATM   21  C   UNL     1      22.649  43.455  49.663  1.00  0.00     0.075 C 
HETATM   22  N   UNL     1      23.612  41.542  48.525  1.00  0.00    -0.177 NA
HETATM   23  N   UNL     1      24.648  40.718  48.706  1.00  0.00    -0.280 N 
HETATM   24  H   UNL     1      24.781  39.969  48.035  1.00  0.00     0.189 HD
HETATM   25  C   UNL     1      25.403  41.012  49.805  1.00  0.00     0.052 A 
HETATM   26  C   UNL     1      26.594  40.209  50.167  1.00  0.00     0.072 C 
ENDBRANCH  16  19
ENDBRANCH  14  15
ENDBRANCH   1  14
TORSDOF 6
ENDMDL
MODEL 8
REMARK VINA RESULT:      -7.4      2.329      3.433
REMARK  6 active torsions:
REMARK  status: ('A' for Active; 'I' for Inactive)
REMARK    1  A    between atoms: C_2  and  C_3 
REMARK    2  A    between atoms: C_3  and  N_4 
REMARK    3  A    between atoms: C_3  and  C_17 
REMARK    4  A    between atoms: N_4  and  C_5 
REMARK    5  A    between atoms: C_5  and  C_6 
REMARK       I    between atoms: C_6  and  N_7 
REMARK    6  A    between atoms: N_7  and  C_8 
ROOT
HETATM    1  N   UNL     1      27.046  44.403  54.262  1.00  0.00     0.101 N 
HETATM    2  H   UNL     1      26.096  44.213  54.585  1.00  0.00     0.317 HD
ENDROOT
BRANCH   1   3
HETATM    3  C   UNL     1      27.674  45.385  55.169  1.00  0.00     0.256 C 
BRANCH   3   4
HETATM    4  C   UNL     1      27.864  46.729  54.430  1.00  0.00     0.036 C 
HETATM    5  C   UNL     1      27.161  47.894  55.117  1.00  0.00     0.007 C 
ENDBRANCH   3   4
BRANCH   3   6
HETATM    6  C   UNL     1      29.005  44.900  55.724  1.00  0.00     0.013 A 
HETATM    7  C   UNL     1      29.503  45.446  56.917  1.00  0.00     0.127 A 
HETATM    8  F   UNL     1      28.812  46.403  57.553  1.00  0.00    -0.205 F 
HETATM    9  C   UNL     1      30.701  45.014  57.475  1.00  0.00     0.085 A 
HETATM   10  C   UNL     1      31.420  44.019  56.831  1.00  0.00     0.119 A 
HETATM   11  F   UNL     1      32.573  43.590  57.360  1.00  0.00    -0.206 F 
HETATM   12  C   UNL     1      30.963  43.458  55.643  1.00  0.00     0.043 A 
HETATM   13  C   UNL     1      29.760  43.898  55.087  1.00  0.00     0.015 A 
ENDBRANCH   3   6
ENDBRANCH   1   3
BRANCH   1  14
HETATM   14  C   UNL     1      26.973  44.909  52.872  1.00  0.00     0.372 C 
BRANCH  14  15
HETATM   15  C   UNL     1      25.529  44.847  52.356  1.00  0.00     0.250 C 
HETATM   16  N   UNL     1      25.420  45.273  51.049  1.00  0.00    -0.322 N 
HETATM   17  H   UNL     1      26.280  45.628  50.640  1.00  0.00     0.169 HD
HETATM   18  O   UNL     1      24.616  44.503  53.096  1.00  0.00    -0.271 OA
BRANCH  16  19
HETATM   19  C   UNL     1      24.286  45.290  50.262  1.00  0.00     0.085 A 
HETATM   20  C   UNL     1      23.384  44.279  49.814  1.00  0.00     0.079 A 
HETATM   21  C   UNL     1      23.400  42.810  50.028  1.00  0.00     0.075 C 
HETATM   22  N   UNL     1      22.415  44.795  49.043  1.00  0.00    -0.177 NA
HETATM   23  N   UNL     1      22.690  46.102  48.996  1.00  0.00    -0.280 N 
HETATM   24  H   UNL     1      22.068  46.698  48.462  1.00  0.00     0.189 HD
HETATM   25  C   UNL     1      23.808  46.456  49.695  1.00  0.00     0.052 A 
HETATM   26  C   UNL     1      24.270  47.862  49.760  1.00  0.00     0.072 C 
ENDBRANCH  16  19
ENDBRANCH  14  15
ENDBRANCH   1  14
TORSDOF 6
ENDMDL
MODEL 9
REMARK VINA RESULT:      -7.4      7.511     11.406
REMARK  6 active torsions:
REMARK  status: ('A' for Active; 'I' for Inactive)
REMARK    1  A    between atoms: C_2  and  C_3 
REMARK    2  A    between atoms: C_3  and  N_4 
REMARK    3  A    between atoms: C_3  and  C_17 
REMARK    4  A    between atoms: N_4  and  C_5 
REMARK    5  A    between atoms: C_5  and  C_6 
REMARK       I    between atoms: C_6  and  N_7 
REMARK    6  A    between atoms: N_7  and  C_8 
ROOT
HETATM    1  N   UNL     1      19.698  46.807  49.630  1.00  0.00     0.101 N 
HETATM    2  H   UNL     1      19.470  46.052  50.277  1.00  0.00     0.317 HD
ENDROOT
BRANCH   1   3
HETATM    3  C   UNL     1      18.484  47.611  49.384  1.00  0.00     0.256 C 
BRANCH   3   4
HETATM    4  C   UNL     1      17.654  46.969  48.250  1.00  0.00     0.036 C 
HETATM    5  C   UNL     1      16.226  47.496  48.181  1.00  0.00     0.007 C 
ENDBRANCH   3   4
BRANCH   3   6
HETATM    6  C   UNL     1      18.801  49.061  49.045  1.00  0.00     0.013 A 
HETATM    7  C   UNL     1      18.958  50.000  50.075  1.00  0.00     0.127 A 
HETATM    8  F   UNL     1      18.812  49.620  51.353  1.00  0.00    -0.205 F 
HETATM    9  C   UNL     1      19.274  51.328  49.812  1.00  0.00     0.085 A 
HETATM   10  C   UNL     1      19.437  51.731  48.496  1.00  0.00     0.119 A 
HETATM   11  F   UNL     1      19.747  53.006  48.229  1.00  0.00    -0.206 F 
HETATM   12  C   UNL     1      19.282  50.831  47.447  1.00  0.00     0.043 A 
HETATM   13  C   UNL     1      18.962  49.499  47.717  1.00  0.00     0.015 A 
ENDBRANCH   3   6
ENDBRANCH   1   3
BRANCH   1  14
HETATM   14  C   UNL     1      20.221  46.209  48.379  1.00  0.00     0.372 C 
BRANCH  14  15
HETATM   15  C   UNL     1      21.576  46.829  48.017  1.00  0.00     0.250 C 
HETATM   16  N   UNL     1      22.136  47.521  49.072  1.00  0.00    -0.322 N 
HETATM   17  H   UNL     1      21.553  47.582  49.901  1.00  0.00     0.169 HD
HETATM   18  O   UNL     1      22.025  46.731  46.881  1.00  0.00    -0.271 OA
BRANCH  16  19
HETATM   19  C   UNL     1      23.367  48.145  49.109  1.00  0.00     0.085 A 
HETATM   20  C   UNL     1      23.846  49.404  48.639  1.00  0.00     0.079 A 
HETATM   21  C   UNL     1      23.152  50.480  47.888  1.00  0.00     0.075 C 
HETATM   22  N   UNL     1      25.152  49.561  48.908  1.00  0.00    -0.177 NA
HETATM   23  N   UNL     1      25.499  48.432  49.531  1.00  0.00    -0.280 N 
HETATM   24  H   UNL     1      26.461  48.337  49.838  1.00  0.00     0.189 HD
HETATM   25  C   UNL     1      24.476  47.539  49.668  1.00  0.00     0.052 A 
HETATM   26  C   UNL     1      24.670  46.231  50.335  1.00  0.00     0.072 C 
ENDBRANCH  16  19
ENDBRANCH  14  15
ENDBRANCH   1  14
TORSDOF 6
ENDMDL
MODEL 10
REMARK VINA RESULT:      -7.3      2.667      3.753
REMARK  6 active torsions:
REMARK  status: ('A' for Active; 'I' for Inactive)
REMARK    1  A    between atoms: C_2  and  C_3 
REMARK    2  A    between atoms: C_3  and  N_4 
REMARK    3  A    between atoms: C_3  and  C_17 
REMARK    4  A    between atoms: N_4  and  C_5 
REMARK    5  A    between atoms: C_5  and  C_6 
REMARK       I    between atoms: C_6  and  N_7 
REMARK    6  A    between atoms: N_7  and  C_8 
ROOT
HETATM    1  N   UNL     1      27.140  42.327  52.888  1.00  0.00     0.101 N 
HETATM    2  H   UNL     1      26.179  42.110  52.619  1.00  0.00     0.317 HD
ENDROOT
BRANCH   1   3
HETATM    3  C   UNL     1      27.189  43.702  53.424  1.00  0.00     0.256 C 
BRANCH   3   4
HETATM    4  C   UNL     1      27.190  44.716  52.258  1.00  0.00     0.036 C 
HETATM    5  C   UNL     1      25.951  45.604  52.235  1.00  0.00     0.007 C 
ENDBRANCH   3   4
BRANCH   3   6
HETATM    6  C   UNL     1      28.394  43.936  54.323  1.00  0.00     0.013 A 
HETATM    7  C   UNL     1      28.442  45.075  55.142  1.00  0.00     0.127 A 
HETATM    8  F   UNL     1      27.434  45.958  55.117  1.00  0.00    -0.205 F 
HETATM    9  C   UNL     1      29.511  45.315  55.998  1.00  0.00     0.085 A 
HETATM   10  C   UNL     1      30.555  44.404  56.040  1.00  0.00     0.119 A 
HETATM   11  F   UNL     1      31.588  44.620  56.864  1.00  0.00    -0.206 F 
HETATM   12  C   UNL     1      30.547  43.268  55.238  1.00  0.00     0.043 A 
HETATM   13  C   UNL     1      29.472  43.033  54.379  1.00  0.00     0.015 A 
ENDBRANCH   3   6
ENDBRANCH   1   3
BRANCH   1  14
HETATM   14  C   UNL     1      28.004  42.173  51.695  1.00  0.00     0.372 C 
BRANCH  14  15
HETATM   15  C   UNL     1      27.595  40.928  50.897  1.00  0.00     0.250 C 
HETATM   16  N   UNL     1      28.595  40.497  50.049  1.00  0.00    -0.322 N 
HETATM   17  H   UNL     1      29.418  41.091  50.019  1.00  0.00     0.169 HD
HETATM   18  O   UNL     1      26.470  40.457  51.007  1.00  0.00    -0.271 OA
BRANCH  16  19
HETATM   19  C   UNL     1      28.584  39.380  49.236  1.00  0.00     0.085 A 
HETATM   20  C   UNL     1      28.032  39.104  47.950  1.00  0.00     0.079 A 
HETATM   21  C   UNL     1      27.219  39.957  47.047  1.00  0.00     0.075 C 
HETATM   22  N   UNL     1      28.282  37.841  47.571  1.00  0.00    -0.177 NA
HETATM   23  N   UNL     1      28.974  37.322  48.590  1.00  0.00    -0.280 N 
HETATM   24  H   UNL     1      29.279  36.358  48.512  1.00  0.00     0.189 HD
HETATM   25  C   UNL     1      29.173  38.191  49.623  1.00  0.00     0.052 A 
HETATM   26  C   UNL     1      29.921  37.795  50.839  1.00  0.00     0.072 C 
ENDBRANCH  16  19
ENDBRANCH  14  15
ENDBRANCH   1  14
TORSDOF 6
ENDMDL
