MODEL 1
REMARK VINA RESULT:      -9.7      0.000      0.000
REMARK  4 active torsions:
REMARK  status: ('A' for Active; 'I' for Inactive)
REMARK    1  A    between atoms: C_3  and  C_4 
REMARK       I    between atoms: C_4  and  N_5 
REMARK    2  A    between atoms: N_5  and  C_6 
REMARK    3  A    between atoms: C_13  and  C_14 
REMARK       I    between atoms: C_14  and  N_15 
REMARK    4  A    between atoms: C_23  and  O_24 
ROOT
HETATM    1  C   UNL     1      25.991  46.502  52.836  1.00  0.00     0.280 C 
HETATM    2  N   UNL     1      25.751  45.753  51.697  1.00  0.00    -0.321 N 
HETATM    3  O   UNL     1      25.355  47.493  53.176  1.00  0.00    -0.265 OA
HETATM    4  H   UNL     1      26.356  44.945  51.594  1.00  0.00     0.169 HD
ENDROOT
BRANCH   2   5
HETATM    5  C   UNL     1      24.778  45.963  50.699  1.00  0.00     0.036 A 
HETATM    6  C   UNL     1      24.548  47.200  50.084  1.00  0.00     0.046 A 
HETATM    7  C   UNL     1      23.553  47.310  49.087  1.00  0.00     0.030 A 
HETATM    8  C   UNL     1      22.817  46.182  48.747  1.00  0.00     0.063 A 
HETATM    9  C   UNL     1      23.044  48.350  48.250  1.00  0.00     0.156 A 
HETATM   10  N   UNL     1      21.944  46.596  47.780  1.00  0.00    -0.277 N 
HETATM   11  C   UNL     1      23.019  44.934  49.338  1.00  0.00     0.034 A 
HETATM   12  H   UNL     1      21.249  46.037  47.300  1.00  0.00     0.189 HD
HETATM   13  N   UNL     1      22.051  47.894  47.451  1.00  0.00    -0.168 NA
HETATM   14  C   UNL     1      24.018  44.849  50.317  1.00  0.00     0.032 A 
BRANCH   9  15
HETATM   15  C   UNL     1      23.484  49.751  48.193  1.00  0.00     0.270 C 
HETATM   16  N   UNL     1      22.992  50.532  49.204  1.00  0.00    -0.365 N 
HETATM   17  H   UNL     1      22.376  50.108  49.888  1.00  0.00     0.159 HD
HETATM   18  H   UNL     1      23.230  51.509  49.239  1.00  0.00     0.159 HD
HETATM   19  O   UNL     1      24.221  50.219  47.333  1.00  0.00    -0.266 OA
ENDBRANCH   9  15
ENDBRANCH   2   5
BRANCH   1  20
HETATM   20  C   UNL     1      27.097  45.977  53.625  1.00  0.00     0.150 A 
HETATM   21  C   UNL     1      27.760  46.462  54.745  1.00  0.00    -0.009 A 
HETATM   22  C   UNL     1      27.493  47.719  55.492  1.00  0.00     0.052 C 
HETATM   23  C   UNL     1      28.779  45.506  55.048  1.00  0.00     0.009 A 
HETATM   24  C   UNL     1      28.668  44.496  54.101  1.00  0.00     0.120 A 
HETATM   25  C   UNL     1      29.784  45.398  56.026  1.00  0.00     0.015 A 
HETATM   26  O   UNL     1      27.644  44.776  53.246  1.00  0.00    -0.301 OA
HETATM   27  C   UNL     1      29.493  43.365  54.040  1.00  0.00     0.102 A 
HETATM   28  C   UNL     1      30.484  43.285  55.030  1.00  0.00     0.040 A 
HETATM   29  C   UNL     1      30.628  44.281  56.003  1.00  0.00     0.004 A 
BRANCH  27  30
HETATM   30  O   UNL     1      29.269  42.452  53.049  1.00  0.00    -0.353 OA
HETATM   31  C   UNL     1      28.438  41.345  53.373  1.00  0.00     0.210 C 
ENDBRANCH  27  30
ENDBRANCH   1  20
TORSDOF 4
ENDMDL
MODEL 2
REMARK VINA RESULT:      -9.6      1.504      2.588
REMARK  4 active torsions:
REMARK  status: ('A' for Active; 'I' for Inactive)
REMARK    1  A    between atoms: C_3  and  C_4 
REMARK       I    between atoms: C_4  and  N_5 
REMARK    2  A    between atoms: N_5  and  C_6 
REMARK    3  A    between atoms: C_13  and  C_14 
REMARK       I    between atoms: C_14  and  N_15 
REMARK    4  A    between atoms: C_23  and  O_24 
ROOT
HETATM    1  C   UNL     1      25.788  44.705  52.677  1.00  0.00     0.280 C 
HETATM    2  N   UNL     1      25.953  45.297  51.436  1.00  0.00    -0.321 N 
HETATM    3  O   UNL     1      24.709  44.447  53.197  1.00  0.00    -0.265 OA
HETATM    4  H   UNL     1      26.922  45.403  51.150  1.00  0.00     0.169 HD
ENDROOT
BRANCH   2   5
HETATM    5  C   UNL     1      24.963  45.740  50.538  1.00  0.00     0.036 A 
HETATM    6  C   UNL     1      24.823  47.072  50.127  1.00  0.00     0.046 A 
HETATM    7  C   UNL     1      23.801  47.419  49.216  1.00  0.00     0.030 A 
HETATM    8  C   UNL     1      22.949  46.424  48.754  1.00  0.00     0.063 A 
HETATM    9  C   UNL     1      23.356  48.614  48.572  1.00  0.00     0.156 A 
HETATM   10  N   UNL     1      22.078  47.054  47.910  1.00  0.00    -0.277 N 
HETATM   11  C   UNL     1      23.058  45.088  49.140  1.00  0.00     0.034 A 
HETATM   12  H   UNL     1      21.314  46.637  47.392  1.00  0.00     0.189 HD
HETATM   13  N   UNL     1      22.292  48.374  47.773  1.00  0.00    -0.168 NA
HETATM   14  C   UNL     1      24.087  44.768  50.037  1.00  0.00     0.032 A 
BRANCH   9  15
HETATM   15  C   UNL     1      23.923  49.964  48.700  1.00  0.00     0.270 C 
HETATM   16  N   UNL     1      25.019  50.186  47.910  1.00  0.00    -0.365 N 
HETATM   17  H   UNL     1      25.353  49.432  47.322  1.00  0.00     0.159 HD
HETATM   18  H   UNL     1      25.482  51.080  47.941  1.00  0.00     0.159 HD
HETATM   19  O   UNL     1      23.488  50.840  49.439  1.00  0.00    -0.266 OA
ENDBRANCH   9  15
ENDBRANCH   2   5
BRANCH   1  20
HETATM   20  C   UNL     1      27.058  44.396  53.319  1.00  0.00     0.150 A 
HETATM   21  C   UNL     1      27.990  43.386  53.110  1.00  0.00    -0.009 A 
HETATM   22  C   UNL     1      27.944  42.294  52.105  1.00  0.00     0.052 C 
HETATM   23  C   UNL     1      29.025  43.597  54.075  1.00  0.00     0.009 A 
HETATM   24  C   UNL     1      28.664  44.723  54.803  1.00  0.00     0.120 A 
HETATM   25  C   UNL     1      30.227  42.945  54.403  1.00  0.00     0.015 A 
HETATM   26  O   UNL     1      27.479  45.211  54.340  1.00  0.00    -0.301 OA
HETATM   27  C   UNL     1      29.411  45.264  55.858  1.00  0.00     0.102 A 
HETATM   28  C   UNL     1      30.605  44.593  56.160  1.00  0.00     0.040 A 
HETATM   29  C   UNL     1      31.005  43.455  55.449  1.00  0.00     0.004 A 
BRANCH  27  30
HETATM   30  O   UNL     1      28.931  46.377  56.488  1.00  0.00    -0.353 OA
HETATM   31  C   UNL     1      28.667  46.262  57.880  1.00  0.00     0.210 C 
ENDBRANCH  27  30
ENDBRANCH   1  20
TORSDOF 4
ENDMDL
MODEL 3
REMARK VINA RESULT:      -9.5      1.894      2.572
REMARK  4 active torsions:
REMARK  status: ('A' for Active; 'I' for Inactive)
REMARK    1  A    between atoms: C_3  and  C_4 
REMARK       I    between atoms: C_4  and  N_5 
REMARK    2  A    between atoms: N_5  and  C_6 
REMARK    3  A    between atoms: C_13  and  C_14 
REMARK       I    between atoms: C_14  and  N_15 
REMARK    4  A    between atoms: C_23  and  O_24 
ROOT
HETATM    1  C   UNL     1      25.974  46.935  52.375  1.00  0.00     0.280 C 
HETATM    2  N   UNL     1      26.036  46.966  50.992  1.00  0.00    -0.321 N 
HETATM    3  O   UNL     1      25.268  47.662  53.065  1.00  0.00    -0.265 OA
HETATM    4  H   UNL     1      26.651  46.266  50.587  1.00  0.00     0.169 HD
ENDROOT
BRANCH   2   5
HETATM    5  C   UNL     1      25.351  47.815  50.103  1.00  0.00     0.036 A 
HETATM    6  C   UNL     1      23.964  47.779  49.903  1.00  0.00     0.046 A 
HETATM    7  C   UNL     1      23.366  48.677  48.992  1.00  0.00     0.030 A 
HETATM    8  C   UNL     1      24.174  49.574  48.306  1.00  0.00     0.063 A 
HETATM    9  C   UNL     1      22.040  48.952  48.537  1.00  0.00     0.156 A 
HETATM   10  N   UNL     1      23.326  50.292  47.510  1.00  0.00    -0.277 N 
HETATM   11  C   UNL     1      25.557  49.640  48.479  1.00  0.00     0.034 A 
HETATM   12  H   UNL     1      23.570  51.035  46.866  1.00  0.00     0.189 HD
HETATM   13  N   UNL     1      22.032  49.948  47.622  1.00  0.00    -0.168 NA
HETATM   14  C   UNL     1      26.126  48.745  49.396  1.00  0.00     0.032 A 
BRANCH   9  15
HETATM   15  C   UNL     1      20.794  48.295  48.957  1.00  0.00     0.270 C 
HETATM   16  N   UNL     1      20.188  48.884  50.034  1.00  0.00    -0.365 N 
HETATM   17  H   UNL     1      20.627  49.695  50.453  1.00  0.00     0.159 HD
HETATM   18  H   UNL     1      19.335  48.494  50.400  1.00  0.00     0.159 HD
HETATM   19  O   UNL     1      20.310  47.304  48.422  1.00  0.00    -0.266 OA
ENDBRANCH   9  15
ENDBRANCH   2   5
BRANCH   1  20
HETATM   20  C   UNL     1      26.844  45.918  52.950  1.00  0.00     0.150 A 
HETATM   21  C   UNL     1      27.719  45.937  54.028  1.00  0.00    -0.009 A 
HETATM   22  C   UNL     1      28.010  47.066  54.950  1.00  0.00     0.052 C 
HETATM   23  C   UNL     1      28.309  44.635  54.083  1.00  0.00     0.009 A 
HETATM   24  C   UNL     1      27.751  43.904  53.043  1.00  0.00     0.120 A 
HETATM   25  C   UNL     1      29.260  44.007  54.907  1.00  0.00     0.015 A 
HETATM   26  O   UNL     1      26.858  44.677  52.362  1.00  0.00    -0.301 OA
HETATM   27  C   UNL     1      28.070  42.573  52.741  1.00  0.00     0.102 A 
HETATM   28  C   UNL     1      29.020  41.974  53.582  1.00  0.00     0.040 A 
HETATM   29  C   UNL     1      29.604  42.676  54.643  1.00  0.00     0.004 A 
BRANCH  27  30
HETATM   30  O   UNL     1      27.443  41.979  51.683  1.00  0.00    -0.353 OA
HETATM   31  C   UNL     1      28.165  40.966  50.996  1.00  0.00     0.210 C 
ENDBRANCH  27  30
ENDBRANCH   1  20
TORSDOF 4
ENDMDL
MODEL 4
REMARK VINA RESULT:      -9.4      4.841      7.066
REMARK  4 active torsions:
REMARK  status: ('A' for Active; 'I' for Inactive)
REMARK    1  A    between atoms: C_3  and  C_4 
REMARK       I    between atoms: C_4  and  N_5 
REMARK    2  A    between atoms: N_5  and  C_6 
REMARK    3  A    between atoms: C_13  and  C_14 
REMARK       I    between atoms: C_14  and  N_15 
REMARK    4  A    between atoms: C_23  and  O_24 
ROOT
HETATM    1  C   UNL     1      27.937  43.815  52.442  1.00  0.00     0.280 C 
HETATM    2  N   UNL     1      27.570  42.486  52.571  1.00  0.00    -0.321 N 
HETATM    3  O   UNL     1      28.034  44.420  51.381  1.00  0.00    -0.265 OA
HETATM    4  H   UNL     1      27.509  42.162  53.532  1.00  0.00     0.169 HD
ENDROOT
BRANCH   2   5
HETATM    5  C   UNL     1      27.260  41.560  51.557  1.00  0.00     0.036 A 
HETATM    6  C   UNL     1      28.081  40.478  51.212  1.00  0.00     0.046 A 
HETATM    7  C   UNL     1      27.681  39.598  50.182  1.00  0.00     0.030 A 
HETATM    8  C   UNL     1      26.479  39.834  49.527  1.00  0.00     0.063 A 
HETATM    9  C   UNL     1      28.210  38.421  49.569  1.00  0.00     0.156 A 
HETATM   10  N   UNL     1      26.371  38.840  48.597  1.00  0.00    -0.277 N 
HETATM   11  C   UNL     1      25.636  40.901  49.843  1.00  0.00     0.034 A 
HETATM   12  H   UNL     1      25.618  38.698  47.933  1.00  0.00     0.189 HD
HETATM   13  N   UNL     1      27.392  37.967  48.592  1.00  0.00    -0.168 NA
HETATM   14  C   UNL     1      26.051  41.754  50.875  1.00  0.00     0.032 A 
BRANCH   9  15
HETATM   15  C   UNL     1      29.464  37.727  49.896  1.00  0.00     0.270 C 
HETATM   16  N   UNL     1      29.327  36.746  50.841  1.00  0.00    -0.365 N 
HETATM   17  H   UNL     1      28.410  36.579  51.238  1.00  0.00     0.159 HD
HETATM   18  H   UNL     1      30.136  36.225  51.138  1.00  0.00     0.159 HD
HETATM   19  O   UNL     1      30.554  37.977  49.396  1.00  0.00    -0.266 OA
ENDBRANCH   9  15
ENDBRANCH   2   5
BRANCH   1  20
HETATM   20  C   UNL     1      28.192  44.450  53.728  1.00  0.00     0.150 A 
HETATM   21  C   UNL     1      27.451  45.342  54.493  1.00  0.00    -0.009 A 
HETATM   22  C   UNL     1      26.113  45.913  54.192  1.00  0.00     0.052 C 
HETATM   23  C   UNL     1      28.242  45.623  55.651  1.00  0.00     0.009 A 
HETATM   24  C   UNL     1      29.408  44.879  55.524  1.00  0.00     0.120 A 
HETATM   25  C   UNL     1      28.087  46.434  56.789  1.00  0.00     0.015 A 
HETATM   26  O   UNL     1      29.374  44.163  54.365  1.00  0.00    -0.301 OA
HETATM   27  C   UNL     1      30.459  44.877  56.450  1.00  0.00     0.102 A 
HETATM   28  C   UNL     1      30.274  45.694  57.576  1.00  0.00     0.040 A 
HETATM   29  C   UNL     1      29.113  46.458  57.743  1.00  0.00     0.004 A 
BRANCH  27  30
HETATM   30  O   UNL     1      31.550  44.096  56.193  1.00  0.00    -0.353 OA
HETATM   31  C   UNL     1      31.805  43.032  57.100  1.00  0.00     0.210 C 
ENDBRANCH  27  30
ENDBRANCH   1  20
TORSDOF 4
ENDMDL
MODEL 5
REMARK VINA RESULT:      -9.3      2.946      8.641
REMARK  4 active torsions:
REMARK  status: ('A' for Active; 'I' for Inactive)
REMARK    1  A    between atoms: C_3  and  C_4 
REMARK       I    between atoms: C_4  and  N_5 
REMARK    2  A    between atoms: N_5  and  C_6 
REMARK    3  A    between atoms: C_13  and  C_14 
REMARK       I    between atoms: C_14  and  N_15 
REMARK    4  A    between atoms: C_23  and  O_24 
ROOT
HETATM    1  C   UNL     1      26.068  46.917  49.941  1.00  0.00     0.280 C 
HETATM    2  N   UNL     1      25.682  46.432  51.179  1.00  0.00    -0.321 N 
HETATM    3  O   UNL     1      27.061  46.555  49.320  1.00  0.00    -0.265 OA
HETATM    4  H   UNL     1      24.813  46.823  51.527  1.00  0.00     0.169 HD
ENDROOT
BRANCH   2   5
HETATM    5  C   UNL     1      26.326  45.471  51.983  1.00  0.00     0.036 A 
HETATM    6  C   UNL     1      26.565  44.151  51.578  1.00  0.00     0.046 A 
HETATM    7  C   UNL     1      27.225  43.261  52.455  1.00  0.00     0.030 A 
HETATM    8  C   UNL     1      27.613  43.717  53.708  1.00  0.00     0.063 A 
HETATM    9  C   UNL     1      27.647  41.897  52.411  1.00  0.00     0.156 A 
HETATM   10  N   UNL     1      28.206  42.647  54.316  1.00  0.00    -0.277 N 
HETATM   11  C   UNL     1      27.391  45.024  54.145  1.00  0.00     0.034 A 
HETATM   12  H   UNL     1      28.607  42.614  55.246  1.00  0.00     0.189 HD
HETATM   13  N   UNL     1      28.249  41.533  53.567  1.00  0.00    -0.168 NA
HETATM   14  C   UNL     1      26.744  45.891  53.253  1.00  0.00     0.032 A 
BRANCH   9  15
HETATM   15  C   UNL     1      27.495  40.947  51.300  1.00  0.00     0.270 C 
HETATM   16  N   UNL     1      26.313  40.255  51.315  1.00  0.00    -0.365 N 
HETATM   17  H   UNL     1      25.657  40.434  52.066  1.00  0.00     0.159 HD
HETATM   18  H   UNL     1      26.127  39.572  50.599  1.00  0.00     0.159 HD
HETATM   19  O   UNL     1      28.328  40.757  50.421  1.00  0.00    -0.266 OA
ENDBRANCH   9  15
ENDBRANCH   2   5
BRANCH   1  20
HETATM   20  C   UNL     1      25.147  47.920  49.424  1.00  0.00     0.150 A 
HETATM   21  C   UNL     1      25.350  49.172  48.857  1.00  0.00    -0.009 A 
HETATM   22  C   UNL     1      26.642  49.860  48.598  1.00  0.00     0.052 C 
HETATM   23  C   UNL     1      24.049  49.693  48.569  1.00  0.00     0.009 A 
HETATM   24  C   UNL     1      23.139  48.724  48.969  1.00  0.00     0.120 A 
HETATM   25  C   UNL     1      23.556  50.886  48.013  1.00  0.00     0.015 A 
HETATM   26  O   UNL     1      23.803  47.648  49.478  1.00  0.00    -0.301 OA
HETATM   27  C   UNL     1      21.747  48.847  48.867  1.00  0.00     0.102 A 
HETATM   28  C   UNL     1      21.285  50.047  48.307  1.00  0.00     0.040 A 
HETATM   29  C   UNL     1      22.170  51.048  47.889  1.00  0.00     0.004 A 
BRANCH  27  30
HETATM   30  O   UNL     1      20.970  47.811  49.305  1.00  0.00    -0.353 OA
HETATM   31  C   UNL     1      19.565  48.027  49.321  1.00  0.00     0.210 C 
ENDBRANCH  27  30
ENDBRANCH   1  20
TORSDOF 4
ENDMDL
MODEL 6
REMARK VINA RESULT:      -9.3      2.069      3.363
REMARK  4 active torsions:
REMARK  status: ('A' for Active; 'I' for Inactive)
REMARK    1  A    between atoms: C_3  and  C_4 
REMARK       I    between atoms: C_4  and  N_5 
REMARK    2  A    between atoms: N_5  and  C_6 
REMARK    3  A    between atoms: C_13  and  C_14 
REMARK       I    between atoms: C_14  and  N_15 
REMARK    4  A    between atoms: C_23  and  O_24 
ROOT
HETATM    1  C   UNL     1      25.756  45.832  51.486  1.00  0.00     0.280 C 
HETATM    2  N   UNL     1      26.203  46.786  50.588  1.00  0.00    -0.321 N 
HETATM    3  O   UNL     1      24.582  45.616  51.759  1.00  0.00    -0.265 OA
HETATM    4  H   UNL     1      27.211  46.800  50.461  1.00  0.00     0.169 HD
ENDROOT
BRANCH   2   5
HETATM    5  C   UNL     1      25.445  47.702  49.833  1.00  0.00     0.036 A 
HETATM    6  C   UNL     1      24.059  47.601  49.649  1.00  0.00     0.046 A 
HETATM    7  C   UNL     1      23.385  48.574  48.878  1.00  0.00     0.030 A 
HETATM    8  C   UNL     1      24.119  49.607  48.311  1.00  0.00     0.063 A 
HETATM    9  C   UNL     1      22.034  48.820  48.483  1.00  0.00     0.156 A 
HETATM   10  N   UNL     1      23.209  50.369  47.632  1.00  0.00    -0.277 N 
HETATM   11  C   UNL     1      25.499  49.740  48.472  1.00  0.00     0.034 A 
HETATM   12  H   UNL     1      23.391  51.208  47.093  1.00  0.00     0.189 HD
HETATM   13  N   UNL     1      21.942  49.928  47.713  1.00  0.00    -0.168 NA
HETATM   14  C   UNL     1      26.143  48.768  49.249  1.00  0.00     0.032 A 
BRANCH   9  15
HETATM   15  C   UNL     1      20.843  48.030  48.825  1.00  0.00     0.270 C 
HETATM   16  N   UNL     1      20.145  48.512  49.901  1.00  0.00    -0.365 N 
HETATM   17  H   UNL     1      20.490  49.340  50.370  1.00  0.00     0.159 HD
HETATM   18  H   UNL     1      19.321  48.027  50.217  1.00  0.00     0.159 HD
HETATM   19  O   UNL     1      20.475  47.023  48.232  1.00  0.00    -0.266 OA
ENDBRANCH   9  15
ENDBRANCH   2   5
BRANCH   1  20
HETATM   20  C   UNL     1      26.848  45.076  52.085  1.00  0.00     0.150 A 
HETATM   21  C   UNL     1      27.575  43.976  51.645  1.00  0.00    -0.009 A 
HETATM   22  C   UNL     1      27.432  43.240  50.363  1.00  0.00     0.052 C 
HETATM   23  C   UNL     1      28.504  43.672  52.689  1.00  0.00     0.009 A 
HETATM   24  C   UNL     1      28.292  44.609  53.692  1.00  0.00     0.120 A 
HETATM   25  C   UNL     1      29.499  42.698  52.883  1.00  0.00     0.015 A 
HETATM   26  O   UNL     1      27.297  45.463  53.323  1.00  0.00    -0.301 OA
HETATM   27  C   UNL     1      28.998  44.656  54.902  1.00  0.00     0.102 A 
HETATM   28  C   UNL     1      29.984  43.672  55.065  1.00  0.00     0.040 A 
HETATM   29  C   UNL     1      30.230  42.711  54.077  1.00  0.00     0.004 A 
BRANCH  27  30
HETATM   30  O   UNL     1      28.679  45.635  55.801  1.00  0.00    -0.353 OA
HETATM   31  C   UNL     1      29.596  45.849  56.866  1.00  0.00     0.210 C 
ENDBRANCH  27  30
ENDBRANCH   1  20
TORSDOF 4
ENDMDL
MODEL 7
REMARK VINA RESULT:      -9.0      4.289      7.446
REMARK  4 active torsions:
REMARK  status: ('A' for Active; 'I' for Inactive)
REMARK    1  A    between atoms: C_3  and  C_4 
REMARK       I    between atoms: C_4  and  N_5 
REMARK    2  A    between atoms: N_5  and  C_6 
REMARK    3  A    between atoms: C_13  and  C_14 
REMARK       I    between atoms: C_14  and  N_15 
REMARK    4  A    between atoms: C_23  and  O_24 
ROOT
HETATM    1  C   UNL     1      27.062  43.913  50.813  1.00  0.00     0.280 C 
HETATM    2  N   UNL     1      26.866  42.600  51.204  1.00  0.00    -0.321 N 
HETATM    3  O   UNL     1      27.287  44.282  49.666  1.00  0.00    -0.265 OA
HETATM    4  H   UNL     1      26.656  42.485  52.191  1.00  0.00     0.169 HD
ENDROOT
BRANCH   2   5
HETATM    5  C   UNL     1      26.901  41.435  50.412  1.00  0.00     0.036 A 
HETATM    6  C   UNL     1      27.944  40.500  50.448  1.00  0.00     0.046 A 
HETATM    7  C   UNL     1      27.887  39.358  49.620  1.00  0.00     0.030 A 
HETATM    8  C   UNL     1      26.794  39.194  48.778  1.00  0.00     0.063 A 
HETATM    9  C   UNL     1      28.711  38.215  49.383  1.00  0.00     0.156 A 
HETATM   10  N   UNL     1      27.023  38.024  48.110  1.00  0.00    -0.277 N 
HETATM   11  C   UNL     1      25.738  40.103  48.716  1.00  0.00     0.034 A 
HETATM   12  H   UNL     1      26.432  37.591  47.409  1.00  0.00     0.189 HD
HETATM   13  N   UNL     1      28.166  37.403  48.448  1.00  0.00    -0.168 NA
HETATM   14  C   UNL     1      25.813  41.223  49.555  1.00  0.00     0.032 A 
BRANCH   9  15
HETATM   15  C   UNL     1      29.989  37.883  50.027  1.00  0.00     0.270 C 
HETATM   16  N   UNL     1      31.074  38.499  49.463  1.00  0.00    -0.365 N 
HETATM   17  H   UNL     1      30.926  39.109  48.667  1.00  0.00     0.159 HD
HETATM   18  H   UNL     1      31.995  38.321  49.830  1.00  0.00     0.159 HD
HETATM   19  O   UNL     1      30.117  37.125  50.982  1.00  0.00    -0.266 OA
ENDBRANCH   9  15
ENDBRANCH   2   5
BRANCH   1  20
HETATM   20  C   UNL     1      26.958  44.847  51.926  1.00  0.00     0.150 A 
HETATM   21  C   UNL     1      26.139  45.946  52.151  1.00  0.00    -0.009 A 
HETATM   22  C   UNL     1      25.074  46.489  51.268  1.00  0.00     0.052 C 
HETATM   23  C   UNL     1      26.527  46.477  53.422  1.00  0.00     0.009 A 
HETATM   24  C   UNL     1      27.550  45.664  53.893  1.00  0.00     0.120 A 
HETATM   25  C   UNL     1      26.116  47.563  54.214  1.00  0.00     0.015 A 
HETATM   26  O   UNL     1      27.805  44.673  52.993  1.00  0.00    -0.301 OA
HETATM   27  C   UNL     1      28.218  45.848  55.111  1.00  0.00     0.102 A 
HETATM   28  C   UNL     1      27.784  46.939  55.880  1.00  0.00     0.040 A 
HETATM   29  C   UNL     1      26.755  47.781  55.441  1.00  0.00     0.004 A 
BRANCH  27  30
HETATM   30  O   UNL     1      29.209  44.970  55.446  1.00  0.00    -0.353 OA
HETATM   31  C   UNL     1      30.105  45.377  56.473  1.00  0.00     0.210 C 
ENDBRANCH  27  30
ENDBRANCH   1  20
TORSDOF 4
ENDMDL
MODEL 8
REMARK VINA RESULT:      -9.0      3.451      9.309
REMARK  4 active torsions:
REMARK  status: ('A' for Active; 'I' for Inactive)
REMARK    1  A    between atoms: C_3  and  C_4 
REMARK       I    between atoms: C_4  and  N_5 
REMARK    2  A    between atoms: N_5  and  C_6 
REMARK    3  A    between atoms: C_13  and  C_14 
REMARK       I    between atoms: C_14  and  N_15 
REMARK    4  A    between atoms: C_23  and  O_24 
ROOT
HETATM    1  C   UNL     1      22.923  47.419  49.011  1.00  0.00     0.280 C 
HETATM    2  N   UNL     1      23.804  47.518  50.075  1.00  0.00    -0.321 N 
HETATM    3  O   UNL     1      22.889  46.495  48.207  1.00  0.00    -0.265 OA
HETATM    4  H   UNL     1      23.663  48.337  50.658  1.00  0.00     0.169 HD
ENDROOT
BRANCH   2   5
HETATM    5  C   UNL     1      24.831  46.629  50.447  1.00  0.00     0.036 A 
HETATM    6  C   UNL     1      24.848  45.922  51.657  1.00  0.00     0.046 A 
HETATM    7  C   UNL     1      25.921  45.047  51.939  1.00  0.00     0.030 A 
HETATM    8  C   UNL     1      26.942  44.915  51.007  1.00  0.00     0.063 A 
HETATM    9  C   UNL     1      26.284  44.174  53.011  1.00  0.00     0.156 A 
HETATM   10  N   UNL     1      27.821  44.024  51.555  1.00  0.00    -0.277 N 
HETATM   11  C   UNL     1      26.958  45.603  49.793  1.00  0.00     0.034 A 
HETATM   12  H   UNL     1      28.690  43.691  51.153  1.00  0.00     0.189 HD
HETATM   13  N   UNL     1      27.459  43.553  52.760  1.00  0.00    -0.168 NA
HETATM   14  C   UNL     1      25.878  46.457  49.532  1.00  0.00     0.032 A 
BRANCH   9  15
HETATM   15  C   UNL     1      25.538  43.921  54.252  1.00  0.00     0.270 C 
HETATM   16  N   UNL     1      26.074  42.932  55.033  1.00  0.00    -0.365 N 
HETATM   17  H   UNL     1      26.908  42.458  54.709  1.00  0.00     0.159 HD
HETATM   18  H   UNL     1      25.622  42.681  55.897  1.00  0.00     0.159 HD
HETATM   19  O   UNL     1      24.522  44.516  54.592  1.00  0.00    -0.266 OA
ENDBRANCH   9  15
ENDBRANCH   2   5
BRANCH   1  20
HETATM   20  C   UNL     1      22.004  48.547  48.943  1.00  0.00     0.150 A 
HETATM   21  C   UNL     1      22.178  49.873  48.566  1.00  0.00    -0.009 A 
HETATM   22  C   UNL     1      23.421  50.533  48.089  1.00  0.00     0.052 C 
HETATM   23  C   UNL     1      20.904  50.503  48.734  1.00  0.00     0.009 A 
HETATM   24  C   UNL     1      20.036  49.522  49.194  1.00  0.00     0.120 A 
HETATM   25  C   UNL     1      20.405  51.804  48.547  1.00  0.00     0.015 A 
HETATM   26  O   UNL     1      20.699  48.337  49.311  1.00  0.00    -0.301 OA
HETATM   27  C   UNL     1      18.683  49.731  49.494  1.00  0.00     0.102 A 
HETATM   28  C   UNL     1      18.215  51.038  49.295  1.00  0.00     0.040 A 
HETATM   29  C   UNL     1      19.058  52.055  48.832  1.00  0.00     0.004 A 
BRANCH  27  30
HETATM   30  O   UNL     1      17.947  48.670  49.942  1.00  0.00    -0.353 OA
HETATM   31  C   UNL     1      17.201  47.952  48.968  1.00  0.00     0.210 C 
ENDBRANCH  27  30
ENDBRANCH   1  20
TORSDOF 4
ENDMDL
MODEL 9
REMARK VINA RESULT:      -9.0      2.825      4.867
REMARK  4 active torsions:
REMARK  status: ('A' for Active; 'I' for Inactive)
REMARK    1  A    between atoms: C_3  and  C_4 
REMARK       I    between atoms: C_4  and  N_5 
REMARK    2  A    between atoms: N_5  and  C_6 
REMARK    3  A    between atoms: C_13  and  C_14 
REMARK       I    between atoms: C_14  and  N_15 
REMARK    4  A    between atoms: C_23  and  O_24 
ROOT
HETATM    1  C   UNL     1      24.095  47.869  49.611  1.00  0.00     0.280 C 
HETATM    2  N   UNL     1      22.778  47.444  49.578  1.00  0.00    -0.321 N 
HETATM    3  O   UNL     1      24.568  48.756  48.910  1.00  0.00    -0.265 OA
HETATM    4  H   UNL     1      22.556  46.720  50.255  1.00  0.00     0.169 HD
ENDROOT
BRANCH   2   5
HETATM    5  C   UNL     1      21.731  47.898  48.753  1.00  0.00     0.036 A 
HETATM    6  C   UNL     1      21.022  49.086  48.977  1.00  0.00     0.046 A 
HETATM    7  C   UNL     1      19.990  49.462  48.088  1.00  0.00     0.030 A 
HETATM    8  C   UNL     1      19.697  48.634  47.013  1.00  0.00     0.063 A 
HETATM    9  C   UNL     1      19.080  50.557  47.970  1.00  0.00     0.156 A 
HETATM   10  N   UNL     1      18.670  49.246  46.352  1.00  0.00    -0.277 N 
HETATM   11  C   UNL     1      20.381  47.444  46.758  1.00  0.00     0.034 A 
HETATM   12  H   UNL     1      18.196  48.922  45.517  1.00  0.00     0.189 HD
HETATM   13  N   UNL     1      18.271  50.409  46.896  1.00  0.00    -0.168 NA
HETATM   14  C   UNL     1      21.407  47.098  47.649  1.00  0.00     0.032 A 
BRANCH   9  15
HETATM   15  C   UNL     1      18.973  51.730  48.848  1.00  0.00     0.270 C 
HETATM   16  N   UNL     1      18.701  52.898  48.187  1.00  0.00    -0.365 N 
HETATM   17  H   UNL     1      18.605  52.874  47.179  1.00  0.00     0.159 HD
HETATM   18  H   UNL     1      18.622  53.758  48.707  1.00  0.00     0.159 HD
HETATM   19  O   UNL     1      19.112  51.710  50.066  1.00  0.00    -0.266 OA
ENDBRANCH   9  15
ENDBRANCH   2   5
BRANCH   1  20
HETATM   20  C   UNL     1      24.888  47.148  50.597  1.00  0.00     0.150 A 
HETATM   21  C   UNL     1      25.581  45.944  50.541  1.00  0.00    -0.009 A 
HETATM   22  C   UNL     1      25.717  45.021  49.386  1.00  0.00     0.052 C 
HETATM   23  C   UNL     1      26.146  45.752  51.841  1.00  0.00     0.009 A 
HETATM   24  C   UNL     1      25.771  46.851  52.602  1.00  0.00     0.120 A 
HETATM   25  C   UNL     1      26.933  44.756  52.446  1.00  0.00     0.015 A 
HETATM   26  O   UNL     1      25.018  47.700  51.847  1.00  0.00    -0.301 OA
HETATM   27  C   UNL     1      26.116  47.046  53.946  1.00  0.00     0.102 A 
HETATM   28  C   UNL     1      26.903  46.037  54.521  1.00  0.00     0.040 A 
HETATM   29  C   UNL     1      27.303  44.914  53.788  1.00  0.00     0.004 A 
BRANCH  27  30
HETATM   30  O   UNL     1      25.673  48.177  54.572  1.00  0.00    -0.353 OA
HETATM   31  C   UNL     1      26.383  48.587  55.733  1.00  0.00     0.210 C 
ENDBRANCH  27  30
ENDBRANCH   1  20
TORSDOF 4
ENDMDL
MODEL 10
REMARK VINA RESULT:      -8.9      2.465      9.061
REMARK  4 active torsions:
REMARK  status: ('A' for Active; 'I' for Inactive)
REMARK    1  A    between atoms: C_3  and  C_4 
REMARK       I    between atoms: C_4  and  N_5 
REMARK    2  A    between atoms: N_5  and  C_6 
REMARK    3  A    between atoms: C_13  and  C_14 
REMARK       I    between atoms: C_14  and  N_15 
REMARK    4  A    between atoms: C_23  and  O_24 
ROOT
HETATM    1  C   UNL     1      25.586  47.408  50.918  1.00  0.00     0.280 C 
HETATM    2  N   UNL     1      25.376  46.775  52.131  1.00  0.00    -0.321 N 
HETATM    3  O   UNL     1      26.641  47.921  50.563  1.00  0.00    -0.265 OA
HETATM    4  H   UNL     1      24.448  46.377  52.239  1.00  0.00     0.169 HD
ENDROOT
BRANCH   2   5
HETATM    5  C   UNL     1      26.279  46.604  53.198  1.00  0.00     0.036 A 
HETATM    6  C   UNL     1      27.142  45.507  53.320  1.00  0.00     0.046 A 
HETATM    7  C   UNL     1      28.018  45.427  54.425  1.00  0.00     0.030 A 
HETATM    8  C   UNL     1      27.995  46.441  55.374  1.00  0.00     0.063 A 
HETATM    9  C   UNL     1      29.017  44.514  54.884  1.00  0.00     0.156 A 
HETATM   10  N   UNL     1      28.929  46.086  56.307  1.00  0.00    -0.277 N 
HETATM   11  C   UNL     1      27.150  47.548  55.286  1.00  0.00     0.034 A 
HETATM   12  H   UNL     1      29.181  46.593  57.148  1.00  0.00     0.189 HD
HETATM   13  N   UNL     1      29.568  44.933  56.046  1.00  0.00    -0.168 NA
HETATM   14  C   UNL     1      26.297  47.609  54.175  1.00  0.00     0.032 A 
BRANCH   9  15
HETATM   15  C   UNL     1      29.455  43.268  54.240  1.00  0.00     0.270 C 
HETATM   16  N   UNL     1      28.464  42.332  54.104  1.00  0.00    -0.365 N 
HETATM   17  H   UNL     1      27.538  42.553  54.450  1.00  0.00     0.159 HD
HETATM   18  H   UNL     1      28.675  41.441  53.686  1.00  0.00     0.159 HD
HETATM   19  O   UNL     1      30.595  43.043  53.850  1.00  0.00    -0.266 OA
ENDBRANCH   9  15
ENDBRANCH   2   5
BRANCH   1  20
HETATM   20  C   UNL     1      24.402  47.393  50.070  1.00  0.00     0.150 A 
HETATM   21  C   UNL     1      23.801  46.389  49.321  1.00  0.00    -0.009 A 
HETATM   22  C   UNL     1      24.223  44.971  49.187  1.00  0.00     0.052 C 
HETATM   23  C   UNL     1      22.674  46.993  48.680  1.00  0.00     0.009 A 
HETATM   24  C   UNL     1      22.654  48.321  49.084  1.00  0.00     0.120 A 
HETATM   25  C   UNL     1      21.674  46.548  47.797  1.00  0.00     0.015 A 
HETATM   26  O   UNL     1      23.694  48.561  49.932  1.00  0.00    -0.301 OA
HETATM   27  C   UNL     1      21.706  49.267  48.671  1.00  0.00     0.102 A 
HETATM   28  C   UNL     1      20.721  48.792  47.793  1.00  0.00     0.040 A 
HETATM   29  C   UNL     1      20.704  47.460  47.363  1.00  0.00     0.004 A 
BRANCH  27  30
HETATM   30  O   UNL     1      21.812  50.543  49.148  1.00  0.00    -0.353 OA
HETATM   31  C   UNL     1      20.886  50.929  50.155  1.00  0.00     0.210 C 
ENDBRANCH  27  30
ENDBRANCH   1  20
TORSDOF 4
ENDMDL
