MODEL 1
REMARK VINA RESULT:      -8.5      0.000      0.000
REMARK  4 active torsions:
REMARK  status: ('A' for Active; 'I' for Inactive)
REMARK    1  A    between atoms: C_4  and  N_5 
REMARK    2  A    between atoms: N_5  and  C_6 
REMARK    3  A    between atoms: C_6  and  N_7 
REMARK       I    between atoms: N_7  and  C_8 
REMARK    4  A    between atoms: C_8  and  C_9 
ROOT
HETATM    1  N   UNL     1      27.639  42.840  52.386  1.00  0.00    -0.299 N 
HETATM    2  C   UNL     1      28.839  42.480  52.991  1.00  0.00     0.257 C 
HETATM    3  O   UNL     1      29.502  41.477  52.770  1.00  0.00    -0.267 OA
HETATM    4  H   UNL     1      27.103  43.557  52.868  1.00  0.00     0.171 HD
ENDROOT
BRANCH   1   5
HETATM    5  C   UNL     1      27.040  42.441  51.210  1.00  0.00     0.180 C 
HETATM    6  S   UNL     1      26.656  40.881  50.756  1.00  0.00    -0.040 SA
BRANCH   5   7
HETATM    7  N   UNL     1      26.754  43.444  50.313  1.00  0.00    -0.318 N 
HETATM    8  H   UNL     1      26.800  43.155  49.343  1.00  0.00     0.170 HD
BRANCH   7   9
HETATM    9  C   UNL     1      26.390  44.774  50.574  1.00  0.00     0.129 A 
HETATM   10  C   UNL     1      26.945  45.773  49.782  1.00  0.00     0.057 A 
HETATM   11  C   UNL     1      26.583  47.104  50.012  1.00  0.00    -0.057 A 
HETATM   12  C   UNL     1      27.162  48.221  49.196  1.00  0.00     0.048 C 
HETATM   13  C   UNL     1      25.674  47.383  51.033  1.00  0.00     0.026 A 
HETATM   14  C   UNL     1      25.175  46.329  51.776  1.00  0.00     0.119 A 
HETATM   15  N   UNL     1      25.520  45.039  51.576  1.00  0.00    -0.243 NA
ENDBRANCH   7   9
ENDBRANCH   5   7
ENDBRANCH   1   5
BRANCH   2  16
HETATM   16  C   UNL     1      29.238  43.399  54.090  1.00  0.00     0.033 A 
HETATM   17  C   UNL     1      28.582  44.625  54.224  1.00  0.00     0.023 A 
HETATM   18  C   UNL     1      28.977  45.524  55.221  1.00  0.00    -0.061 A 
HETATM   19  C   UNL     1      28.300  46.856  55.367  1.00  0.00     0.048 C 
HETATM   20  C   UNL     1      30.010  45.165  56.101  1.00  0.00     0.013 A 
HETATM   21  C   UNL     1      30.655  43.926  55.991  1.00  0.00    -0.061 A 
HETATM   22  C   UNL     1      31.746  43.533  56.942  1.00  0.00     0.048 C 
HETATM   23  C   UNL     1      30.265  43.045  54.976  1.00  0.00     0.023 A 
ENDBRANCH   2  16
TORSDOF 4
ENDMDL
MODEL 2
REMARK VINA RESULT:      -8.4      2.502      3.684
REMARK  4 active torsions:
REMARK  status: ('A' for Active; 'I' for Inactive)
REMARK    1  A    between atoms: C_4  and  N_5 
REMARK    2  A    between atoms: N_5  and  C_6 
REMARK    3  A    between atoms: C_6  and  N_7 
REMARK       I    between atoms: N_7  and  C_8 
REMARK    4  A    between atoms: C_8  and  C_9 
ROOT
HETATM    1  N   UNL     1      26.137  45.455  51.972  1.00  0.00    -0.299 N 
HETATM    2  C   UNL     1      26.377  45.969  53.242  1.00  0.00     0.257 C 
HETATM    3  O   UNL     1      25.775  46.880  53.791  1.00  0.00    -0.267 OA
HETATM    4  H   UNL     1      26.886  44.889  51.580  1.00  0.00     0.171 HD
ENDROOT
BRANCH   1   5
HETATM    5  C   UNL     1      25.042  45.523  51.137  1.00  0.00     0.180 C 
HETATM    6  S   UNL     1      24.267  44.245  50.391  1.00  0.00    -0.040 SA
BRANCH   5   7
HETATM    7  N   UNL     1      24.561  46.785  50.881  1.00  0.00    -0.318 N 
HETATM    8  H   UNL     1      23.727  47.022  51.404  1.00  0.00     0.170 HD
BRANCH   7   9
HETATM    9  C   UNL     1      25.086  47.765  50.025  1.00  0.00     0.129 A 
HETATM   10  C   UNL     1      24.197  48.603  49.363  1.00  0.00     0.057 A 
HETATM   11  C   UNL     1      24.699  49.600  48.519  1.00  0.00    -0.057 A 
HETATM   12  C   UNL     1      23.782  50.521  47.772  1.00  0.00     0.048 C 
HETATM   13  C   UNL     1      26.080  49.716  48.370  1.00  0.00     0.026 A 
HETATM   14  C   UNL     1      26.893  48.836  49.061  1.00  0.00     0.119 A 
HETATM   15  N   UNL     1      26.427  47.862  49.873  1.00  0.00    -0.243 NA
ENDBRANCH   7   9
ENDBRANCH   5   7
ENDBRANCH   1   5
BRANCH   2  16
HETATM   16  C   UNL     1      27.574  45.378  53.896  1.00  0.00     0.033 A 
HETATM   17  C   UNL     1      28.224  44.304  53.282  1.00  0.00     0.023 A 
HETATM   18  C   UNL     1      29.323  43.703  53.907  1.00  0.00    -0.061 A 
HETATM   19  C   UNL     1      30.021  42.533  53.276  1.00  0.00     0.048 C 
HETATM   20  C   UNL     1      29.782  44.213  55.132  1.00  0.00     0.013 A 
HETATM   21  C   UNL     1      29.154  45.307  55.739  1.00  0.00    -0.061 A 
HETATM   22  C   UNL     1      29.655  45.865  57.039  1.00  0.00     0.048 C 
HETATM   23  C   UNL     1      28.043  45.886  55.115  1.00  0.00     0.023 A 
ENDBRANCH   2  16
TORSDOF 4
ENDMDL
MODEL 3
REMARK VINA RESULT:      -8.4      0.137      1.888
REMARK  4 active torsions:
REMARK  status: ('A' for Active; 'I' for Inactive)
REMARK    1  A    between atoms: C_4  and  N_5 
REMARK    2  A    between atoms: N_5  and  C_6 
REMARK    3  A    between atoms: C_6  and  N_7 
REMARK       I    between atoms: N_7  and  C_8 
REMARK    4  A    between atoms: C_8  and  C_9 
ROOT
HETATM    1  N   UNL     1      27.621  42.771  52.417  1.00  0.00    -0.299 N 
HETATM    2  C   UNL     1      28.860  42.457  52.964  1.00  0.00     0.257 C 
HETATM    3  O   UNL     1      29.556  41.486  52.700  1.00  0.00    -0.267 OA
HETATM    4  H   UNL     1      27.076  43.457  52.933  1.00  0.00     0.171 HD
ENDROOT
BRANCH   1   5
HETATM    5  C   UNL     1      26.988  42.362  51.263  1.00  0.00     0.180 C 
HETATM    6  S   UNL     1      26.672  40.791  50.793  1.00  0.00    -0.040 SA
BRANCH   5   7
HETATM    7  N   UNL     1      26.602  43.364  50.403  1.00  0.00    -0.318 N 
HETATM    8  H   UNL     1      26.511  43.067  49.439  1.00  0.00     0.170 HD
BRANCH   7   9
HETATM    9  C   UNL     1      26.303  44.702  50.698  1.00  0.00     0.129 A 
HETATM   10  C   UNL     1      26.811  45.688  49.860  1.00  0.00     0.057 A 
HETATM   11  C   UNL     1      26.511  47.029  50.124  1.00  0.00    -0.057 A 
HETATM   12  C   UNL     1      27.045  48.131  49.260  1.00  0.00     0.048 C 
HETATM   13  C   UNL     1      25.709  47.330  51.224  1.00  0.00     0.026 A 
HETATM   14  C   UNL     1      25.249  46.288  52.009  1.00  0.00     0.119 A 
HETATM   15  N   UNL     1      25.537  44.988  51.776  1.00  0.00    -0.243 NA
ENDBRANCH   7   9
ENDBRANCH   5   7
ENDBRANCH   1   5
BRANCH   2  16
HETATM   16  C   UNL     1      29.268  43.377  54.058  1.00  0.00     0.033 A 
HETATM   17  C   UNL     1      30.297  42.994  54.922  1.00  0.00     0.023 A 
HETATM   18  C   UNL     1      30.661  43.825  55.988  1.00  0.00    -0.061 A 
HETATM   19  C   UNL     1      31.748  43.421  56.941  1.00  0.00     0.048 C 
HETATM   20  C   UNL     1      30.007  45.056  56.155  1.00  0.00     0.013 A 
HETATM   21  C   UNL     1      28.994  45.460  55.276  1.00  0.00    -0.061 A 
HETATM   22  C   UNL     1      28.308  46.784  55.442  1.00  0.00     0.048 C 
HETATM   23  C   UNL     1      28.624  44.611  54.228  1.00  0.00     0.023 A 
ENDBRANCH   2  16
TORSDOF 4
ENDMDL
MODEL 4
REMARK VINA RESULT:      -8.4      2.537      3.587
REMARK  4 active torsions:
REMARK  status: ('A' for Active; 'I' for Inactive)
REMARK    1  A    between atoms: C_4  and  N_5 
REMARK    2  A    between atoms: N_5  and  C_6 
REMARK    3  A    between atoms: C_6  and  N_7 
REMARK       I    between atoms: N_7  and  C_8 
REMARK    4  A    between atoms: C_8  and  C_9 
ROOT
HETATM    1  N   UNL     1      25.993  45.353  51.886  1.00  0.00    -0.299 N 
HETATM    2  C   UNL     1      26.339  45.998  53.068  1.00  0.00     0.257 C 
HETATM    3  O   UNL     1      25.870  47.042  53.500  1.00  0.00    -0.267 OA
HETATM    4  H   UNL     1      26.654  44.653  51.559  1.00  0.00     0.171 HD
ENDROOT
BRANCH   1   5
HETATM    5  C   UNL     1      24.882  45.441  51.074  1.00  0.00     0.180 C 
HETATM    6  S   UNL     1      24.092  44.183  50.311  1.00  0.00    -0.040 SA
BRANCH   5   7
HETATM    7  N   UNL     1      24.397  46.710  50.857  1.00  0.00    -0.318 N 
HETATM    8  H   UNL     1      23.568  46.931  51.395  1.00  0.00     0.170 HD
BRANCH   7   9
HETATM    9  C   UNL     1      24.914  47.714  50.025  1.00  0.00     0.129 A 
HETATM   10  C   UNL     1      24.016  48.538  49.356  1.00  0.00     0.057 A 
HETATM   11  C   UNL     1      24.509  49.558  48.535  1.00  0.00    -0.057 A 
HETATM   12  C   UNL     1      23.584  50.466  47.781  1.00  0.00     0.048 C 
HETATM   13  C   UNL     1      25.890  49.712  48.415  1.00  0.00     0.026 A 
HETATM   14  C   UNL     1      26.711  48.845  49.112  1.00  0.00     0.119 A 
HETATM   15  N   UNL     1      26.255  47.848  49.901  1.00  0.00    -0.243 NA
ENDBRANCH   7   9
ENDBRANCH   5   7
ENDBRANCH   1   5
BRANCH   2  16
HETATM   16  C   UNL     1      27.483  45.359  53.771  1.00  0.00     0.033 A 
HETATM   17  C   UNL     1      27.914  45.889  54.990  1.00  0.00     0.023 A 
HETATM   18  C   UNL     1      29.020  45.332  55.643  1.00  0.00    -0.061 A 
HETATM   19  C   UNL     1      29.514  45.900  56.941  1.00  0.00     0.048 C 
HETATM   20  C   UNL     1      29.663  44.219  55.078  1.00  0.00     0.013 A 
HETATM   21  C   UNL     1      29.219  43.664  53.870  1.00  0.00    -0.061 A 
HETATM   22  C   UNL     1      29.894  42.463  53.275  1.00  0.00     0.048 C 
HETATM   23  C   UNL     1      28.126  44.244  53.217  1.00  0.00     0.023 A 
ENDBRANCH   2  16
TORSDOF 4
ENDMDL
MODEL 5
REMARK VINA RESULT:      -8.1      2.677      5.094
REMARK  4 active torsions:
REMARK  status: ('A' for Active; 'I' for Inactive)
REMARK    1  A    between atoms: C_4  and  N_5 
REMARK    2  A    between atoms: N_5  and  C_6 
REMARK    3  A    between atoms: C_6  and  N_7 
REMARK       I    between atoms: N_7  and  C_8 
REMARK    4  A    between atoms: C_8  and  C_9 
ROOT
HETATM    1  N   UNL     1      27.527  42.865  52.359  1.00  0.00    -0.299 N 
HETATM    2  C   UNL     1      28.370  42.300  53.309  1.00  0.00     0.257 C 
HETATM    3  O   UNL     1      28.579  41.109  53.491  1.00  0.00    -0.267 OA
HETATM    4  H   UNL     1      27.275  43.838  52.518  1.00  0.00     0.171 HD
ENDROOT
BRANCH   1   5
HETATM    5  C   UNL     1      26.986  42.372  51.190  1.00  0.00     0.180 C 
HETATM    6  S   UNL     1      26.603  43.239  49.816  1.00  0.00    -0.040 SA
BRANCH   5   7
HETATM    7  N   UNL     1      26.718  41.023  51.176  1.00  0.00    -0.318 N 
HETATM    8  H   UNL     1      26.141  40.710  51.948  1.00  0.00     0.170 HD
BRANCH   7   9
HETATM    9  C   UNL     1      27.113  40.061  50.234  1.00  0.00     0.129 A 
HETATM   10  C   UNL     1      28.431  39.621  50.261  1.00  0.00     0.057 A 
HETATM   11  C   UNL     1      28.844  38.649  49.343  1.00  0.00    -0.057 A 
HETATM   12  C   UNL     1      30.257  38.149  49.321  1.00  0.00     0.048 C 
HETATM   13  C   UNL     1      27.914  38.155  48.429  1.00  0.00     0.026 A 
HETATM   14  C   UNL     1      26.624  38.653  48.468  1.00  0.00     0.119 A 
HETATM   15  N   UNL     1      26.210  39.598  49.340  1.00  0.00    -0.243 NA
ENDBRANCH   7   9
ENDBRANCH   5   7
ENDBRANCH   1   5
BRANCH   2  16
HETATM   16  C   UNL     1      28.958  43.301  54.239  1.00  0.00     0.033 A 
HETATM   17  C   UNL     1      30.055  42.937  55.024  1.00  0.00     0.023 A 
HETATM   18  C   UNL     1      30.591  43.849  55.941  1.00  0.00    -0.061 A 
HETATM   19  C   UNL     1      31.754  43.471  56.810  1.00  0.00     0.048 C 
HETATM   20  C   UNL     1      30.038  45.136  56.035  1.00  0.00     0.013 A 
HETATM   21  C   UNL     1      28.956  45.517  55.231  1.00  0.00    -0.061 A 
HETATM   22  C   UNL     1      28.376  46.898  55.317  1.00  0.00     0.048 C 
HETATM   23  C   UNL     1      28.415  44.589  54.334  1.00  0.00     0.023 A 
ENDBRANCH   2  16
TORSDOF 4
ENDMDL
MODEL 6
REMARK VINA RESULT:      -8.0      2.338      3.451
REMARK  4 active torsions:
REMARK  status: ('A' for Active; 'I' for Inactive)
REMARK    1  A    between atoms: C_4  and  N_5 
REMARK    2  A    between atoms: N_5  and  C_6 
REMARK    3  A    between atoms: C_6  and  N_7 
REMARK       I    between atoms: N_7  and  C_8 
REMARK    4  A    between atoms: C_8  and  C_9 
ROOT
HETATM    1  N   UNL     1      25.911  44.811  51.543  1.00  0.00    -0.299 N 
HETATM    2  C   UNL     1      26.343  45.320  52.763  1.00  0.00     0.257 C 
HETATM    3  O   UNL     1      26.022  46.385  53.270  1.00  0.00    -0.267 OA
HETATM    4  H   UNL     1      26.470  44.052  51.162  1.00  0.00     0.171 HD
ENDROOT
BRANCH   1   5
HETATM    5  C   UNL     1      24.822  45.108  50.749  1.00  0.00     0.180 C 
HETATM    6  S   UNL     1      24.054  44.085  49.675  1.00  0.00    -0.040 SA
BRANCH   5   7
HETATM    7  N   UNL     1      24.343  46.393  50.844  1.00  0.00    -0.318 N 
HETATM    8  H   UNL     1      23.682  46.531  51.599  1.00  0.00     0.170 HD
BRANCH   7   9
HETATM    9  C   UNL     1      24.669  47.509  50.059  1.00  0.00     0.129 A 
HETATM   10  C   UNL     1      26.010  47.857  49.939  1.00  0.00     0.057 A 
HETATM   11  C   UNL     1      26.360  48.955  49.146  1.00  0.00    -0.057 A 
HETATM   12  C   UNL     1      27.790  49.380  48.993  1.00  0.00     0.048 C 
HETATM   13  C   UNL     1      25.348  49.666  48.503  1.00  0.00     0.026 A 
HETATM   14  C   UNL     1      24.039  49.255  48.682  1.00  0.00     0.119 A 
HETATM   15  N   UNL     1      23.680  48.204  49.451  1.00  0.00    -0.243 NA
ENDBRANCH   7   9
ENDBRANCH   5   7
ENDBRANCH   1   5
BRANCH   2  16
HETATM   16  C   UNL     1      27.388  44.483  53.409  1.00  0.00     0.033 A 
HETATM   17  C   UNL     1      28.242  45.066  54.348  1.00  0.00     0.023 A 
HETATM   18  C   UNL     1      29.264  44.307  54.931  1.00  0.00    -0.061 A 
HETATM   19  C   UNL     1      30.207  44.921  55.923  1.00  0.00     0.048 C 
HETATM   20  C   UNL     1      29.395  42.952  54.588  1.00  0.00     0.013 A 
HETATM   21  C   UNL     1      28.524  42.352  53.668  1.00  0.00    -0.061 A 
HETATM   22  C   UNL     1      28.651  40.900  53.315  1.00  0.00     0.048 C 
HETATM   23  C   UNL     1      27.521  43.128  53.077  1.00  0.00     0.023 A 
ENDBRANCH   2  16
TORSDOF 4
ENDMDL
MODEL 7
REMARK VINA RESULT:      -8.0      3.279      4.482
REMARK  4 active torsions:
REMARK  status: ('A' for Active; 'I' for Inactive)
REMARK    1  A    between atoms: C_4  and  N_5 
REMARK    2  A    between atoms: N_5  and  C_6 
REMARK    3  A    between atoms: C_6  and  N_7 
REMARK       I    between atoms: N_7  and  C_8 
REMARK    4  A    between atoms: C_8  and  C_9 
ROOT
HETATM    1  N   UNL     1      25.605  45.767  51.202  1.00  0.00    -0.299 N 
HETATM    2  C   UNL     1      25.831  46.395  52.422  1.00  0.00     0.257 C 
HETATM    3  O   UNL     1      25.318  47.431  52.821  1.00  0.00    -0.267 OA
HETATM    4  H   UNL     1      26.297  45.073  50.931  1.00  0.00     0.171 HD
ENDROOT
BRANCH   1   5
HETATM    5  C   UNL     1      24.579  45.867  50.285  1.00  0.00     0.180 C 
HETATM    6  S   UNL     1      24.188  44.766  49.092  1.00  0.00    -0.040 SA
BRANCH   5   7
HETATM    7  N   UNL     1      23.820  47.011  50.356  1.00  0.00    -0.318 N 
HETATM    8  H   UNL     1      23.127  47.000  51.095  1.00  0.00     0.170 HD
BRANCH   7   9
HETATM    9  C   UNL     1      23.905  48.168  49.568  1.00  0.00     0.129 A 
HETATM   10  C   UNL     1      22.722  48.748  49.124  1.00  0.00     0.057 A 
HETATM   11  C   UNL     1      22.782  49.914  48.352  1.00  0.00    -0.057 A 
HETATM   12  C   UNL     1      21.537  50.571  47.838  1.00  0.00     0.048 C 
HETATM   13  C   UNL     1      24.032  50.453  48.052  1.00  0.00     0.026 A 
HETATM   14  C   UNL     1      25.159  49.809  48.529  1.00  0.00     0.119 A 
HETATM   15  N   UNL     1      25.122  48.678  49.267  1.00  0.00    -0.243 NA
ENDBRANCH   7   9
ENDBRANCH   5   7
ENDBRANCH   1   5
BRANCH   2  16
HETATM   16  C   UNL     1      26.901  45.747  53.224  1.00  0.00     0.033 A 
HETATM   17  C   UNL     1      27.560  44.630  52.704  1.00  0.00     0.023 A 
HETATM   18  C   UNL     1      28.535  43.976  53.465  1.00  0.00    -0.061 A 
HETATM   19  C   UNL     1      29.237  42.760  52.934  1.00  0.00     0.048 C 
HETATM   20  C   UNL     1      28.866  44.475  54.734  1.00  0.00     0.013 A 
HETATM   21  C   UNL     1      28.231  45.612  55.252  1.00  0.00    -0.061 A 
HETATM   22  C   UNL     1      28.598  46.158  56.600  1.00  0.00     0.048 C 
HETATM   23  C   UNL     1      27.242  46.243  54.489  1.00  0.00     0.023 A 
ENDBRANCH   2  16
TORSDOF 4
ENDMDL
MODEL 8
REMARK VINA RESULT:      -7.8      1.997      3.274
REMARK  4 active torsions:
REMARK  status: ('A' for Active; 'I' for Inactive)
REMARK    1  A    between atoms: C_4  and  N_5 
REMARK    2  A    between atoms: N_5  and  C_6 
REMARK    3  A    between atoms: C_6  and  N_7 
REMARK       I    between atoms: N_7  and  C_8 
REMARK    4  A    between atoms: C_8  and  C_9 
ROOT
HETATM    1  N   UNL     1      25.608  44.810  51.693  1.00  0.00    -0.299 N 
HETATM    2  C   UNL     1      26.591  43.910  52.088  1.00  0.00     0.257 C 
HETATM    3  O   UNL     1      26.752  42.770  51.677  1.00  0.00    -0.267 OA
HETATM    4  H   UNL     1      25.463  45.601  52.315  1.00  0.00     0.171 HD
ENDROOT
BRANCH   1   5
HETATM    5  C   UNL     1      24.802  44.870  50.576  1.00  0.00     0.180 C 
HETATM    6  S   UNL     1      24.624  43.696  49.401  1.00  0.00    -0.040 SA
BRANCH   5   7
HETATM    7  N   UNL     1      24.092  46.036  50.410  1.00  0.00    -0.318 N 
HETATM    8  H   UNL     1      23.149  46.000  50.779  1.00  0.00     0.170 HD
BRANCH   7   9
HETATM    9  C   UNL     1      24.514  47.242  49.832  1.00  0.00     0.129 A 
HETATM   10  C   UNL     1      25.877  47.508  49.789  1.00  0.00     0.057 A 
HETATM   11  C   UNL     1      26.322  48.697  49.200  1.00  0.00    -0.057 A 
HETATM   12  C   UNL     1      27.781  49.037  49.141  1.00  0.00     0.048 C 
HETATM   13  C   UNL     1      25.377  49.577  48.675  1.00  0.00     0.026 A 
HETATM   14  C   UNL     1      24.040  49.237  48.765  1.00  0.00     0.119 A 
HETATM   15  N   UNL     1      23.590  48.100  49.338  1.00  0.00    -0.243 NA
ENDBRANCH   7   9
ENDBRANCH   5   7
ENDBRANCH   1   5
BRANCH   2  16
HETATM   16  C   UNL     1      27.428  44.411  53.210  1.00  0.00     0.033 A 
HETATM   17  C   UNL     1      28.539  43.667  53.616  1.00  0.00     0.023 A 
HETATM   18  C   UNL     1      29.309  44.098  54.702  1.00  0.00    -0.061 A 
HETATM   19  C   UNL     1      30.492  43.301  55.169  1.00  0.00     0.048 C 
HETATM   20  C   UNL     1      28.975  45.297  55.351  1.00  0.00     0.013 A 
HETATM   21  C   UNL     1      27.879  46.063  54.932  1.00  0.00    -0.061 A 
HETATM   22  C   UNL     1      27.532  47.355  55.612  1.00  0.00     0.048 C 
HETATM   23  C   UNL     1      27.104  45.611  53.858  1.00  0.00     0.023 A 
ENDBRANCH   2  16
TORSDOF 4
ENDMDL
MODEL 9
REMARK VINA RESULT:      -7.8      2.802      4.688
REMARK  4 active torsions:
REMARK  status: ('A' for Active; 'I' for Inactive)
REMARK    1  A    between atoms: C_4  and  N_5 
REMARK    2  A    between atoms: N_5  and  C_6 
REMARK    3  A    between atoms: C_6  and  N_7 
REMARK       I    between atoms: N_7  and  C_8 
REMARK    4  A    between atoms: C_8  and  C_9 
ROOT
HETATM    1  N   UNL     1      27.617  42.641  52.697  1.00  0.00    -0.299 N 
HETATM    2  C   UNL     1      28.901  42.385  53.167  1.00  0.00     0.257 C 
HETATM    3  O   UNL     1      29.631  41.459  52.843  1.00  0.00    -0.267 OA
HETATM    4  H   UNL     1      27.066  43.287  53.257  1.00  0.00     0.171 HD
ENDROOT
BRANCH   1   5
HETATM    5  C   UNL     1      26.942  42.219  51.572  1.00  0.00     0.180 C 
HETATM    6  S   UNL     1      26.274  43.181  50.381  1.00  0.00    -0.040 SA
BRANCH   5   7
HETATM    7  N   UNL     1      26.788  40.859  51.439  1.00  0.00    -0.318 N 
HETATM    8  H   UNL     1      26.238  40.433  52.175  1.00  0.00     0.170 HD
BRANCH   7   9
HETATM    9  C   UNL     1      27.266  40.019  50.422  1.00  0.00     0.129 A 
HETATM   10  C   UNL     1      26.372  39.598  49.445  1.00  0.00     0.057 A 
HETATM   11  C   UNL     1      26.830  38.775  48.410  1.00  0.00    -0.057 A 
HETATM   12  C   UNL     1      25.904  38.282  47.339  1.00  0.00     0.048 C 
HETATM   13  C   UNL     1      28.174  38.404  48.397  1.00  0.00     0.026 A 
HETATM   14  C   UNL     1      28.994  38.864  49.412  1.00  0.00     0.119 A 
HETATM   15  N   UNL     1      28.568  39.650  50.424  1.00  0.00    -0.243 NA
ENDBRANCH   7   9
ENDBRANCH   5   7
ENDBRANCH   1   5
BRANCH   2  16
HETATM   16  C   UNL     1      29.320  43.306  54.256  1.00  0.00     0.033 A 
HETATM   17  C   UNL     1      28.661  44.530  54.404  1.00  0.00     0.023 A 
HETATM   18  C   UNL     1      29.074  45.432  55.391  1.00  0.00    -0.061 A 
HETATM   19  C   UNL     1      28.395  46.760  55.551  1.00  0.00     0.048 C 
HETATM   20  C   UNL     1      30.128  45.078  56.248  1.00  0.00     0.013 A 
HETATM   21  C   UNL     1      30.776  43.842  56.124  1.00  0.00    -0.061 A 
HETATM   22  C   UNL     1      31.890  43.456  57.052  1.00  0.00     0.048 C 
HETATM   23  C   UNL     1      30.367  42.958  55.119  1.00  0.00     0.023 A 
ENDBRANCH   2  16
TORSDOF 4
ENDMDL
MODEL 10
REMARK VINA RESULT:      -7.7      3.256      6.957
REMARK  4 active torsions:
REMARK  status: ('A' for Active; 'I' for Inactive)
REMARK    1  A    between atoms: C_4  and  N_5 
REMARK    2  A    between atoms: N_5  and  C_6 
REMARK    3  A    between atoms: C_6  and  N_7 
REMARK       I    between atoms: N_7  and  C_8 
REMARK    4  A    between atoms: C_8  and  C_9 
ROOT
HETATM    1  N   UNL     1      26.514  46.170  54.058  1.00  0.00    -0.299 N 
HETATM    2  C   UNL     1      25.846  46.366  52.854  1.00  0.00     0.257 C 
HETATM    3  O   UNL     1      25.420  47.424  52.414  1.00  0.00    -0.267 OA
HETATM    4  H   UNL     1      26.561  45.207  54.382  1.00  0.00     0.171 HD
ENDROOT
BRANCH   1   5
HETATM    5  C   UNL     1      27.182  47.036  54.898  1.00  0.00     0.180 C 
HETATM    6  S   UNL     1      26.546  48.368  55.679  1.00  0.00    -0.040 SA
BRANCH   5   7
HETATM    7  N   UNL     1      28.519  46.777  55.086  1.00  0.00    -0.318 N 
HETATM    8  H   UNL     1      29.084  47.607  55.220  1.00  0.00     0.170 HD
BRANCH   7   9
HETATM    9  C   UNL     1      29.172  45.536  55.138  1.00  0.00     0.129 A 
HETATM   10  C   UNL     1      30.067  45.309  56.177  1.00  0.00     0.057 A 
HETATM   11  C   UNL     1      30.715  44.072  56.260  1.00  0.00    -0.057 A 
HETATM   12  C   UNL     1      31.700  43.781  57.352  1.00  0.00     0.048 C 
HETATM   13  C   UNL     1      30.439  43.107  55.292  1.00  0.00     0.026 A 
HETATM   14  C   UNL     1      29.539  43.418  54.289  1.00  0.00     0.119 A 
HETATM   15  N   UNL     1      28.911  44.610  54.187  1.00  0.00    -0.243 NA
ENDBRANCH   7   9
ENDBRANCH   5   7
ENDBRANCH   1   5
BRANCH   2  16
HETATM   16  C   UNL     1      25.554  45.098  52.134  1.00  0.00     0.033 A 
HETATM   17  C   UNL     1      26.478  44.052  52.196  1.00  0.00     0.023 A 
HETATM   18  C   UNL     1      26.244  42.870  51.484  1.00  0.00    -0.061 A 
HETATM   19  C   UNL     1      27.236  41.744  51.518  1.00  0.00     0.048 C 
HETATM   20  C   UNL     1      25.060  42.736  50.742  1.00  0.00     0.013 A 
HETATM   21  C   UNL     1      24.115  43.769  50.699  1.00  0.00    -0.061 A 
HETATM   22  C   UNL     1      22.840  43.620  49.922  1.00  0.00     0.048 C 
HETATM   23  C   UNL     1      24.371  44.955  51.397  1.00  0.00     0.023 A 
ENDBRANCH   2  16
TORSDOF 4
ENDMDL
