MODEL 1
REMARK VINA RESULT:      -8.8      0.000      0.000
REMARK  4 active torsions:
REMARK  status: ('A' for Active; 'I' for Inactive)
REMARK    1  A    between atoms: C_2  and  C_3 
REMARK    2  A    between atoms: C_3  and  C_4 
REMARK    3  A    between atoms: N_7  and  C_8 
REMARK    4  A    between atoms: C_13  and  C_14 
ROOT
HETATM    1  C   UNL     1      26.788  44.704  51.477  1.00  0.00     0.017 A 
HETATM    2  C   UNL     1      25.986  45.545  52.247  1.00  0.00     0.033 A 
HETATM    3  C   UNL     1      25.286  46.580  51.641  1.00  0.00     0.099 A 
HETATM    4  N   UNL     1      25.358  46.792  50.301  1.00  0.00    -0.318 N 
HETATM    5  C   UNL     1      26.152  45.987  49.546  1.00  0.00     0.099 A 
HETATM    6  C   UNL     1      26.864  44.928  50.108  1.00  0.00     0.033 A 
ENDROOT
BRANCH   1   7
HETATM    7  C   UNL     1      27.452  43.560  52.156  1.00  0.00     0.192 C 
HETATM    8  O   UNL     1      27.199  42.427  51.757  1.00  0.00    -0.287 OA
BRANCH   7   9
HETATM    9  C   UNL     1      28.423  43.737  53.257  1.00  0.00     0.015 A 
HETATM   10  C   UNL     1      29.545  42.902  53.291  1.00  0.00     0.017 A 
HETATM   11  C   UNL     1      30.484  43.034  54.316  1.00  0.00     0.025 A 
HETATM   12  C   UNL     1      30.289  43.990  55.313  1.00  0.00     0.034 A 
HETATM   13  C   UNL     1      29.157  44.806  55.299  1.00  0.00     0.025 A 
HETATM   14 CL   UNL     1      31.445  44.159  56.574  1.00  0.00    -0.084 Cl
HETATM   15  C   UNL     1      28.215  44.676  54.274  1.00  0.00     0.017 A 
ENDBRANCH   7   9
ENDBRANCH   1   7
BRANCH   4  16
HETATM   16  C   UNL     1      24.634  47.860  49.733  1.00  0.00     0.135 A 
HETATM   17  N   UNL     1      23.259  47.868  49.764  1.00  0.00    -0.302 N 
HETATM   18  C   UNL     1      22.641  48.949  49.187  1.00  0.00     0.290 A 
HETATM   19  H   UNL     1      22.673  47.183  50.221  1.00  0.00     0.171 HD
HETATM   20  O   UNL     1      21.443  49.143  49.136  1.00  0.00    -0.260 OA
HETATM   21  S   UNL     1      23.883  50.013  48.545  1.00  0.00    -0.022 SA
HETATM   22  C   UNL     1      25.132  48.936  49.099  1.00  0.00     0.092 A 
BRANCH  22  23
HETATM   23  C   UNL     1      26.523  49.245  48.736  1.00  0.00     0.281 C 
HETATM   24  O   UNL     1      26.798  50.187  48.004  1.00  0.00    -0.301 OA
ENDBRANCH  22  23
ENDBRANCH   4  16
TORSDOF 4
ENDMDL
MODEL 2
REMARK VINA RESULT:      -8.8      3.143      3.994
REMARK  4 active torsions:
REMARK  status: ('A' for Active; 'I' for Inactive)
REMARK    1  A    between atoms: C_2  and  C_3 
REMARK    2  A    between atoms: C_3  and  C_4 
REMARK    3  A    between atoms: N_7  and  C_8 
REMARK    4  A    between atoms: C_13  and  C_14 
ROOT
HETATM    1  C   UNL     1      26.503  46.068  53.851  1.00  0.00     0.017 A 
HETATM    2  C   UNL     1      25.888  44.820  53.913  1.00  0.00     0.033 A 
HETATM    3  C   UNL     1      25.187  44.338  52.816  1.00  0.00     0.099 A 
HETATM    4  N   UNL     1      25.090  45.057  51.667  1.00  0.00    -0.318 N 
HETATM    5  C   UNL     1      25.673  46.285  51.605  1.00  0.00     0.099 A 
HETATM    6  C   UNL     1      26.397  46.804  52.677  1.00  0.00     0.033 A 
ENDROOT
BRANCH   1   7
HETATM    7  C   UNL     1      27.311  46.507  55.020  1.00  0.00     0.192 C 
HETATM    8  O   UNL     1      26.975  47.533  55.602  1.00  0.00    -0.287 OA
BRANCH   7   9
HETATM    9  C   UNL     1      28.472  45.740  55.522  1.00  0.00     0.015 A 
HETATM   10  C   UNL     1      29.083  46.165  56.708  1.00  0.00     0.017 A 
HETATM   11  C   UNL     1      30.184  45.471  57.214  1.00  0.00     0.025 A 
HETATM   12  C   UNL     1      30.681  44.365  56.524  1.00  0.00     0.034 A 
HETATM   13  C   UNL     1      30.093  43.955  55.327  1.00  0.00     0.025 A 
HETATM   14 CL   UNL     1      32.033  43.506  57.147  1.00  0.00    -0.084 Cl
HETATM   15  C   UNL     1      28.991  44.647  54.817  1.00  0.00     0.017 A 
ENDBRANCH   7   9
ENDBRANCH   1   7
BRANCH   4  16
HETATM   16  C   UNL     1      24.363  44.528  50.582  1.00  0.00     0.135 A 
HETATM   17  N   UNL     1      23.016  44.776  50.455  1.00  0.00    -0.302 N 
HETATM   18  C   UNL     1      22.392  44.220  49.367  1.00  0.00     0.290 A 
HETATM   19  H   UNL     1      22.465  45.373  51.056  1.00  0.00     0.171 HD
HETATM   20  O   UNL     1      21.220  44.343  49.075  1.00  0.00    -0.260 OA
HETATM   21  S   UNL     1      23.587  43.306  48.457  1.00  0.00    -0.022 SA
HETATM   22  C   UNL     1      24.827  43.739  49.597  1.00  0.00     0.092 A 
BRANCH  22  23
HETATM   23  C   UNL     1      26.159  43.137  49.433  1.00  0.00     0.281 C 
HETATM   24  O   UNL     1      27.172  43.824  49.411  1.00  0.00    -0.301 OA
ENDBRANCH  22  23
ENDBRANCH   4  16
TORSDOF 4
ENDMDL
MODEL 3
REMARK VINA RESULT:      -8.5      2.487      2.967
REMARK  4 active torsions:
REMARK  status: ('A' for Active; 'I' for Inactive)
REMARK    1  A    between atoms: C_2  and  C_3 
REMARK    2  A    between atoms: C_3  and  C_4 
REMARK    3  A    between atoms: N_7  and  C_8 
REMARK    4  A    between atoms: C_13  and  C_14 
ROOT
HETATM    1  C   UNL     1      27.761  43.706  52.371  1.00  0.00     0.017 A 
HETATM    2  C   UNL     1      26.463  43.660  52.876  1.00  0.00     0.033 A 
HETATM    3  C   UNL     1      25.391  44.002  52.062  1.00  0.00     0.099 A 
HETATM    4  N   UNL     1      25.577  44.380  50.770  1.00  0.00    -0.318 N 
HETATM    5  C   UNL     1      26.843  44.445  50.276  1.00  0.00     0.099 A 
HETATM    6  C   UNL     1      27.948  44.099  51.052  1.00  0.00     0.033 A 
ENDROOT
BRANCH   1   7
HETATM    7  C   UNL     1      28.869  43.251  53.253  1.00  0.00     0.192 C 
HETATM    8  O   UNL     1      29.461  42.221  52.950  1.00  0.00    -0.287 OA
BRANCH   7   9
HETATM    9  C   UNL     1      29.302  44.007  54.448  1.00  0.00     0.015 A 
HETATM   10  C   UNL     1      30.372  43.505  55.197  1.00  0.00     0.017 A 
HETATM   11  C   UNL     1      30.809  44.186  56.335  1.00  0.00     0.025 A 
HETATM   12  C   UNL     1      30.164  45.358  56.729  1.00  0.00     0.034 A 
HETATM   13  C   UNL     1      29.078  45.847  56.002  1.00  0.00     0.025 A 
HETATM   14 CL   UNL     1      30.703  46.202  58.127  1.00  0.00    -0.084 Cl
HETATM   15  C   UNL     1      28.638  45.168  54.863  1.00  0.00     0.017 A 
ENDBRANCH   7   9
ENDBRANCH   1   7
BRANCH   4  16
HETATM   16  C   UNL     1      24.458  44.724  49.986  1.00  0.00     0.135 A 
HETATM   17  N   UNL     1      23.666  43.748  49.428  1.00  0.00    -0.302 N 
HETATM   18  C   UNL     1      22.599  44.178  48.681  1.00  0.00     0.290 A 
HETATM   19  H   UNL     1      23.768  42.752  49.568  1.00  0.00     0.171 HD
HETATM   20  O   UNL     1      21.780  43.470  48.132  1.00  0.00    -0.260 OA
HETATM   21  S   UNL     1      22.613  45.935  48.667  1.00  0.00    -0.022 SA
HETATM   22  C   UNL     1      24.039  45.961  49.662  1.00  0.00     0.092 A 
BRANCH  22  23
HETATM   23  C   UNL     1      24.669  47.261  49.936  1.00  0.00     0.281 C 
HETATM   24  O   UNL     1      24.762  47.697  51.077  1.00  0.00    -0.301 OA
ENDBRANCH  22  23
ENDBRANCH   4  16
TORSDOF 4
ENDMDL
MODEL 4
REMARK VINA RESULT:      -8.4      1.753      2.549
REMARK  4 active torsions:
REMARK  status: ('A' for Active; 'I' for Inactive)
REMARK    1  A    between atoms: C_2  and  C_3 
REMARK    2  A    between atoms: C_3  and  C_4 
REMARK    3  A    between atoms: N_7  and  C_8 
REMARK    4  A    between atoms: C_13  and  C_14 
ROOT
HETATM    1  C   UNL     1      26.972  43.915  51.487  1.00  0.00     0.017 A 
HETATM    2  C   UNL     1      27.262  44.624  50.323  1.00  0.00     0.033 A 
HETATM    3  C   UNL     1      26.316  45.485  49.783  1.00  0.00     0.099 A 
HETATM    4  N   UNL     1      25.103  45.660  50.371  1.00  0.00    -0.318 N 
HETATM    5  C   UNL     1      24.806  44.958  51.497  1.00  0.00     0.099 A 
HETATM    6  C   UNL     1      25.729  44.092  52.082  1.00  0.00     0.033 A 
ENDROOT
BRANCH   1   7
HETATM    7  C   UNL     1      28.046  43.070  52.075  1.00  0.00     0.192 C 
HETATM    8  O   UNL     1      28.332  42.022  51.505  1.00  0.00    -0.287 OA
BRANCH   7   9
HETATM    9  C   UNL     1      28.797  43.459  53.287  1.00  0.00     0.015 A 
HETATM   10  C   UNL     1      29.895  42.678  53.666  1.00  0.00     0.017 A 
HETATM   11  C   UNL     1      30.629  43.010  54.806  1.00  0.00     0.025 A 
HETATM   12  C   UNL     1      30.252  44.112  55.574  1.00  0.00     0.034 A 
HETATM   13  C   UNL     1      29.142  44.877  55.217  1.00  0.00     0.025 A 
HETATM   14 CL   UNL     1      31.157  44.526  56.976  1.00  0.00    -0.084 Cl
HETATM   15  C   UNL     1      28.405  44.548  54.076  1.00  0.00     0.017 A 
ENDBRANCH   7   9
ENDBRANCH   1   7
BRANCH   4  16
HETATM   16  C   UNL     1      24.173  46.540  49.781  1.00  0.00     0.135 A 
HETATM   17  N   UNL     1      24.193  47.882  50.078  1.00  0.00    -0.302 N 
HETATM   18  C   UNL     1      23.251  48.661  49.455  1.00  0.00     0.290 A 
HETATM   19  H   UNL     1      24.872  48.349  50.664  1.00  0.00     0.171 HD
HETATM   20  O   UNL     1      23.126  49.863  49.574  1.00  0.00    -0.260 OA
HETATM   21  S   UNL     1      22.260  47.619  48.444  1.00  0.00    -0.022 SA
HETATM   22  C   UNL     1      23.183  46.226  48.927  1.00  0.00     0.092 A 
BRANCH  22  23
HETATM   23  C   UNL     1      22.736  44.904  48.461  1.00  0.00     0.281 C 
HETATM   24  O   UNL     1      22.155  44.127  49.208  1.00  0.00    -0.301 OA
ENDBRANCH  22  23
ENDBRANCH   4  16
TORSDOF 4
ENDMDL
MODEL 5
REMARK VINA RESULT:      -8.4      4.405      8.670
REMARK  4 active torsions:
REMARK  status: ('A' for Active; 'I' for Inactive)
REMARK    1  A    between atoms: C_2  and  C_3 
REMARK    2  A    between atoms: C_3  and  C_4 
REMARK    3  A    between atoms: N_7  and  C_8 
REMARK    4  A    between atoms: C_13  and  C_14 
ROOT
HETATM    1  C   UNL     1      24.512  48.754  49.004  1.00  0.00     0.017 A 
HETATM    2  C   UNL     1      23.743  47.714  49.523  1.00  0.00     0.033 A 
HETATM    3  C   UNL     1      24.346  46.720  50.283  1.00  0.00     0.099 A 
HETATM    4  N   UNL     1      25.680  46.739  50.542  1.00  0.00    -0.318 N 
HETATM    5  C   UNL     1      26.440  47.742  50.024  1.00  0.00     0.099 A 
HETATM    6  C   UNL     1      25.877  48.767  49.266  1.00  0.00     0.033 A 
ENDROOT
BRANCH   1   7
HETATM    7  C   UNL     1      23.811  49.840  48.268  1.00  0.00     0.192 C 
HETATM    8  O   UNL     1      24.346  50.293  47.261  1.00  0.00    -0.287 OA
BRANCH   7   9
HETATM    9  C   UNL     1      22.491  50.362  48.680  1.00  0.00     0.015 A 
HETATM   10  C   UNL     1      21.521  50.567  47.692  1.00  0.00     0.017 A 
HETATM   11  C   UNL     1      20.263  51.063  48.039  1.00  0.00     0.025 A 
HETATM   12  C   UNL     1      19.984  51.368  49.370  1.00  0.00     0.034 A 
HETATM   13  C   UNL     1      20.956  51.192  50.356  1.00  0.00     0.025 A 
HETATM   14 CL   UNL     1      18.433  51.973  49.802  1.00  0.00    -0.084 Cl
HETATM   15  C   UNL     1      22.217  50.696  50.012  1.00  0.00     0.017 A 
ENDBRANCH   7   9
ENDBRANCH   1   7
BRANCH   4  16
HETATM   16  C   UNL     1      26.246  45.705  51.312  1.00  0.00     0.135 A 
HETATM   17  N   UNL     1      26.533  45.898  52.644  1.00  0.00    -0.302 N 
HETATM   18  C   UNL     1      27.082  44.834  53.313  1.00  0.00     0.290 A 
HETATM   19  H   UNL     1      26.322  46.729  53.179  1.00  0.00     0.171 HD
HETATM   20  O   UNL     1      27.381  44.808  54.489  1.00  0.00    -0.260 OA
HETATM   21  S   UNL     1      27.267  43.508  52.175  1.00  0.00    -0.022 SA
HETATM   22  C   UNL     1      26.594  44.474  50.895  1.00  0.00     0.092 A 
BRANCH  22  23
HETATM   23  C   UNL     1      26.581  43.911  49.536  1.00  0.00     0.281 C 
HETATM   24  O   UNL     1      27.188  42.883  49.265  1.00  0.00    -0.301 OA
ENDBRANCH  22  23
ENDBRANCH   4  16
TORSDOF 4
ENDMDL
MODEL 6
REMARK VINA RESULT:      -8.4      4.493      8.669
REMARK  4 active torsions:
REMARK  status: ('A' for Active; 'I' for Inactive)
REMARK    1  A    between atoms: C_2  and  C_3 
REMARK    2  A    between atoms: C_3  and  C_4 
REMARK    3  A    between atoms: N_7  and  C_8 
REMARK    4  A    between atoms: C_13  and  C_14 
ROOT
HETATM    1  C   UNL     1      24.444  48.759  48.961  1.00  0.00     0.017 A 
HETATM    2  C   UNL     1      23.702  47.673  49.422  1.00  0.00     0.033 A 
HETATM    3  C   UNL     1      24.320  46.681  50.172  1.00  0.00     0.099 A 
HETATM    4  N   UNL     1      25.643  46.747  50.478  1.00  0.00    -0.318 N 
HETATM    5  C   UNL     1      26.377  47.794  50.016  1.00  0.00     0.099 A 
HETATM    6  C   UNL     1      25.797  48.819  49.270  1.00  0.00     0.033 A 
ENDROOT
BRANCH   1   7
HETATM    7  C   UNL     1      23.723  49.837  48.233  1.00  0.00     0.192 C 
HETATM    8  O   UNL     1      24.236  50.286  47.213  1.00  0.00    -0.287 OA
BRANCH   7   9
HETATM    9  C   UNL     1      22.409  50.356  48.668  1.00  0.00     0.015 A 
HETATM   10  C   UNL     1      21.429  50.581  47.694  1.00  0.00     0.017 A 
HETATM   11  C   UNL     1      20.177  51.074  48.064  1.00  0.00     0.025 A 
HETATM   12  C   UNL     1      19.913  51.357  49.404  1.00  0.00     0.034 A 
HETATM   13  C   UNL     1      20.895  51.161  50.375  1.00  0.00     0.025 A 
HETATM   14 CL   UNL     1      18.369  51.959  49.863  1.00  0.00    -0.084 Cl
HETATM   15  C   UNL     1      22.150  50.667  50.009  1.00  0.00     0.017 A 
ENDBRANCH   7   9
ENDBRANCH   1   7
BRANCH   4  16
HETATM   16  C   UNL     1      26.225  45.713  51.237  1.00  0.00     0.135 A 
HETATM   17  N   UNL     1      26.775  44.613  50.619  1.00  0.00    -0.302 N 
HETATM   18  C   UNL     1      27.320  43.659  51.439  1.00  0.00     0.290 A 
HETATM   19  H   UNL     1      26.862  44.478  49.621  1.00  0.00     0.171 HD
HETATM   20  O   UNL     1      27.866  42.635  51.080  1.00  0.00    -0.260 OA
HETATM   21  S   UNL     1      27.102  44.178  53.104  1.00  0.00    -0.022 SA
HETATM   22  C   UNL     1      26.305  45.630  52.577  1.00  0.00     0.092 A 
BRANCH  22  23
HETATM   23  C   UNL     1      25.732  46.516  53.602  1.00  0.00     0.281 C 
HETATM   24  O   UNL     1      25.829  47.734  53.520  1.00  0.00    -0.301 OA
ENDBRANCH  22  23
ENDBRANCH   4  16
TORSDOF 4
ENDMDL
MODEL 7
REMARK VINA RESULT:      -8.2      2.487      3.505
REMARK  4 active torsions:
REMARK  status: ('A' for Active; 'I' for Inactive)
REMARK    1  A    between atoms: C_2  and  C_3 
REMARK    2  A    between atoms: C_3  and  C_4 
REMARK    3  A    between atoms: N_7  and  C_8 
REMARK    4  A    between atoms: C_13  and  C_14 
ROOT
HETATM    1  C   UNL     1      27.712  43.752  52.375  1.00  0.00     0.017 A 
HETATM    2  C   UNL     1      26.427  43.728  52.913  1.00  0.00     0.033 A 
HETATM    3  C   UNL     1      25.340  44.083  52.126  1.00  0.00     0.099 A 
HETATM    4  N   UNL     1      25.498  44.453  50.827  1.00  0.00    -0.318 N 
HETATM    5  C   UNL     1      26.752  44.496  50.301  1.00  0.00     0.099 A 
HETATM    6  C   UNL     1      27.871  44.136  51.050  1.00  0.00     0.033 A 
ENDROOT
BRANCH   1   7
HETATM    7  C   UNL     1      28.835  43.284  53.230  1.00  0.00     0.192 C 
HETATM    8  O   UNL     1      29.426  42.261  52.898  1.00  0.00    -0.287 OA
BRANCH   7   9
HETATM    9  C   UNL     1      29.285  44.017  54.433  1.00  0.00     0.015 A 
HETATM   10  C   UNL     1      30.354  43.492  55.168  1.00  0.00     0.017 A 
HETATM   11  C   UNL     1      30.806  44.152  56.312  1.00  0.00     0.025 A 
HETATM   12  C   UNL     1      30.177  45.325  56.728  1.00  0.00     0.034 A 
HETATM   13  C   UNL     1      29.093  45.837  56.015  1.00  0.00     0.025 A 
HETATM   14 CL   UNL     1      30.735  46.143  58.134  1.00  0.00    -0.084 Cl
HETATM   15  C   UNL     1      28.637  45.180  54.869  1.00  0.00     0.017 A 
ENDBRANCH   7   9
ENDBRANCH   1   7
BRANCH   4  16
HETATM   16  C   UNL     1      24.365  44.811  50.071  1.00  0.00     0.135 A 
HETATM   17  N   UNL     1      24.017  46.132  49.914  1.00  0.00    -0.302 N 
HETATM   18  C   UNL     1      22.898  46.385  49.160  1.00  0.00     0.290 A 
HETATM   19  H   UNL     1      24.540  46.927  50.255  1.00  0.00     0.171 HD
HETATM   20  O   UNL     1      22.449  47.481  48.895  1.00  0.00    -0.260 OA
HETATM   21  S   UNL     1      22.234  44.846  48.633  1.00  0.00    -0.022 SA
HETATM   22  C   UNL     1      23.501  43.984  49.456  1.00  0.00     0.092 A 
BRANCH  22  23
HETATM   23  C   UNL     1      23.433  42.515  49.485  1.00  0.00     0.281 C 
HETATM   24  O   UNL     1      22.509  41.908  48.960  1.00  0.00    -0.301 OA
ENDBRANCH  22  23
ENDBRANCH   4  16
TORSDOF 4
ENDMDL
MODEL 8
REMARK VINA RESULT:      -8.0      4.065      5.060
REMARK  4 active torsions:
REMARK  status: ('A' for Active; 'I' for Inactive)
REMARK    1  A    between atoms: C_2  and  C_3 
REMARK    2  A    between atoms: C_3  and  C_4 
REMARK    3  A    between atoms: N_7  and  C_8 
REMARK    4  A    between atoms: C_13  and  C_14 
ROOT
HETATM    1  C   UNL     1      26.910  44.571  52.602  1.00  0.00     0.017 A 
HETATM    2  C   UNL     1      27.627  44.478  51.411  1.00  0.00     0.033 A 
HETATM    3  C   UNL     1      27.067  43.837  50.314  1.00  0.00     0.099 A 
HETATM    4  N   UNL     1      25.821  43.298  50.370  1.00  0.00    -0.318 N 
HETATM    5  C   UNL     1      25.122  43.369  51.535  1.00  0.00     0.099 A 
HETATM    6  C   UNL     1      25.638  44.013  52.658  1.00  0.00     0.033 A 
ENDROOT
BRANCH   1   7
HETATM    7  C   UNL     1      27.515  45.338  53.723  1.00  0.00     0.192 C 
HETATM    8  O   UNL     1      27.035  46.433  53.998  1.00  0.00    -0.287 OA
BRANCH   7   9
HETATM    9  C   UNL     1      28.638  44.819  54.533  1.00  0.00     0.015 A 
HETATM   10  C   UNL     1      29.187  45.652  55.515  1.00  0.00     0.017 A 
HETATM   11  C   UNL     1      30.251  45.201  56.299  1.00  0.00     0.025 A 
HETATM   12  C   UNL     1      30.774  43.926  56.087  1.00  0.00     0.034 A 
HETATM   13  C   UNL     1      30.249  43.102  55.090  1.00  0.00     0.025 A 
HETATM   14 CL   UNL     1      32.081  43.365  57.053  1.00  0.00    -0.084 Cl
HETATM   15  C   UNL     1      29.183  43.550  54.304  1.00  0.00     0.017 A 
ENDBRANCH   7   9
ENDBRANCH   1   7
BRANCH   4  16
HETATM   16  C   UNL     1      25.299  42.652  49.232  1.00  0.00     0.135 A 
HETATM   17  N   UNL     1      24.459  43.319  48.371  1.00  0.00    -0.302 N 
HETATM   18  C   UNL     1      24.001  42.609  47.290  1.00  0.00     0.290 A 
HETATM   19  H   UNL     1      24.200  44.294  48.434  1.00  0.00     0.171 HD
HETATM   20  O   UNL     1      23.273  43.032  46.415  1.00  0.00    -0.260 OA
HETATM   21  S   UNL     1      24.660  40.983  47.383  1.00  0.00    -0.022 SA
HETATM   22  C   UNL     1      25.499  41.376  48.855  1.00  0.00     0.092 A 
BRANCH  22  23
HETATM   23  C   UNL     1      26.212  40.297  49.555  1.00  0.00     0.281 C 
HETATM   24  O   UNL     1      25.997  40.050  50.735  1.00  0.00    -0.301 OA
ENDBRANCH  22  23
ENDBRANCH   4  16
TORSDOF 4
ENDMDL
MODEL 9
REMARK VINA RESULT:      -7.8      4.151      5.428
REMARK  4 active torsions:
REMARK  status: ('A' for Active; 'I' for Inactive)
REMARK    1  A    between atoms: C_2  and  C_3 
REMARK    2  A    between atoms: C_3  and  C_4 
REMARK    3  A    between atoms: N_7  and  C_8 
REMARK    4  A    between atoms: C_13  and  C_14 
ROOT
HETATM    1  C   UNL     1      27.174  44.112  52.188  1.00  0.00     0.017 A 
HETATM    2  C   UNL     1      27.214  44.730  50.940  1.00  0.00     0.033 A 
HETATM    3  C   UNL     1      26.844  44.022  49.804  1.00  0.00     0.099 A 
HETATM    4  N   UNL     1      26.433  42.729  49.880  1.00  0.00    -0.318 N 
HETATM    5  C   UNL     1      26.409  42.113  51.092  1.00  0.00     0.099 A 
HETATM    6  C   UNL     1      26.760  42.788  52.261  1.00  0.00     0.033 A 
ENDROOT
BRANCH   1   7
HETATM    7  C   UNL     1      27.499  44.933  53.384  1.00  0.00     0.192 C 
HETATM    8  O   UNL     1      26.778  45.893  53.638  1.00  0.00    -0.287 OA
BRANCH   7   9
HETATM    9  C   UNL     1      28.626  44.619  54.288  1.00  0.00     0.015 A 
HETATM   10  C   UNL     1      29.315  43.416  54.094  1.00  0.00     0.017 A 
HETATM   11  C   UNL     1      30.383  43.080  54.928  1.00  0.00     0.025 A 
HETATM   12  C   UNL     1      30.747  43.939  55.965  1.00  0.00     0.034 A 
HETATM   13  C   UNL     1      30.045  45.125  56.181  1.00  0.00     0.025 A 
HETATM   14 CL   UNL     1      32.064  43.530  56.992  1.00  0.00    -0.084 Cl
HETATM   15  C   UNL     1      28.975  45.465  55.347  1.00  0.00     0.017 A 
ENDBRANCH   7   9
ENDBRANCH   1   7
BRANCH   4  16
HETATM   16  C   UNL     1      26.074  42.050  48.698  1.00  0.00     0.135 A 
HETATM   17  N   UNL     1      27.038  41.497  47.888  1.00  0.00    -0.302 N 
HETATM   18  C   UNL     1      26.593  40.855  46.759  1.00  0.00     0.290 A 
HETATM   19  H   UNL     1      28.030  41.472  48.080  1.00  0.00     0.171 HD
HETATM   20  O   UNL     1      27.288  40.290  45.939  1.00  0.00    -0.260 OA
HETATM   21  S   UNL     1      24.841  40.980  46.712  1.00  0.00    -0.022 SA
HETATM   22  C   UNL     1      24.836  41.875  48.203  1.00  0.00     0.092 A 
BRANCH  22  23
HETATM   23  C   UNL     1      23.554  42.416  48.682  1.00  0.00     0.281 C 
HETATM   24  O   UNL     1      22.590  41.689  48.881  1.00  0.00    -0.301 OA
ENDBRANCH  22  23
ENDBRANCH   4  16
TORSDOF 4
ENDMDL
MODEL 10
REMARK VINA RESULT:      -7.8      2.012      2.444
REMARK  4 active torsions:
REMARK  status: ('A' for Active; 'I' for Inactive)
REMARK    1  A    between atoms: C_2  and  C_3 
REMARK    2  A    between atoms: C_3  and  C_4 
REMARK    3  A    between atoms: N_7  and  C_8 
REMARK    4  A    between atoms: C_13  and  C_14 
ROOT
HETATM    1  C   UNL     1      26.562  43.515  51.093  1.00  0.00     0.017 A 
HETATM    2  C   UNL     1      25.242  43.441  51.533  1.00  0.00     0.033 A 
HETATM    3  C   UNL     1      24.250  44.151  50.869  1.00  0.00     0.099 A 
HETATM    4  N   UNL     1      24.536  44.919  49.785  1.00  0.00    -0.318 N 
HETATM    5  C   UNL     1      25.825  45.010  49.361  1.00  0.00     0.099 A 
HETATM    6  C   UNL     1      26.852  44.306  49.988  1.00  0.00     0.033 A 
ENDROOT
BRANCH   1   7
HETATM    7  C   UNL     1      27.575  42.673  51.784  1.00  0.00     0.192 C 
HETATM    8  O   UNL     1      27.774  41.541  51.355  1.00  0.00    -0.287 OA
BRANCH   7   9
HETATM    9  C   UNL     1      28.370  43.159  52.933  1.00  0.00     0.015 A 
HETATM   10  C   UNL     1      27.847  44.203  53.705  1.00  0.00     0.017 A 
HETATM   11  C   UNL     1      28.567  44.693  54.796  1.00  0.00     0.025 A 
HETATM   12  C   UNL     1      29.814  44.149  55.102  1.00  0.00     0.034 A 
HETATM   13  C   UNL     1      30.352  43.127  54.319  1.00  0.00     0.025 A 
HETATM   14 CL   UNL     1      30.701  44.746  56.449  1.00  0.00    -0.084 Cl
HETATM   15  C   UNL     1      29.634  42.634  53.226  1.00  0.00     0.017 A 
ENDBRANCH   7   9
ENDBRANCH   1   7
BRANCH   4  16
HETATM   16  C   UNL     1      23.496  45.625  49.148  1.00  0.00     0.135 A 
HETATM   17  N   UNL     1      22.506  44.954  48.470  1.00  0.00    -0.302 N 
HETATM   18  C   UNL     1      21.536  45.726  47.882  1.00  0.00     0.290 A 
HETATM   19  H   UNL     1      22.401  43.950  48.416  1.00  0.00     0.171 HD
HETATM   20  O   UNL     1      20.575  45.316  47.263  1.00  0.00    -0.260 OA
HETATM   21  S   UNL     1      21.915  47.413  48.192  1.00  0.00    -0.022 SA
HETATM   22  C   UNL     1      23.337  46.959  49.085  1.00  0.00     0.092 A 
BRANCH  22  23
HETATM   23  C   UNL     1      24.229  48.029  49.556  1.00  0.00     0.281 C 
HETATM   24  O   UNL     1      23.788  49.097  49.961  1.00  0.00    -0.301 OA
ENDBRANCH  22  23
ENDBRANCH   4  16
TORSDOF 4
ENDMDL
