MODEL 1
REMARK VINA RESULT:      -7.6      0.000      0.000
REMARK  9 active torsions:
REMARK  status: ('A' for Active; 'I' for Inactive)
REMARK    1  A    between atoms: O_2  and  C_3 
REMARK    2  A    between atoms: C_3  and  C_4 
REMARK    3  A    between atoms: C_4  and  S_5 
REMARK    4  A    between atoms: S_5  and  C_6 
REMARK    5  A    between atoms: C_7  and  C_8 
REMARK       I    between atoms: C_8  and  N_9 
REMARK    6  A    between atoms: N_9  and  C_10 
REMARK    7  A    between atoms: C_11  and  C_12 
REMARK       I    between atoms: C_12  and  N_13 
REMARK    8  A    between atoms: N_13  and  C_14 
REMARK    9  A    between atoms: C_14  and  C_15 
ROOT
HETATM    1  C   UNL     1      28.132  44.066  53.895  1.00  0.00     0.050 A 
HETATM    2  C   UNL     1      28.965  42.934  53.899  1.00  0.00     0.058 A 
HETATM    3  C   UNL     1      30.125  42.905  54.688  1.00  0.00     0.019 A 
HETATM    4  C   UNL     1      30.450  43.997  55.491  1.00  0.00     0.001 A 
HETATM    5  C   UNL     1      29.606  45.106  55.527  1.00  0.00     0.002 A 
HETATM    6  C   UNL     1      28.449  45.136  54.743  1.00  0.00     0.030 A 
ENDROOT
BRANCH   1   7
HETATM    7  N   UNL     1      26.965  44.194  53.114  1.00  0.00    -0.322 N 
HETATM    8  C   UNL     1      26.958  44.249  51.734  1.00  0.00     0.257 C 
HETATM    9  O   UNL     1      27.926  44.455  51.013  1.00  0.00    -0.267 OA
HETATM   10  H   UNL     1      26.108  44.465  53.583  1.00  0.00     0.169 HD
BRANCH   8  11
HETATM   11  C   UNL     1      25.626  44.039  51.133  1.00  0.00     0.049 A 
HETATM   12  C   UNL     1      24.714  45.082  50.912  1.00  0.00     0.016 A 
HETATM   13  C   UNL     1      23.474  44.767  50.337  1.00  0.00     0.019 A 
HETATM   14  C   UNL     1      23.162  43.452  49.973  1.00  0.00     0.001 A 
HETATM   15  C   UNL     1      24.082  42.429  50.184  1.00  0.00     0.001 A 
HETATM   16  C   UNL     1      25.315  42.720  50.764  1.00  0.00     0.018 A 
BRANCH  12  17
HETATM   17  S   UNL     1      24.965  46.780  51.410  1.00  0.00    -0.127 SA
BRANCH  17  18
HETATM   18  C   UNL     1      25.411  47.541  49.802  1.00  0.00     0.106 C 
BRANCH  18  19
HETATM   19  C   UNL     1      26.928  47.617  49.599  1.00  0.00     0.177 C 
BRANCH  19  20
HETATM   20  O   UNL     1      27.361  48.485  48.550  1.00  0.00    -0.395 OA
HETATM   21  C   UNL     1      26.640  49.706  48.480  1.00  0.00     0.201 C 
ENDBRANCH  19  20
ENDBRANCH  18  19
ENDBRANCH  17  18
ENDBRANCH  12  17
ENDBRANCH   8  11
ENDBRANCH   1   7
BRANCH   2  22
HETATM   22  C   UNL     1      28.560  41.648  53.291  1.00  0.00     0.254 C 
HETATM   23  N   UNL     1      29.357  41.217  52.250  1.00  0.00    -0.354 N 
HETATM   24  H   UNL     1      29.769  41.973  51.711  1.00  0.00     0.162 HD
HETATM   25  O   UNL     1      27.588  41.042  53.728  1.00  0.00    -0.268 OA
BRANCH  23  26
HETATM   26  C   UNL     1      28.924  40.079  51.460  1.00  0.00     0.155 C 
BRANCH  26  27
HETATM   27  C   UNL     1      28.059  40.513  50.269  1.00  0.00     0.139 C 
HETATM   28  O   UNL     1      26.850  39.724  50.247  1.00  0.00    -0.384 OA
HETATM   29  C   UNL     1      26.959  38.737  49.211  1.00  0.00     0.168 C 
HETATM   30  C   UNL     1      28.360  38.827  48.641  1.00  0.00     0.029 C 
HETATM   31  C   UNL     1      28.735  40.258  48.931  1.00  0.00     0.035 C 
ENDBRANCH  26  27
ENDBRANCH  23  26
ENDBRANCH   2  22
TORSDOF 9
ENDMDL
MODEL 2
REMARK VINA RESULT:      -7.5      2.218      5.356
REMARK  9 active torsions:
REMARK  status: ('A' for Active; 'I' for Inactive)
REMARK    1  A    between atoms: O_2  and  C_3 
REMARK    2  A    between atoms: C_3  and  C_4 
REMARK    3  A    between atoms: C_4  and  S_5 
REMARK    4  A    between atoms: S_5  and  C_6 
REMARK    5  A    between atoms: C_7  and  C_8 
REMARK       I    between atoms: C_8  and  N_9 
REMARK    6  A    between atoms: N_9  and  C_10 
REMARK    7  A    between atoms: C_11  and  C_12 
REMARK       I    between atoms: C_12  and  N_13 
REMARK    8  A    between atoms: N_13  and  C_14 
REMARK    9  A    between atoms: C_14  and  C_15 
ROOT
HETATM    1  C   UNL     1      28.324  43.535  54.107  1.00  0.00     0.050 A 
HETATM    2  C   UNL     1      27.651  44.688  54.542  1.00  0.00     0.058 A 
HETATM    3  C   UNL     1      28.245  45.551  55.476  1.00  0.00     0.019 A 
HETATM    4  C   UNL     1      29.521  45.277  55.966  1.00  0.00     0.001 A 
HETATM    5  C   UNL     1      30.214  44.159  55.506  1.00  0.00     0.002 A 
HETATM    6  C   UNL     1      29.625  43.299  54.573  1.00  0.00     0.030 A 
ENDROOT
BRANCH   1   7
HETATM    7  N   UNL     1      27.794  42.599  53.194  1.00  0.00    -0.322 N 
HETATM    8  C   UNL     1      27.812  42.759  51.822  1.00  0.00     0.257 C 
HETATM    9  O   UNL     1      28.034  43.800  51.218  1.00  0.00    -0.267 OA
HETATM   10  H   UNL     1      27.189  41.872  53.558  1.00  0.00     0.169 HD
BRANCH   8  11
HETATM   11  C   UNL     1      27.521  41.521  51.071  1.00  0.00     0.049 A 
HETATM   12  C   UNL     1      26.296  41.288  50.429  1.00  0.00     0.016 A 
HETATM   13  C   UNL     1      26.127  40.075  49.745  1.00  0.00     0.019 A 
HETATM   14  C   UNL     1      27.159  39.131  49.687  1.00  0.00     0.001 A 
HETATM   15  C   UNL     1      28.375  39.382  50.318  1.00  0.00     0.001 A 
HETATM   16  C   UNL     1      28.559  40.576  51.010  1.00  0.00     0.018 A 
BRANCH  12  17
HETATM   17  S   UNL     1      24.881  42.377  50.503  1.00  0.00    -0.127 SA
BRANCH  17  18
HETATM   18  C   UNL     1      24.434  42.472  48.726  1.00  0.00     0.106 C 
BRANCH  18  19
HETATM   19  C   UNL     1      22.964  42.118  48.480  1.00  0.00     0.177 C 
BRANCH  19  20
HETATM   20  O   UNL     1      22.040  43.193  48.654  1.00  0.00    -0.395 OA
HETATM   21  C   UNL     1      21.828  43.965  47.481  1.00  0.00     0.201 C 
ENDBRANCH  19  20
ENDBRANCH  18  19
ENDBRANCH  17  18
ENDBRANCH  12  17
ENDBRANCH   8  11
ENDBRANCH   1   7
BRANCH   2  22
HETATM   22  C   UNL     1      26.424  45.188  53.884  1.00  0.00     0.254 C 
HETATM   23  N   UNL     1      26.632  46.130  52.898  1.00  0.00    -0.354 N 
HETATM   24  H   UNL     1      27.447  46.717  53.058  1.00  0.00     0.162 HD
HETATM   25  O   UNL     1      25.328  44.752  54.217  1.00  0.00    -0.268 OA
BRANCH  23  26
HETATM   26  C   UNL     1      25.488  46.828  52.340  1.00  0.00     0.155 C 
BRANCH  26  27
HETATM   27  C   UNL     1      25.746  47.271  50.893  1.00  0.00     0.139 C 
HETATM   28  O   UNL     1      24.713  48.196  50.488  1.00  0.00    -0.384 OA
HETATM   29  C   UNL     1      23.792  47.514  49.625  1.00  0.00     0.168 C 
HETATM   30  C   UNL     1      24.194  46.053  49.591  1.00  0.00     0.029 C 
HETATM   31  C   UNL     1      25.667  46.117  49.906  1.00  0.00     0.035 C 
ENDBRANCH  26  27
ENDBRANCH  23  26
ENDBRANCH   2  22
TORSDOF 9
ENDMDL
MODEL 3
REMARK VINA RESULT:      -7.5      3.186      8.269
REMARK  9 active torsions:
REMARK  status: ('A' for Active; 'I' for Inactive)
REMARK    1  A    between atoms: O_2  and  C_3 
REMARK    2  A    between atoms: C_3  and  C_4 
REMARK    3  A    between atoms: C_4  and  S_5 
REMARK    4  A    between atoms: S_5  and  C_6 
REMARK    5  A    between atoms: C_7  and  C_8 
REMARK       I    between atoms: C_8  and  N_9 
REMARK    6  A    between atoms: N_9  and  C_10 
REMARK    7  A    between atoms: C_11  and  C_12 
REMARK       I    between atoms: C_12  and  N_13 
REMARK    8  A    between atoms: N_13  and  C_14 
REMARK    9  A    between atoms: C_14  and  C_15 
ROOT
HETATM    1  C   UNL     1      24.844  44.805  50.981  1.00  0.00     0.050 A 
HETATM    2  C   UNL     1      24.199  45.590  50.011  1.00  0.00     0.058 A 
HETATM    3  C   UNL     1      23.315  45.004  49.091  1.00  0.00     0.019 A 
HETATM    4  C   UNL     1      23.055  43.636  49.147  1.00  0.00     0.001 A 
HETATM    5  C   UNL     1      23.657  42.857  50.135  1.00  0.00     0.002 A 
HETATM    6  C   UNL     1      24.536  43.439  51.053  1.00  0.00     0.030 A 
ENDROOT
BRANCH   1   7
HETATM    7  N   UNL     1      25.767  45.302  51.925  1.00  0.00    -0.322 N 
HETATM    8  C   UNL     1      25.652  45.120  53.289  1.00  0.00     0.257 C 
HETATM    9  O   UNL     1      24.651  44.752  53.889  1.00  0.00    -0.267 OA
HETATM   10  H   UNL     1      26.434  45.998  51.614  1.00  0.00     0.169 HD
BRANCH   8  11
HETATM   11  C   UNL     1      26.889  45.422  54.038  1.00  0.00     0.049 A 
HETATM   12  C   UNL     1      27.833  44.443  54.381  1.00  0.00     0.016 A 
HETATM   13  C   UNL     1      28.971  44.842  55.096  1.00  0.00     0.019 A 
HETATM   14  C   UNL     1      29.172  46.183  55.441  1.00  0.00     0.001 A 
HETATM   15  C   UNL     1      28.233  47.147  55.082  1.00  0.00     0.001 A 
HETATM   16  C   UNL     1      27.091  46.769  54.380  1.00  0.00     0.018 A 
BRANCH  12  17
HETATM   17  S   UNL     1      27.647  42.693  54.071  1.00  0.00    -0.127 SA
BRANCH  17  18
HETATM   18  C   UNL     1      28.414  42.560  52.410  1.00  0.00     0.106 C 
BRANCH  18  19
HETATM   19  C   UNL     1      28.683  41.105  52.013  1.00  0.00     0.177 C 
BRANCH  19  20
HETATM   20  O   UNL     1      28.115  40.698  50.767  1.00  0.00    -0.395 OA
HETATM   21  C   UNL     1      26.701  40.562  50.798  1.00  0.00     0.201 C 
ENDBRANCH  19  20
ENDBRANCH  18  19
ENDBRANCH  17  18
ENDBRANCH  12  17
ENDBRANCH   8  11
ENDBRANCH   1   7
BRANCH   2  22
HETATM   22  C   UNL     1      24.211  47.069  50.049  1.00  0.00     0.254 C 
HETATM   23  N   UNL     1      23.362  47.684  49.153  1.00  0.00    -0.354 N 
HETATM   24  H   UNL     1      23.224  47.159  48.294  1.00  0.00     0.162 HD
HETATM   25  O   UNL     1      24.931  47.655  50.850  1.00  0.00    -0.268 OA
BRANCH  23  26
HETATM   26  C   UNL     1      23.453  49.122  48.973  1.00  0.00     0.155 C 
BRANCH  26  27
HETATM   27  C   UNL     1      22.198  49.838  49.490  1.00  0.00     0.139 C 
HETATM   28  O   UNL     1      21.068  48.944  49.395  1.00  0.00    -0.384 OA
HETATM   29  C   UNL     1      20.262  49.333  48.273  1.00  0.00     0.168 C 
HETATM   30  C   UNL     1      20.993  50.446  47.551  1.00  0.00     0.029 C 
HETATM   31  C   UNL     1      21.829  51.050  48.651  1.00  0.00     0.035 C 
ENDBRANCH  26  27
ENDBRANCH  23  26
ENDBRANCH   2  22
TORSDOF 9
ENDMDL
MODEL 4
REMARK VINA RESULT:      -7.5      1.817      2.115
REMARK  9 active torsions:
REMARK  status: ('A' for Active; 'I' for Inactive)
REMARK    1  A    between atoms: O_2  and  C_3 
REMARK    2  A    between atoms: C_3  and  C_4 
REMARK    3  A    between atoms: C_4  and  S_5 
REMARK    4  A    between atoms: S_5  and  C_6 
REMARK    5  A    between atoms: C_7  and  C_8 
REMARK       I    between atoms: C_8  and  N_9 
REMARK    6  A    between atoms: N_9  and  C_10 
REMARK    7  A    between atoms: C_11  and  C_12 
REMARK       I    between atoms: C_12  and  N_13 
REMARK    8  A    between atoms: N_13  and  C_14 
REMARK    9  A    between atoms: C_14  and  C_15 
ROOT
HETATM    1  C   UNL     1      27.648  43.612  52.502  1.00  0.00     0.050 A 
HETATM    2  C   UNL     1      28.328  42.400  52.298  1.00  0.00     0.058 A 
HETATM    3  C   UNL     1      29.440  42.065  53.085  1.00  0.00     0.019 A 
HETATM    4  C   UNL     1      29.868  42.928  54.093  1.00  0.00     0.001 A 
HETATM    5  C   UNL     1      29.172  44.112  54.331  1.00  0.00     0.002 A 
HETATM    6  C   UNL     1      28.062  44.447  53.549  1.00  0.00     0.030 A 
ENDROOT
BRANCH   1   7
HETATM    7  N   UNL     1      26.540  44.044  51.742  1.00  0.00    -0.322 N 
HETATM    8  C   UNL     1      26.633  44.572  50.469  1.00  0.00     0.257 C 
HETATM    9  O   UNL     1      27.652  44.980  49.928  1.00  0.00    -0.267 OA
HETATM   10  H   UNL     1      25.656  44.166  52.221  1.00  0.00     0.169 HD
BRANCH   8  11
HETATM   11  C   UNL     1      25.345  44.629  49.750  1.00  0.00     0.049 A 
HETATM   12  C   UNL     1      24.517  45.762  49.754  1.00  0.00     0.016 A 
HETATM   13  C   UNL     1      23.313  45.705  49.038  1.00  0.00     0.019 A 
HETATM   14  C   UNL     1      22.955  44.558  48.320  1.00  0.00     0.001 A 
HETATM   15  C   UNL     1      23.793  43.446  48.312  1.00  0.00     0.001 A 
HETATM   16  C   UNL     1      24.989  43.479  49.026  1.00  0.00     0.018 A 
BRANCH  12  17
HETATM   17  S   UNL     1      24.826  47.248  50.698  1.00  0.00    -0.127 SA
BRANCH  17  18
HETATM   18  C   UNL     1      25.765  48.238  49.472  1.00  0.00     0.106 C 
BRANCH  18  19
HETATM   19  C   UNL     1      24.888  49.289  48.784  1.00  0.00     0.177 C 
BRANCH  19  20
HETATM   20  O   UNL     1      23.670  49.605  49.460  1.00  0.00    -0.395 OA
HETATM   21  C   UNL     1      23.110  50.854  49.083  1.00  0.00     0.201 C 
ENDBRANCH  19  20
ENDBRANCH  18  19
ENDBRANCH  17  18
ENDBRANCH  12  17
ENDBRANCH   8  11
ENDBRANCH   1   7
BRANCH   2  22
HETATM   22  C   UNL     1      27.788  41.321  51.442  1.00  0.00     0.254 C 
HETATM   23  N   UNL     1      28.737  40.567  50.783  1.00  0.00    -0.354 N 
HETATM   24  H   UNL     1      29.579  41.086  50.547  1.00  0.00     0.162 HD
HETATM   25  O   UNL     1      26.577  41.142  51.372  1.00  0.00    -0.268 OA
BRANCH  23  26
HETATM   26  C   UNL     1      28.304  39.625  49.767  1.00  0.00     0.155 C 
BRANCH  26  27
HETATM   27  C   UNL     1      28.683  40.099  48.358  1.00  0.00     0.139 C 
HETATM   28  O   UNL     1      27.948  41.303  48.048  1.00  0.00    -0.384 OA
HETATM   29  C   UNL     1      26.881  40.976  47.147  1.00  0.00     0.168 C 
HETATM   30  C   UNL     1      26.865  39.469  46.986  1.00  0.00     0.029 C 
HETATM   31  C   UNL     1      28.296  39.099  47.280  1.00  0.00     0.035 C 
ENDBRANCH  26  27
ENDBRANCH  23  26
ENDBRANCH   2  22
TORSDOF 9
ENDMDL
MODEL 5
REMARK VINA RESULT:      -7.3      1.911      5.717
REMARK  9 active torsions:
REMARK  status: ('A' for Active; 'I' for Inactive)
REMARK    1  A    between atoms: O_2  and  C_3 
REMARK    2  A    between atoms: C_3  and  C_4 
REMARK    3  A    between atoms: C_4  and  S_5 
REMARK    4  A    between atoms: S_5  and  C_6 
REMARK    5  A    between atoms: C_7  and  C_8 
REMARK       I    between atoms: C_8  and  N_9 
REMARK    6  A    between atoms: N_9  and  C_10 
REMARK    7  A    between atoms: C_11  and  C_12 
REMARK       I    between atoms: C_12  and  N_13 
REMARK    8  A    between atoms: N_13  and  C_14 
REMARK    9  A    between atoms: C_14  and  C_15 
ROOT
HETATM    1  C   UNL     1      29.533  42.873  53.473  1.00  0.00     0.050 A 
HETATM    2  C   UNL     1      28.581  43.906  53.464  1.00  0.00     0.058 A 
HETATM    3  C   UNL     1      28.599  44.902  54.454  1.00  0.00     0.019 A 
HETATM    4  C   UNL     1      29.578  44.881  55.446  1.00  0.00     0.001 A 
HETATM    5  C   UNL     1      30.552  43.885  55.437  1.00  0.00     0.002 A 
HETATM    6  C   UNL     1      30.538  42.894  54.450  1.00  0.00     0.030 A 
ENDROOT
BRANCH   1   7
HETATM    7  N   UNL     1      29.574  41.818  52.538  1.00  0.00    -0.322 N 
HETATM    8  C   UNL     1      28.770  40.697  52.599  1.00  0.00     0.257 C 
HETATM    9  O   UNL     1      28.117  40.327  53.565  1.00  0.00    -0.267 OA
HETATM   10  H   UNL     1      30.366  41.775  51.907  1.00  0.00     0.169 HD
BRANCH   8  11
HETATM   11  C   UNL     1      28.746  39.910  51.350  1.00  0.00     0.049 A 
HETATM   12  C   UNL     1      27.777  40.091  50.352  1.00  0.00     0.016 A 
HETATM   13  C   UNL     1      27.848  39.286  49.206  1.00  0.00     0.019 A 
HETATM   14  C   UNL     1      28.869  38.341  49.051  1.00  0.00     0.001 A 
HETATM   15  C   UNL     1      29.833  38.182  50.044  1.00  0.00     0.001 A 
HETATM   16  C   UNL     1      29.774  38.965  51.194  1.00  0.00     0.018 A 
BRANCH  12  17
HETATM   17  S   UNL     1      26.382  41.202  50.472  1.00  0.00    -0.127 SA
BRANCH  17  18
HETATM   18  C   UNL     1      25.388  40.654  49.031  1.00  0.00     0.106 C 
BRANCH  18  19
HETATM   19  C   UNL     1      25.056  41.813  48.085  1.00  0.00     0.177 C 
BRANCH  19  20
HETATM   20  O   UNL     1      24.338  42.897  48.677  1.00  0.00    -0.395 OA
HETATM   21  C   UNL     1      23.043  42.545  49.140  1.00  0.00     0.201 C 
ENDBRANCH  19  20
ENDBRANCH  18  19
ENDBRANCH  17  18
ENDBRANCH  12  17
ENDBRANCH   8  11
ENDBRANCH   1   7
BRANCH   2  22
HETATM   22  C   UNL     1      27.684  44.150  52.313  1.00  0.00     0.254 C 
HETATM   23  N   UNL     1      26.370  44.410  52.640  1.00  0.00    -0.354 N 
HETATM   24  H   UNL     1      26.060  43.942  53.488  1.00  0.00     0.162 HD
HETATM   25  O   UNL     1      28.132  44.128  51.172  1.00  0.00    -0.268 OA
BRANCH  23  26
HETATM   26  C   UNL     1      25.379  44.458  51.581  1.00  0.00     0.155 C 
BRANCH  26  27
HETATM   27  C   UNL     1      24.627  45.796  51.569  1.00  0.00     0.139 C 
HETATM   28  O   UNL     1      24.290  46.140  50.208  1.00  0.00    -0.384 OA
HETATM   29  C   UNL     1      25.183  47.168  49.755  1.00  0.00     0.168 C 
HETATM   30  C   UNL     1      26.215  47.388  50.842  1.00  0.00     0.029 C 
HETATM   31  C   UNL     1      25.477  46.948  52.081  1.00  0.00     0.035 C 
ENDBRANCH  26  27
ENDBRANCH  23  26
ENDBRANCH   2  22
TORSDOF 9
ENDMDL
MODEL 6
REMARK VINA RESULT:      -7.3      4.988      7.566
REMARK  9 active torsions:
REMARK  status: ('A' for Active; 'I' for Inactive)
REMARK    1  A    between atoms: O_2  and  C_3 
REMARK    2  A    between atoms: C_3  and  C_4 
REMARK    3  A    between atoms: C_4  and  S_5 
REMARK    4  A    between atoms: S_5  and  C_6 
REMARK    5  A    between atoms: C_7  and  C_8 
REMARK       I    between atoms: C_8  and  N_9 
REMARK    6  A    between atoms: N_9  and  C_10 
REMARK    7  A    between atoms: C_11  and  C_12 
REMARK       I    between atoms: C_12  and  N_13 
REMARK    8  A    between atoms: N_13  and  C_14 
REMARK    9  A    between atoms: C_14  and  C_15 
ROOT
HETATM    1  C   UNL     1      24.638  48.479  49.383  1.00  0.00     0.050 A 
HETATM    2  C   UNL     1      25.457  47.421  49.809  1.00  0.00     0.058 A 
HETATM    3  C   UNL     1      26.848  47.477  49.627  1.00  0.00     0.019 A 
HETATM    4  C   UNL     1      27.429  48.597  49.036  1.00  0.00     0.001 A 
HETATM    5  C   UNL     1      26.628  49.670  48.650  1.00  0.00     0.002 A 
HETATM    6  C   UNL     1      25.243  49.618  48.832  1.00  0.00     0.030 A 
ENDROOT
BRANCH   1   7
HETATM    7  N   UNL     1      23.232  48.497  49.500  1.00  0.00    -0.322 N 
HETATM    8  C   UNL     1      22.370  48.714  48.442  1.00  0.00     0.257 C 
HETATM    9  O   UNL     1      22.669  49.168  47.346  1.00  0.00    -0.267 OA
HETATM   10  H   UNL     1      22.834  48.559  50.430  1.00  0.00     0.169 HD
BRANCH   8  11
HETATM   11  C   UNL     1      20.968  48.351  48.730  1.00  0.00     0.049 A 
HETATM   12  C   UNL     1      20.043  49.251  49.279  1.00  0.00     0.016 A 
HETATM   13  C   UNL     1      18.737  48.798  49.514  1.00  0.00     0.019 A 
HETATM   14  C   UNL     1      18.359  47.491  49.189  1.00  0.00     0.001 A 
HETATM   15  C   UNL     1      19.283  46.612  48.630  1.00  0.00     0.001 A 
HETATM   16  C   UNL     1      20.588  47.040  48.399  1.00  0.00     0.018 A 
BRANCH  12  17
HETATM   17  S   UNL     1      20.429  50.913  49.811  1.00  0.00    -0.127 SA
BRANCH  17  18
HETATM   18  C   UNL     1      19.159  51.866  48.893  1.00  0.00     0.106 C 
BRANCH  18  19
HETATM   19  C   UNL     1      18.063  52.408  49.817  1.00  0.00     0.177 C 
BRANCH  19  20
HETATM   20  O   UNL     1      16.882  51.608  49.899  1.00  0.00    -0.395 OA
HETATM   21  C   UNL     1      15.767  52.158  49.214  1.00  0.00     0.201 C 
ENDBRANCH  19  20
ENDBRANCH  18  19
ENDBRANCH  17  18
ENDBRANCH  12  17
ENDBRANCH   8  11
ENDBRANCH   1   7
BRANCH   2  22
HETATM   22  C   UNL     1      24.958  46.329  50.674  1.00  0.00     0.254 C 
HETATM   23  N   UNL     1      25.556  46.246  51.915  1.00  0.00    -0.354 N 
HETATM   24  H   UNL     1      26.526  46.552  51.922  1.00  0.00     0.162 HD
HETATM   25  O   UNL     1      24.065  45.590  50.275  1.00  0.00    -0.268 OA
BRANCH  23  26
HETATM   26  C   UNL     1      25.283  45.090  52.750  1.00  0.00     0.155 C 
BRANCH  26  27
HETATM   27  C   UNL     1      25.972  45.205  54.117  1.00  0.00     0.139 C 
HETATM   28  O   UNL     1      27.327  45.666  53.928  1.00  0.00    -0.384 OA
HETATM   29  C   UNL     1      28.222  44.556  54.091  1.00  0.00     0.168 C 
HETATM   30  C   UNL     1      27.377  43.310  54.259  1.00  0.00     0.029 C 
HETATM   31  C   UNL     1      26.093  43.865  54.824  1.00  0.00     0.035 C 
ENDBRANCH  26  27
ENDBRANCH  23  26
ENDBRANCH   2  22
TORSDOF 9
ENDMDL
MODEL 7
REMARK VINA RESULT:      -7.3      2.516      6.162
REMARK  9 active torsions:
REMARK  status: ('A' for Active; 'I' for Inactive)
REMARK    1  A    between atoms: O_2  and  C_3 
REMARK    2  A    between atoms: C_3  and  C_4 
REMARK    3  A    between atoms: C_4  and  S_5 
REMARK    4  A    between atoms: S_5  and  C_6 
REMARK    5  A    between atoms: C_7  and  C_8 
REMARK       I    between atoms: C_8  and  N_9 
REMARK    6  A    between atoms: N_9  and  C_10 
REMARK    7  A    between atoms: C_11  and  C_12 
REMARK       I    between atoms: C_12  and  N_13 
REMARK    8  A    between atoms: N_13  and  C_14 
REMARK    9  A    between atoms: C_14  and  C_15 
ROOT
HETATM    1  C   UNL     1      25.562  45.830  50.746  1.00  0.00     0.050 A 
HETATM    2  C   UNL     1      24.600  45.037  50.097  1.00  0.00     0.058 A 
HETATM    3  C   UNL     1      23.551  45.632  49.379  1.00  0.00     0.019 A 
HETATM    4  C   UNL     1      23.467  47.020  49.290  1.00  0.00     0.001 A 
HETATM    5  C   UNL     1      24.441  47.813  49.893  1.00  0.00     0.002 A 
HETATM    6  C   UNL     1      25.489  47.222  50.606  1.00  0.00     0.030 A 
ENDROOT
BRANCH   1   7
HETATM    7  N   UNL     1      26.631  45.320  51.510  1.00  0.00    -0.322 N 
HETATM    8  C   UNL     1      26.508  44.869  52.810  1.00  0.00     0.257 C 
HETATM    9  O   UNL     1      25.565  45.075  53.561  1.00  0.00    -0.267 OA
HETATM   10  H   UNL     1      27.574  45.478  51.172  1.00  0.00     0.169 HD
BRANCH   8  11
HETATM   11  C   UNL     1      27.662  44.076  53.280  1.00  0.00     0.049 A 
HETATM   12  C   UNL     1      28.503  44.494  54.322  1.00  0.00     0.016 A 
HETATM   13  C   UNL     1      29.572  43.662  54.685  1.00  0.00     0.019 A 
HETATM   14  C   UNL     1      29.783  42.438  54.041  1.00  0.00     0.001 A 
HETATM   15  C   UNL     1      28.932  42.028  53.017  1.00  0.00     0.001 A 
HETATM   16  C   UNL     1      27.871  42.846  52.635  1.00  0.00     0.018 A 
BRANCH  12  17
HETATM   17  S   UNL     1      28.385  46.068  55.160  1.00  0.00    -0.127 SA
BRANCH  17  18
HETATM   18  C   UNL     1      29.856  45.981  56.252  1.00  0.00     0.106 C 
BRANCH  18  19
HETATM   19  C   UNL     1      29.477  46.020  57.736  1.00  0.00     0.177 C 
BRANCH  19  20
HETATM   20  O   UNL     1      30.310  45.244  58.599  1.00  0.00    -0.395 OA
HETATM   21  C   UNL     1      31.219  44.397  57.911  1.00  0.00     0.201 C 
ENDBRANCH  19  20
ENDBRANCH  18  19
ENDBRANCH  17  18
ENDBRANCH  12  17
ENDBRANCH   8  11
ENDBRANCH   1   7
BRANCH   2  22
HETATM   22  C   UNL     1      24.762  43.577  49.920  1.00  0.00     0.254 C 
HETATM   23  N   UNL     1      25.088  43.175  48.642  1.00  0.00    -0.354 N 
HETATM   24  H   UNL     1      24.709  43.777  47.915  1.00  0.00     0.162 HD
HETATM   25  O   UNL     1      24.622  42.824  50.878  1.00  0.00    -0.268 OA
BRANCH  23  26
HETATM   26  C   UNL     1      25.066  41.759  48.323  1.00  0.00     0.155 C 
BRANCH  26  27
HETATM   27  C   UNL     1      26.469  41.232  47.990  1.00  0.00     0.139 C 
HETATM   28  O   UNL     1      26.409  39.800  47.813  1.00  0.00    -0.384 OA
HETATM   29  C   UNL     1      26.954  39.165  48.979  1.00  0.00     0.168 C 
HETATM   30  C   UNL     1      27.250  40.251  49.993  1.00  0.00     0.029 C 
HETATM   31  C   UNL     1      27.462  41.460  49.119  1.00  0.00     0.035 C 
ENDBRANCH  26  27
ENDBRANCH  23  26
ENDBRANCH   2  22
TORSDOF 9
ENDMDL
MODEL 8
REMARK VINA RESULT:      -7.2      3.883      8.655
REMARK  9 active torsions:
REMARK  status: ('A' for Active; 'I' for Inactive)
REMARK    1  A    between atoms: O_2  and  C_3 
REMARK    2  A    between atoms: C_3  and  C_4 
REMARK    3  A    between atoms: C_4  and  S_5 
REMARK    4  A    between atoms: S_5  and  C_6 
REMARK    5  A    between atoms: C_7  and  C_8 
REMARK       I    between atoms: C_8  and  N_9 
REMARK    6  A    between atoms: N_9  and  C_10 
REMARK    7  A    between atoms: C_11  and  C_12 
REMARK       I    between atoms: C_12  and  N_13 
REMARK    8  A    between atoms: N_13  and  C_14 
REMARK    9  A    between atoms: C_14  and  C_15 
ROOT
HETATM    1  C   UNL     1      25.724  48.192  49.844  1.00  0.00     0.050 A 
HETATM    2  C   UNL     1      24.670  48.753  49.104  1.00  0.00     0.058 A 
HETATM    3  C   UNL     1      24.917  49.763  48.162  1.00  0.00     0.019 A 
HETATM    4  C   UNL     1      26.221  50.205  47.939  1.00  0.00     0.001 A 
HETATM    5  C   UNL     1      27.278  49.623  48.637  1.00  0.00     0.002 A 
HETATM    6  C   UNL     1      27.033  48.614  49.574  1.00  0.00     0.030 A 
ENDROOT
BRANCH   1   7
HETATM    7  N   UNL     1      25.565  47.195  50.828  1.00  0.00    -0.322 N 
HETATM    8  C   UNL     1      26.299  46.025  50.871  1.00  0.00     0.257 C 
HETATM    9  O   UNL     1      26.978  45.563  49.964  1.00  0.00    -0.267 OA
HETATM   10  H   UNL     1      24.739  47.234  51.414  1.00  0.00     0.169 HD
BRANCH   8  11
HETATM   11  C   UNL     1      26.206  45.307  52.158  1.00  0.00     0.049 A 
HETATM   12  C   UNL     1      25.587  44.056  52.293  1.00  0.00     0.016 A 
HETATM   13  C   UNL     1      25.554  43.466  53.565  1.00  0.00     0.019 A 
HETATM   14  C   UNL     1      26.141  44.098  54.667  1.00  0.00     0.001 A 
HETATM   15  C   UNL     1      26.766  45.333  54.517  1.00  0.00     0.001 A 
HETATM   16  C   UNL     1      26.800  45.940  53.263  1.00  0.00     0.018 A 
BRANCH  12  17
HETATM   17  S   UNL     1      24.732  43.194  50.981  1.00  0.00    -0.127 SA
BRANCH  17  18
HETATM   18  C   UNL     1      25.830  41.742  50.759  1.00  0.00     0.106 C 
BRANCH  18  19
HETATM   19  C   UNL     1      27.302  42.146  50.626  1.00  0.00     0.177 C 
BRANCH  19  20
HETATM   20  O   UNL     1      28.178  41.592  51.609  1.00  0.00    -0.395 OA
HETATM   21  C   UNL     1      28.934  42.563  52.319  1.00  0.00     0.201 C 
ENDBRANCH  19  20
ENDBRANCH  18  19
ENDBRANCH  17  18
ENDBRANCH  12  17
ENDBRANCH   8  11
ENDBRANCH   1   7
BRANCH   2  22
HETATM   22  C   UNL     1      23.312  48.166  49.086  1.00  0.00     0.254 C 
HETATM   23  N   UNL     1      22.287  49.070  48.896  1.00  0.00    -0.354 N 
HETATM   24  H   UNL     1      22.480  49.993  49.275  1.00  0.00     0.162 HD
HETATM   25  O   UNL     1      23.165  46.956  49.218  1.00  0.00    -0.268 OA
BRANCH  23  26
HETATM   26  C   UNL     1      20.916  48.623  49.068  1.00  0.00     0.155 C 
BRANCH  26  27
HETATM   27  C   UNL     1      20.084  49.642  49.859  1.00  0.00     0.139 C 
HETATM   28  O   UNL     1      18.770  49.744  49.269  1.00  0.00    -0.384 OA
HETATM   29  C   UNL     1      18.694  50.964  48.516  1.00  0.00     0.168 C 
HETATM   30  C   UNL     1      20.072  51.594  48.528  1.00  0.00     0.029 C 
HETATM   31  C   UNL     1      20.667  51.045  49.800  1.00  0.00     0.035 C 
ENDBRANCH  26  27
ENDBRANCH  23  26
ENDBRANCH   2  22
TORSDOF 9
ENDMDL
MODEL 9
REMARK VINA RESULT:      -7.2      4.539      7.617
REMARK  9 active torsions:
REMARK  status: ('A' for Active; 'I' for Inactive)
REMARK    1  A    between atoms: O_2  and  C_3 
REMARK    2  A    between atoms: C_3  and  C_4 
REMARK    3  A    between atoms: C_4  and  S_5 
REMARK    4  A    between atoms: S_5  and  C_6 
REMARK    5  A    between atoms: C_7  and  C_8 
REMARK       I    between atoms: C_8  and  N_9 
REMARK    6  A    between atoms: N_9  and  C_10 
REMARK    7  A    between atoms: C_11  and  C_12 
REMARK       I    between atoms: C_12  and  N_13 
REMARK    8  A    between atoms: N_13  and  C_14 
REMARK    9  A    between atoms: C_14  and  C_15 
ROOT
HETATM    1  C   UNL     1      24.818  49.043  48.688  1.00  0.00     0.050 A 
HETATM    2  C   UNL     1      25.413  47.950  49.340  1.00  0.00     0.058 A 
HETATM    3  C   UNL     1      26.799  47.917  49.558  1.00  0.00     0.019 A 
HETATM    4  C   UNL     1      27.596  48.983  49.144  1.00  0.00     0.001 A 
HETATM    5  C   UNL     1      27.009  50.090  48.536  1.00  0.00     0.002 A 
HETATM    6  C   UNL     1      25.628  50.127  48.320  1.00  0.00     0.030 A 
ENDROOT
BRANCH   1   7
HETATM    7  N   UNL     1      23.441  49.148  48.402  1.00  0.00    -0.322 N 
HETATM    8  C   UNL     1      22.538  49.839  49.187  1.00  0.00     0.257 C 
HETATM    9  O   UNL     1      22.722  50.223  50.334  1.00  0.00    -0.267 OA
HETATM   10  H   UNL     1      23.052  48.523  47.706  1.00  0.00     0.169 HD
BRANCH   8  11
HETATM   11  C   UNL     1      21.245  50.099  48.523  1.00  0.00     0.049 A 
HETATM   12  C   UNL     1      20.508  49.101  47.869  1.00  0.00     0.016 A 
HETATM   13  C   UNL     1      19.292  49.461  47.270  1.00  0.00     0.019 A 
HETATM   14  C   UNL     1      18.816  50.776  47.339  1.00  0.00     0.001 A 
HETATM   15  C   UNL     1      19.551  51.753  48.004  1.00  0.00     0.001 A 
HETATM   16  C   UNL     1      20.766  51.418  48.597  1.00  0.00     0.018 A 
BRANCH  12  17
HETATM   17  S   UNL     1      21.050  47.414  47.643  1.00  0.00    -0.127 SA
BRANCH  17  18
HETATM   18  C   UNL     1      19.925  46.539  48.796  1.00  0.00     0.106 C 
BRANCH  18  19
HETATM   19  C   UNL     1      18.729  45.911  48.072  1.00  0.00     0.177 C 
BRANCH  19  20
HETATM   20  O   UNL     1      18.805  44.497  47.880  1.00  0.00    -0.395 OA
HETATM   21  C   UNL     1      19.305  44.116  46.607  1.00  0.00     0.201 C 
ENDBRANCH  19  20
ENDBRANCH  18  19
ENDBRANCH  17  18
ENDBRANCH  12  17
ENDBRANCH   8  11
ENDBRANCH   1   7
BRANCH   2  22
HETATM   22  C   UNL     1      24.620  46.915  50.040  1.00  0.00     0.254 C 
HETATM   23  N   UNL     1      25.205  46.401  51.179  1.00  0.00    -0.354 N 
HETATM   24  H   UNL     1      26.221  46.384  51.145  1.00  0.00     0.162 HD
HETATM   25  O   UNL     1      23.522  46.586  49.605  1.00  0.00    -0.268 OA
BRANCH  23  26
HETATM   26  C   UNL     1      24.604  45.243  51.815  1.00  0.00     0.155 C 
BRANCH  26  27
HETATM   27  C   UNL     1      25.503  44.004  51.700  1.00  0.00     0.139 C 
HETATM   28  O   UNL     1      26.681  44.342  50.937  1.00  0.00    -0.384 OA
HETATM   29  C   UNL     1      26.550  43.796  49.616  1.00  0.00     0.168 C 
HETATM   30  C   UNL     1      25.163  43.199  49.505  1.00  0.00     0.029 C 
HETATM   31  C   UNL     1      24.838  42.868  50.939  1.00  0.00     0.035 C 
ENDBRANCH  26  27
ENDBRANCH  23  26
ENDBRANCH   2  22
TORSDOF 9
ENDMDL
MODEL 10
REMARK VINA RESULT:      -7.2      2.340      5.352
REMARK  9 active torsions:
REMARK  status: ('A' for Active; 'I' for Inactive)
REMARK    1  A    between atoms: O_2  and  C_3 
REMARK    2  A    between atoms: C_3  and  C_4 
REMARK    3  A    between atoms: C_4  and  S_5 
REMARK    4  A    between atoms: S_5  and  C_6 
REMARK    5  A    between atoms: C_7  and  C_8 
REMARK       I    between atoms: C_8  and  N_9 
REMARK    6  A    between atoms: N_9  and  C_10 
REMARK    7  A    between atoms: C_11  and  C_12 
REMARK       I    between atoms: C_12  and  N_13 
REMARK    8  A    between atoms: N_13  and  C_14 
REMARK    9  A    between atoms: C_14  and  C_15 
ROOT
HETATM    1  C   UNL     1      27.144  42.428  51.776  1.00  0.00     0.050 A 
HETATM    2  C   UNL     1      27.684  42.347  53.071  1.00  0.00     0.058 A 
HETATM    3  C   UNL     1      28.565  41.311  53.413  1.00  0.00     0.019 A 
HETATM    4  C   UNL     1      28.927  40.359  52.461  1.00  0.00     0.001 A 
HETATM    5  C   UNL     1      28.431  40.457  51.162  1.00  0.00     0.002 A 
HETATM    6  C   UNL     1      27.554  41.490  50.818  1.00  0.00     0.030 A 
ENDROOT
BRANCH   1   7
HETATM    7  N   UNL     1      26.231  43.416  51.352  1.00  0.00    -0.322 N 
HETATM    8  C   UNL     1      26.484  44.319  50.338  1.00  0.00     0.257 C 
HETATM    9  O   UNL     1      27.577  44.572  49.850  1.00  0.00    -0.267 OA
HETATM   10  H   UNL     1      25.435  43.614  51.948  1.00  0.00     0.169 HD
BRANCH   8  11
HETATM   11  C   UNL     1      25.280  45.017  49.845  1.00  0.00     0.049 A 
HETATM   12  C   UNL     1      25.054  46.387  50.048  1.00  0.00     0.016 A 
HETATM   13  C   UNL     1      23.873  46.946  49.538  1.00  0.00     0.019 A 
HETATM   14  C   UNL     1      22.955  46.165  48.827  1.00  0.00     0.001 A 
HETATM   15  C   UNL     1      23.198  44.810  48.621  1.00  0.00     0.001 A 
HETATM   16  C   UNL     1      24.360  44.234  49.129  1.00  0.00     0.018 A 
BRANCH  12  17
HETATM   17  S   UNL     1      26.109  47.464  51.007  1.00  0.00    -0.127 SA
BRANCH  17  18
HETATM   18  C   UNL     1      26.053  46.627  52.639  1.00  0.00     0.106 C 
BRANCH  18  19
HETATM   19  C   UNL     1      25.701  47.595  53.773  1.00  0.00     0.177 C 
BRANCH  19  20
HETATM   20  O   UNL     1      26.552  47.529  54.918  1.00  0.00    -0.395 OA
HETATM   21  C   UNL     1      26.406  48.626  55.807  1.00  0.00     0.201 C 
ENDBRANCH  19  20
ENDBRANCH  18  19
ENDBRANCH  17  18
ENDBRANCH  12  17
ENDBRANCH   8  11
ENDBRANCH   1   7
BRANCH   2  22
HETATM   22  C   UNL     1      27.564  43.449  54.051  1.00  0.00     0.254 C 
HETATM   23  N   UNL     1      28.760  44.010  54.449  1.00  0.00    -0.354 N 
HETATM   24  H   UNL     1      29.538  43.355  54.452  1.00  0.00     0.162 HD
HETATM   25  O   UNL     1      26.457  43.810  54.436  1.00  0.00    -0.268 OA
BRANCH  23  26
HETATM   26  C   UNL     1      28.761  44.951  55.554  1.00  0.00     0.155 C 
BRANCH  26  27
HETATM   27  C   UNL     1      30.181  45.422  55.895  1.00  0.00     0.139 C 
HETATM   28  O   UNL     1      31.065  44.280  55.926  1.00  0.00    -0.384 OA
HETATM   29  C   UNL     1      31.347  43.949  57.294  1.00  0.00     0.168 C 
HETATM   30  C   UNL     1      30.493  44.846  58.166  1.00  0.00     0.029 C 
HETATM   31  C   UNL     1      30.275  46.045  57.279  1.00  0.00     0.035 C 
ENDBRANCH  26  27
ENDBRANCH  23  26
ENDBRANCH   2  22
TORSDOF 9
ENDMDL
