MODEL 1
REMARK VINA RESULT:      -8.7      0.000      0.000
REMARK  8 active torsions:
REMARK  status: ('A' for Active; 'I' for Inactive)
REMARK    1  A    between atoms: O_2  and  C_3 
REMARK    2  A    between atoms: C_4  and  O_5 
REMARK    3  A    between atoms: C_8  and  N_9 
REMARK       I    between atoms: N_9  and  C_10 
REMARK    4  A    between atoms: C_10  and  C_11 
REMARK       I    between atoms: C_11  and  N_12 
REMARK    5  A    between atoms: N_12  and  C_13 
REMARK    6  A    between atoms: C_13  and  C_14 
REMARK    7  A    between atoms: C_14  and  S_15 
REMARK    8  A    between atoms: S_15  and  C_16 
ROOT
HETATM    1  C   UNL     1      24.395  48.001  49.857  1.00  0.00     0.309 C 
HETATM    2  N   UNL     1      24.237  47.049  50.834  1.00  0.00    -0.351 N 
HETATM    3  O   UNL     1      25.432  48.591  49.586  1.00  0.00    -0.262 OA
HETATM    4  H   UNL     1      23.290  46.710  50.994  1.00  0.00     0.162 HD
ENDROOT
BRANCH   1   5
HETATM    5  C   UNL     1      23.098  48.340  49.090  1.00  0.00     0.313 C 
HETATM    6  N   UNL     1      22.365  49.311  49.739  1.00  0.00    -0.319 N 
HETATM    7  H   UNL     1      22.795  49.655  50.595  1.00  0.00     0.169 HD
HETATM    8  O   UNL     1      22.850  47.739  48.055  1.00  0.00    -0.262 OA
BRANCH   6   9
HETATM    9  C   UNL     1      21.112  49.837  49.379  1.00  0.00     0.037 A 
HETATM   10  C   UNL     1      19.919  49.110  49.438  1.00  0.00     0.069 A 
HETATM   11  C   UNL     1      18.700  49.704  49.082  1.00  0.00     0.103 A 
HETATM   12  C   UNL     1      18.681  51.050  48.673  1.00  0.00     0.101 A 
HETATM   13  C   UNL     1      19.874  51.769  48.590  1.00  0.00     0.042 A 
HETATM   14  C   UNL     1      21.082  51.165  48.945  1.00  0.00     0.032 A 
BRANCH  11  15
HETATM   15  O   UNL     1      17.484  49.070  49.117  1.00  0.00    -0.353 OA
HETATM   16  C   UNL     1      17.411  47.758  48.575  1.00  0.00     0.210 C 
ENDBRANCH  11  15
BRANCH  12  17
HETATM   17  O   UNL     1      17.464  51.580  48.319  1.00  0.00    -0.353 OA
HETATM   18  C   UNL     1      16.918  52.513  49.245  1.00  0.00     0.210 C 
ENDBRANCH  12  17
ENDBRANCH   6   9
ENDBRANCH   1   5
BRANCH   2  19
HETATM   19  C   UNL     1      25.291  46.656  51.755  1.00  0.00     0.144 C 
BRANCH  19  20
HETATM   20  C   UNL     1      25.516  45.111  51.859  1.00  0.00     0.033 C 
HETATM   21  C   UNL     1      24.380  44.384  51.108  1.00  0.00     0.049 C 
HETATM   22  C   UNL     1      24.517  44.537  49.595  1.00  0.00     0.169 C 
HETATM   23  O   UNL     1      25.799  44.095  49.157  1.00  0.00    -0.391 OA
HETATM   24  C   UNL     1      26.868  44.846  49.732  1.00  0.00     0.169 C 
HETATM   25  C   UNL     1      26.869  44.693  51.251  1.00  0.00     0.049 C 
BRANCH  20  26
HETATM   26  S   UNL     1      25.435  44.733  53.700  1.00  0.00    -0.118 SA
BRANCH  26  27
HETATM   27  C   UNL     1      27.112  44.308  54.123  1.00  0.00     0.001 A 
HETATM   28  C   UNL     1      27.952  45.255  54.715  1.00  0.00     0.018 A 
HETATM   29  C   UNL     1      29.255  44.911  55.083  1.00  0.00     0.001 A 
HETATM   30  C   UNL     1      29.718  43.613  54.878  1.00  0.00     0.000 A 
HETATM   31  C   UNL     1      28.876  42.655  54.316  1.00  0.00     0.001 A 
HETATM   32  C   UNL     1      27.574  42.999  53.949  1.00  0.00     0.018 A 
ENDBRANCH  26  27
ENDBRANCH  20  26
ENDBRANCH  19  20
ENDBRANCH   2  19
TORSDOF 8
ENDMDL
MODEL 2
REMARK VINA RESULT:      -8.4      2.911      9.793
REMARK  8 active torsions:
REMARK  status: ('A' for Active; 'I' for Inactive)
REMARK    1  A    between atoms: O_2  and  C_3 
REMARK    2  A    between atoms: C_4  and  O_5 
REMARK    3  A    between atoms: C_8  and  N_9 
REMARK       I    between atoms: N_9  and  C_10 
REMARK    4  A    between atoms: C_10  and  C_11 
REMARK       I    between atoms: C_11  and  N_12 
REMARK    5  A    between atoms: N_12  and  C_13 
REMARK    6  A    between atoms: C_13  and  C_14 
REMARK    7  A    between atoms: C_14  and  S_15 
REMARK    8  A    between atoms: S_15  and  C_16 
ROOT
HETATM    1  C   UNL     1      23.657  46.415  49.549  1.00  0.00     0.309 C 
HETATM    2  N   UNL     1      23.126  47.414  48.771  1.00  0.00    -0.351 N 
HETATM    3  O   UNL     1      23.327  45.236  49.534  1.00  0.00    -0.262 OA
HETATM    4  H   UNL     1      23.449  48.362  48.961  1.00  0.00     0.162 HD
ENDROOT
BRANCH   1   5
HETATM    5  C   UNL     1      24.741  46.894  50.540  1.00  0.00     0.313 C 
HETATM    6  N   UNL     1      25.002  45.943  51.503  1.00  0.00    -0.319 N 
HETATM    7  H   UNL     1      24.460  45.086  51.401  1.00  0.00     0.169 HD
HETATM    8  O   UNL     1      25.221  48.008  50.396  1.00  0.00    -0.262 OA
BRANCH   6   9
HETATM    9  C   UNL     1      25.879  46.035  52.598  1.00  0.00     0.037 A 
HETATM   10  C   UNL     1      26.084  47.208  53.331  1.00  0.00     0.069 A 
HETATM   11  C   UNL     1      26.960  47.224  54.426  1.00  0.00     0.103 A 
HETATM   12  C   UNL     1      27.629  46.043  54.793  1.00  0.00     0.101 A 
HETATM   13  C   UNL     1      27.444  44.878  54.046  1.00  0.00     0.042 A 
HETATM   14  C   UNL     1      26.570  44.875  52.958  1.00  0.00     0.032 A 
BRANCH  11  15
HETATM   15  O   UNL     1      27.216  48.325  55.203  1.00  0.00    -0.353 OA
HETATM   16  C   UNL     1      26.199  48.749  56.100  1.00  0.00     0.210 C 
ENDBRANCH  11  15
BRANCH  12  17
HETATM   17  O   UNL     1      28.490  46.115  55.861  1.00  0.00    -0.353 OA
HETATM   18  C   UNL     1      29.625  45.260  55.782  1.00  0.00     0.210 C 
ENDBRANCH  12  17
ENDBRANCH   6   9
ENDBRANCH   1   5
BRANCH   2  19
HETATM   19  C   UNL     1      22.017  47.219  47.853  1.00  0.00     0.144 C 
BRANCH  19  20
HETATM   20  C   UNL     1      20.690  47.929  48.280  1.00  0.00     0.033 C 
HETATM   21  C   UNL     1      19.967  48.446  47.018  1.00  0.00     0.049 C 
HETATM   22  C   UNL     1      19.366  47.302  46.205  1.00  0.00     0.169 C 
HETATM   23  O   UNL     1      18.503  46.506  47.013  1.00  0.00    -0.391 OA
HETATM   24  C   UNL     1      19.180  45.901  48.113  1.00  0.00     0.169 C 
HETATM   25  C   UNL     1      19.752  46.970  49.040  1.00  0.00     0.049 C 
BRANCH  20  26
HETATM   26  S   UNL     1      21.237  49.368  49.362  1.00  0.00    -0.118 SA
BRANCH  26  27
HETATM   27  C   UNL     1      19.898  50.535  49.229  1.00  0.00     0.001 A 
HETATM   28  C   UNL     1      18.719  50.342  49.954  1.00  0.00     0.018 A 
HETATM   29  C   UNL     1      17.684  51.278  49.880  1.00  0.00     0.001 A 
HETATM   30  C   UNL     1      17.831  52.421  49.097  1.00  0.00     0.000 A 
HETATM   31  C   UNL     1      19.017  52.636  48.396  1.00  0.00     0.001 A 
HETATM   32  C   UNL     1      20.051  51.700  48.470  1.00  0.00     0.018 A 
ENDBRANCH  26  27
ENDBRANCH  20  26
ENDBRANCH  19  20
ENDBRANCH   2  19
TORSDOF 8
ENDMDL
MODEL 3
REMARK VINA RESULT:      -8.4      2.736      9.960
REMARK  8 active torsions:
REMARK  status: ('A' for Active; 'I' for Inactive)
REMARK    1  A    between atoms: O_2  and  C_3 
REMARK    2  A    between atoms: C_4  and  O_5 
REMARK    3  A    between atoms: C_8  and  N_9 
REMARK       I    between atoms: N_9  and  C_10 
REMARK    4  A    between atoms: C_10  and  C_11 
REMARK       I    between atoms: C_11  and  N_12 
REMARK    5  A    between atoms: N_12  and  C_13 
REMARK    6  A    between atoms: C_13  and  C_14 
REMARK    7  A    between atoms: C_14  and  S_15 
REMARK    8  A    between atoms: S_15  and  C_16 
ROOT
HETATM    1  C   UNL     1      24.017  47.478  49.740  1.00  0.00     0.309 C 
HETATM    2  N   UNL     1      22.855  47.031  49.160  1.00  0.00    -0.351 N 
HETATM    3  O   UNL     1      24.591  48.529  49.486  1.00  0.00    -0.262 OA
HETATM    4  H   UNL     1      22.546  46.095  49.419  1.00  0.00     0.162 HD
ENDROOT
BRANCH   1   5
HETATM    5  C   UNL     1      24.624  46.504  50.774  1.00  0.00     0.313 C 
HETATM    6  N   UNL     1      25.416  47.165  51.688  1.00  0.00    -0.319 N 
HETATM    7  H   UNL     1      25.462  48.173  51.548  1.00  0.00     0.169 HD
HETATM    8  O   UNL     1      24.375  45.312  50.678  1.00  0.00    -0.262 OA
BRANCH   6   9
HETATM    9  C   UNL     1      26.174  46.615  52.737  1.00  0.00     0.037 A 
HETATM   10  C   UNL     1      26.761  45.347  52.687  1.00  0.00     0.069 A 
HETATM   11  C   UNL     1      27.522  44.869  53.764  1.00  0.00     0.103 A 
HETATM   12  C   UNL     1      27.702  45.680  54.898  1.00  0.00     0.101 A 
HETATM   13  C   UNL     1      27.095  46.936  54.959  1.00  0.00     0.042 A 
HETATM   14  C   UNL     1      26.339  47.401  53.881  1.00  0.00     0.032 A 
BRANCH  11  15
HETATM   15  O   UNL     1      28.138  43.643  53.799  1.00  0.00    -0.353 OA
HETATM   16  C   UNL     1      29.307  43.471  53.009  1.00  0.00     0.210 C 
ENDBRANCH  11  15
BRANCH  12  17
HETATM   17  O   UNL     1      28.440  45.158  55.932  1.00  0.00    -0.353 OA
HETATM   18  C   UNL     1      29.684  45.807  56.175  1.00  0.00     0.210 C 
ENDBRANCH  12  17
ENDBRANCH   6   9
ENDBRANCH   1   5
BRANCH   2  19
HETATM   19  C   UNL     1      22.172  47.725  48.083  1.00  0.00     0.144 C 
BRANCH  19  20
HETATM   20  C   UNL     1      20.788  48.337  48.483  1.00  0.00     0.033 C 
HETATM   21  C   UNL     1      20.047  48.785  47.205  1.00  0.00     0.049 C 
HETATM   22  C   UNL     1      19.547  47.591  46.396  1.00  0.00     0.169 C 
HETATM   23  O   UNL     1      18.735  46.740  47.199  1.00  0.00    -0.391 OA
HETATM   24  C   UNL     1      19.438  46.199  48.316  1.00  0.00     0.169 C 
HETATM   25  C   UNL     1      19.914  47.317  49.240  1.00  0.00     0.049 C 
BRANCH  20  26
HETATM   26  S   UNL     1      21.207  49.824  49.556  1.00  0.00    -0.118 SA
BRANCH  26  27
HETATM   27  C   UNL     1      19.792  50.890  49.382  1.00  0.00     0.001 A 
HETATM   28  C   UNL     1      19.818  51.955  48.477  1.00  0.00     0.018 A 
HETATM   29  C   UNL     1      18.694  52.768  48.311  1.00  0.00     0.001 A 
HETATM   30  C   UNL     1      17.533  52.508  49.034  1.00  0.00     0.000 A 
HETATM   31  C   UNL     1      17.489  51.429  49.915  1.00  0.00     0.001 A 
HETATM   32  C   UNL     1      18.612  50.617  50.081  1.00  0.00     0.018 A 
ENDBRANCH  26  27
ENDBRANCH  20  26
ENDBRANCH  19  20
ENDBRANCH   2  19
TORSDOF 8
ENDMDL
MODEL 4
REMARK VINA RESULT:      -8.3      2.809      9.592
REMARK  8 active torsions:
REMARK  status: ('A' for Active; 'I' for Inactive)
REMARK    1  A    between atoms: O_2  and  C_3 
REMARK    2  A    between atoms: C_4  and  O_5 
REMARK    3  A    between atoms: C_8  and  N_9 
REMARK       I    between atoms: N_9  and  C_10 
REMARK    4  A    between atoms: C_10  and  C_11 
REMARK       I    between atoms: C_11  and  N_12 
REMARK    5  A    between atoms: N_12  and  C_13 
REMARK    6  A    between atoms: C_13  and  C_14 
REMARK    7  A    between atoms: C_14  and  S_15 
REMARK    8  A    between atoms: S_15  and  C_16 
ROOT
HETATM    1  C   UNL     1      22.413  44.461  48.999  1.00  0.00     0.309 C 
HETATM    2  N   UNL     1      21.589  45.556  49.099  1.00  0.00    -0.351 N 
HETATM    3  O   UNL     1      22.123  43.385  48.492  1.00  0.00    -0.262 OA
HETATM    4  H   UNL     1      21.948  46.351  49.623  1.00  0.00     0.162 HD
ENDROOT
BRANCH   1   5
HETATM    5  C   UNL     1      23.806  44.658  49.637  1.00  0.00     0.313 C 
HETATM    6  N   UNL     1      23.716  44.865  50.996  1.00  0.00    -0.319 N 
HETATM    7  H   UNL     1      22.764  44.840  51.359  1.00  0.00     0.169 HD
HETATM    8  O   UNL     1      24.793  44.631  48.917  1.00  0.00    -0.262 OA
BRANCH   6   9
HETATM    9  C   UNL     1      24.755  45.134  51.904  1.00  0.00     0.037 A 
HETATM   10  C   UNL     1      25.325  44.168  52.739  1.00  0.00     0.069 A 
HETATM   11  C   UNL     1      26.374  44.502  53.607  1.00  0.00     0.103 A 
HETATM   12  C   UNL     1      26.862  45.821  53.627  1.00  0.00     0.101 A 
HETATM   13  C   UNL     1      26.277  46.792  52.811  1.00  0.00     0.042 A 
HETATM   14  C   UNL     1      25.232  46.447  51.952  1.00  0.00     0.032 A 
BRANCH  11  15
HETATM   15  O   UNL     1      26.996  43.620  54.454  1.00  0.00    -0.353 OA
HETATM   16  C   UNL     1      27.693  42.528  53.872  1.00  0.00     0.210 C 
ENDBRANCH  11  15
BRANCH  12  17
HETATM   17  O   UNL     1      27.879  46.101  54.507  1.00  0.00    -0.353 OA
HETATM   18  C   UNL     1      27.679  47.257  55.313  1.00  0.00     0.210 C 
ENDBRANCH  12  17
ENDBRANCH   6   9
ENDBRANCH   1   5
BRANCH   2  19
HETATM   19  C   UNL     1      20.200  45.561  48.673  1.00  0.00     0.144 C 
BRANCH  19  20
HETATM   20  C   UNL     1      19.685  46.948  48.164  1.00  0.00     0.033 C 
HETATM   21  C   UNL     1      19.532  46.896  46.628  1.00  0.00     0.049 C 
HETATM   22  C   UNL     1      18.341  46.038  46.210  1.00  0.00     0.169 C 
HETATM   23  O   UNL     1      17.145  46.492  46.838  1.00  0.00    -0.391 OA
HETATM   24  C   UNL     1      17.209  46.419  48.262  1.00  0.00     0.169 C 
HETATM   25  C   UNL     1      18.326  47.314  48.792  1.00  0.00     0.049 C 
BRANCH  20  26
HETATM   26  S   UNL     1      21.027  48.173  48.651  1.00  0.00    -0.118 SA
BRANCH  26  27
HETATM   27  C   UNL     1      20.177  49.737  48.712  1.00  0.00     0.001 A 
HETATM   28  C   UNL     1      19.937  50.362  49.938  1.00  0.00     0.018 A 
HETATM   29  C   UNL     1      19.305  51.607  49.984  1.00  0.00     0.001 A 
HETATM   30  C   UNL     1      18.929  52.242  48.802  1.00  0.00     0.000 A 
HETATM   31  C   UNL     1      19.194  51.639  47.574  1.00  0.00     0.001 A 
HETATM   32  C   UNL     1      19.825  50.395  47.529  1.00  0.00     0.018 A 
ENDBRANCH  26  27
ENDBRANCH  20  26
ENDBRANCH  19  20
ENDBRANCH   2  19
TORSDOF 8
ENDMDL
MODEL 5
REMARK VINA RESULT:      -8.3      1.009      2.041
REMARK  8 active torsions:
REMARK  status: ('A' for Active; 'I' for Inactive)
REMARK    1  A    between atoms: O_2  and  C_3 
REMARK    2  A    between atoms: C_4  and  O_5 
REMARK    3  A    between atoms: C_8  and  N_9 
REMARK       I    between atoms: N_9  and  C_10 
REMARK    4  A    between atoms: C_10  and  C_11 
REMARK       I    between atoms: C_11  and  N_12 
REMARK    5  A    between atoms: N_12  and  C_13 
REMARK    6  A    between atoms: C_13  and  C_14 
REMARK    7  A    between atoms: C_14  and  S_15 
REMARK    8  A    between atoms: S_15  and  C_16 
ROOT
HETATM    1  C   UNL     1      24.518  48.201  49.608  1.00  0.00     0.309 C 
HETATM    2  N   UNL     1      24.259  47.354  50.658  1.00  0.00    -0.351 N 
HETATM    3  O   UNL     1      25.616  48.639  49.289  1.00  0.00    -0.262 OA
HETATM    4  H   UNL     1      23.279  47.145  50.845  1.00  0.00     0.162 HD
ENDROOT
BRANCH   1   5
HETATM    5  C   UNL     1      23.263  48.632  48.818  1.00  0.00     0.313 C 
HETATM    6  N   UNL     1      22.114  48.461  49.561  1.00  0.00    -0.319 N 
HETATM    7  H   UNL     1      22.275  48.100  50.499  1.00  0.00     0.169 HD
HETATM    8  O   UNL     1      23.397  49.040  47.674  1.00  0.00    -0.262 OA
BRANCH   6   9
HETATM    9  C   UNL     1      20.784  48.690  49.166  1.00  0.00     0.037 A 
HETATM   10  C   UNL     1      20.198  49.958  49.114  1.00  0.00     0.069 A 
HETATM   11  C   UNL     1      18.870  50.115  48.691  1.00  0.00     0.103 A 
HETATM   12  C   UNL     1      18.128  48.984  48.308  1.00  0.00     0.101 A 
HETATM   13  C   UNL     1      18.704  47.715  48.384  1.00  0.00     0.042 A 
HETATM   14  C   UNL     1      20.027  47.571  48.808  1.00  0.00     0.032 A 
BRANCH  11  15
HETATM   15  O   UNL     1      18.218  51.319  48.602  1.00  0.00    -0.353 OA
HETATM   16  C   UNL     1      18.320  52.207  49.707  1.00  0.00     0.210 C 
ENDBRANCH  11  15
BRANCH  12  17
HETATM   17  O   UNL     1      16.827  49.190  47.918  1.00  0.00    -0.353 OA
HETATM   18  C   UNL     1      15.979  48.050  48.016  1.00  0.00     0.210 C 
ENDBRANCH  12  17
ENDBRANCH   6   9
ENDBRANCH   1   5
BRANCH   2  19
HETATM   19  C   UNL     1      25.267  46.911  51.605  1.00  0.00     0.144 C 
BRANCH  19  20
HETATM   20  C   UNL     1      25.377  45.358  51.755  1.00  0.00     0.033 C 
HETATM   21  C   UNL     1      24.234  44.693  50.958  1.00  0.00     0.049 C 
HETATM   22  C   UNL     1      24.461  44.797  49.453  1.00  0.00     0.169 C 
HETATM   23  O   UNL     1      25.730  44.257  49.094  1.00  0.00    -0.391 OA
HETATM   24  C   UNL     1      26.817  44.946  49.710  1.00  0.00     0.169 C 
HETATM   25  C   UNL     1      26.728  44.831  51.230  1.00  0.00     0.049 C 
BRANCH  20  26
HETATM   26  S   UNL     1      25.174  45.032  53.596  1.00  0.00    -0.118 SA
BRANCH  26  27
HETATM   27  C   UNL     1      26.759  45.460  54.284  1.00  0.00     0.001 A 
HETATM   28  C   UNL     1      27.047  46.785  54.623  1.00  0.00     0.018 A 
HETATM   29  C   UNL     1      28.276  47.116  55.199  1.00  0.00     0.001 A 
HETATM   30  C   UNL     1      29.216  46.121  55.457  1.00  0.00     0.000 A 
HETATM   31  C   UNL     1      28.924  44.792  55.150  1.00  0.00     0.001 A 
HETATM   32  C   UNL     1      27.695  44.462  54.574  1.00  0.00     0.018 A 
ENDBRANCH  26  27
ENDBRANCH  20  26
ENDBRANCH  19  20
ENDBRANCH   2  19
TORSDOF 8
ENDMDL
MODEL 6
REMARK VINA RESULT:      -8.2      1.504      2.207
REMARK  8 active torsions:
REMARK  status: ('A' for Active; 'I' for Inactive)
REMARK    1  A    between atoms: O_2  and  C_3 
REMARK    2  A    between atoms: C_4  and  O_5 
REMARK    3  A    between atoms: C_8  and  N_9 
REMARK       I    between atoms: N_9  and  C_10 
REMARK    4  A    between atoms: C_10  and  C_11 
REMARK       I    between atoms: C_11  and  N_12 
REMARK    5  A    between atoms: N_12  and  C_13 
REMARK    6  A    between atoms: C_13  and  C_14 
REMARK    7  A    between atoms: C_14  and  S_15 
REMARK    8  A    between atoms: S_15  and  C_16 
ROOT
HETATM    1  C   UNL     1      24.144  47.732  49.702  1.00  0.00     0.309 C 
HETATM    2  N   UNL     1      23.679  46.460  49.931  1.00  0.00    -0.351 N 
HETATM    3  O   UNL     1      25.222  48.182  50.067  1.00  0.00    -0.262 OA
HETATM    4  H   UNL     1      22.725  46.262  49.635  1.00  0.00     0.162 HD
ENDROOT
BRANCH   1   5
HETATM    5  C   UNL     1      23.154  48.640  48.941  1.00  0.00     0.313 C 
HETATM    6  N   UNL     1      21.991  48.832  49.656  1.00  0.00    -0.319 N 
HETATM    7  H   UNL     1      21.977  48.367  50.562  1.00  0.00     0.169 HD
HETATM    8  O   UNL     1      23.467  49.060  47.837  1.00  0.00    -0.262 OA
BRANCH   6   9
HETATM    9  C   UNL     1      20.844  49.548  49.270  1.00  0.00     0.037 A 
HETATM   10  C   UNL     1      19.645  48.941  48.885  1.00  0.00     0.069 A 
HETATM   11  C   UNL     1      18.532  49.717  48.531  1.00  0.00     0.103 A 
HETATM   12  C   UNL     1      18.624  51.119  48.576  1.00  0.00     0.101 A 
HETATM   13  C   UNL     1      19.828  51.726  48.937  1.00  0.00     0.042 A 
HETATM   14  C   UNL     1      20.930  50.942  49.286  1.00  0.00     0.032 A 
BRANCH  11  15
HETATM   15  O   UNL     1      17.317  49.207  48.147  1.00  0.00    -0.353 OA
HETATM   16  C   UNL     1      16.933  47.948  48.681  1.00  0.00     0.210 C 
ENDBRANCH  11  15
BRANCH  12  17
HETATM   17  O   UNL     1      17.512  51.834  48.203  1.00  0.00    -0.353 OA
HETATM   18  C   UNL     1      16.862  52.536  49.258  1.00  0.00     0.210 C 
ENDBRANCH  12  17
ENDBRANCH   6   9
ENDBRANCH   1   5
BRANCH   2  19
HETATM   19  C   UNL     1      24.390  45.472  50.724  1.00  0.00     0.144 C 
BRANCH  19  20
HETATM   20  C   UNL     1      24.913  44.243  49.910  1.00  0.00     0.033 C 
HETATM   21  C   UNL     1      24.460  42.944  50.610  1.00  0.00     0.049 C 
HETATM   22  C   UNL     1      22.961  42.709  50.446  1.00  0.00     0.169 C 
HETATM   23  O   UNL     1      22.596  42.714  49.069  1.00  0.00    -0.391 OA
HETATM   24  C   UNL     1      22.877  43.957  48.428  1.00  0.00     0.169 C 
HETATM   25  C   UNL     1      24.375  44.249  48.465  1.00  0.00     0.049 C 
BRANCH  20  26
HETATM   26  S   UNL     1      26.788  44.395  49.952  1.00  0.00    -0.118 SA
BRANCH  26  27
HETATM   27  C   UNL     1      27.257  43.487  51.411  1.00  0.00     0.001 A 
HETATM   28  C   UNL     1      27.713  42.170  51.305  1.00  0.00     0.018 A 
HETATM   29  C   UNL     1      28.119  41.470  52.445  1.00  0.00     0.001 A 
HETATM   30  C   UNL     1      28.090  42.091  53.691  1.00  0.00     0.000 A 
HETATM   31  C   UNL     1      27.666  43.415  53.800  1.00  0.00     0.001 A 
HETATM   32  C   UNL     1      27.260  44.113  52.661  1.00  0.00     0.018 A 
ENDBRANCH  26  27
ENDBRANCH  20  26
ENDBRANCH  19  20
ENDBRANCH   2  19
TORSDOF 8
ENDMDL
MODEL 7
REMARK VINA RESULT:      -8.2      1.471      2.162
REMARK  8 active torsions:
REMARK  status: ('A' for Active; 'I' for Inactive)
REMARK    1  A    between atoms: O_2  and  C_3 
REMARK    2  A    between atoms: C_4  and  O_5 
REMARK    3  A    between atoms: C_8  and  N_9 
REMARK       I    between atoms: N_9  and  C_10 
REMARK    4  A    between atoms: C_10  and  C_11 
REMARK       I    between atoms: C_11  and  N_12 
REMARK    5  A    between atoms: N_12  and  C_13 
REMARK    6  A    between atoms: C_13  and  C_14 
REMARK    7  A    between atoms: C_14  and  S_15 
REMARK    8  A    between atoms: S_15  and  C_16 
ROOT
HETATM    1  C   UNL     1      22.764  45.477  48.788  1.00  0.00     0.309 C 
HETATM    2  N   UNL     1      23.386  45.751  49.982  1.00  0.00    -0.351 N 
HETATM    3  O   UNL     1      22.816  44.419  48.175  1.00  0.00    -0.262 OA
HETATM    4  H   UNL     1      23.315  46.708  50.325  1.00  0.00     0.162 HD
ENDROOT
BRANCH   1   5
HETATM    5  C   UNL     1      21.972  46.665  48.200  1.00  0.00     0.313 C 
HETATM    6  N   UNL     1      21.197  47.281  49.159  1.00  0.00    -0.319 N 
HETATM    7  H   UNL     1      21.280  46.872  50.088  1.00  0.00     0.169 HD
HETATM    8  O   UNL     1      22.087  46.920  47.010  1.00  0.00    -0.262 OA
BRANCH   6   9
HETATM    9  C   UNL     1      20.304  48.355  48.994  1.00  0.00     0.037 A 
HETATM   10  C   UNL     1      18.978  48.204  48.580  1.00  0.00     0.069 A 
HETATM   11  C   UNL     1      18.136  49.319  48.456  1.00  0.00     0.103 A 
HETATM   12  C   UNL     1      18.632  50.598  48.762  1.00  0.00     0.101 A 
HETATM   13  C   UNL     1      19.964  50.752  49.152  1.00  0.00     0.042 A 
HETATM   14  C   UNL     1      20.793  49.635  49.271  1.00  0.00     0.032 A 
BRANCH  11  15
HETATM   15  O   UNL     1      16.822  49.263  48.064  1.00  0.00    -0.353 OA
HETATM   16  C   UNL     1      16.141  48.026  48.216  1.00  0.00     0.210 C 
ENDBRANCH  11  15
BRANCH  12  17
HETATM   17  O   UNL     1      17.773  51.659  48.608  1.00  0.00    -0.353 OA
HETATM   18  C   UNL     1      17.687  52.535  49.726  1.00  0.00     0.210 C 
ENDBRANCH  12  17
ENDBRANCH   6   9
ENDBRANCH   1   5
BRANCH   2  19
HETATM   19  C   UNL     1      24.276  44.824  50.659  1.00  0.00     0.144 C 
BRANCH  19  20
HETATM   20  C   UNL     1      25.455  45.504  51.431  1.00  0.00     0.033 C 
HETATM   21  C   UNL     1      26.789  44.888  50.958  1.00  0.00     0.049 C 
HETATM   22  C   UNL     1      27.147  45.338  49.544  1.00  0.00     0.169 C 
HETATM   23  O   UNL     1      27.168  46.760  49.455  1.00  0.00    -0.391 OA
HETATM   24  C   UNL     1      25.903  47.350  49.753  1.00  0.00     0.169 C 
HETATM   25  C   UNL     1      25.489  47.026  51.186  1.00  0.00     0.049 C 
BRANCH  20  26
HETATM   26  S   UNL     1      25.147  45.099  53.242  1.00  0.00    -0.118 SA
BRANCH  26  27
HETATM   27  C   UNL     1      26.665  45.566  54.048  1.00  0.00     0.001 A 
HETATM   28  C   UNL     1      26.902  46.900  54.389  1.00  0.00     0.018 A 
HETATM   29  C   UNL     1      28.075  47.261  55.057  1.00  0.00     0.001 A 
HETATM   30  C   UNL     1      29.008  46.286  55.403  1.00  0.00     0.000 A 
HETATM   31  C   UNL     1      28.765  44.948  55.094  1.00  0.00     0.001 A 
HETATM   32  C   UNL     1      27.592  44.589  54.426  1.00  0.00     0.018 A 
ENDBRANCH  26  27
ENDBRANCH  20  26
ENDBRANCH  19  20
ENDBRANCH   2  19
TORSDOF 8
ENDMDL
MODEL 8
REMARK VINA RESULT:      -8.0      1.726      2.310
REMARK  8 active torsions:
REMARK  status: ('A' for Active; 'I' for Inactive)
REMARK    1  A    between atoms: O_2  and  C_3 
REMARK    2  A    between atoms: C_4  and  O_5 
REMARK    3  A    between atoms: C_8  and  N_9 
REMARK       I    between atoms: N_9  and  C_10 
REMARK    4  A    between atoms: C_10  and  C_11 
REMARK       I    between atoms: C_11  and  N_12 
REMARK    5  A    between atoms: N_12  and  C_13 
REMARK    6  A    between atoms: C_13  and  C_14 
REMARK    7  A    between atoms: C_14  and  S_15 
REMARK    8  A    between atoms: S_15  and  C_16 
ROOT
HETATM    1  C   UNL     1      26.410  46.963  49.752  1.00  0.00     0.309 C 
HETATM    2  N   UNL     1      25.992  46.152  50.779  1.00  0.00    -0.351 N 
HETATM    3  O   UNL     1      27.440  46.832  49.105  1.00  0.00    -0.262 OA
HETATM    4  H   UNL     1      25.151  46.441  51.276  1.00  0.00     0.162 HD
ENDROOT
BRANCH   1   5
HETATM    5  C   UNL     1      25.468  48.152  49.462  1.00  0.00     0.313 C 
HETATM    6  N   UNL     1      24.192  47.725  49.162  1.00  0.00    -0.319 N 
HETATM    7  H   UNL     1      24.072  46.715  49.196  1.00  0.00     0.169 HD
HETATM    8  O   UNL     1      25.920  49.287  49.503  1.00  0.00    -0.262 OA
BRANCH   6   9
HETATM    9  C   UNL     1      23.081  48.504  48.793  1.00  0.00     0.037 A 
HETATM   10  C   UNL     1      21.762  48.042  48.832  1.00  0.00     0.069 A 
HETATM   11  C   UNL     1      20.699  48.881  48.468  1.00  0.00     0.103 A 
HETATM   12  C   UNL     1      20.966  50.203  48.070  1.00  0.00     0.101 A 
HETATM   13  C   UNL     1      22.285  50.657  48.006  1.00  0.00     0.042 A 
HETATM   14  C   UNL     1      23.335  49.812  48.370  1.00  0.00     0.032 A 
BRANCH  11  15
HETATM   15  O   UNL     1      19.377  48.514  48.483  1.00  0.00    -0.353 OA
HETATM   16  C   UNL     1      19.068  47.178  48.855  1.00  0.00     0.210 C 
ENDBRANCH  11  15
BRANCH  12  17
HETATM   17  O   UNL     1      19.892  50.978  47.706  1.00  0.00    -0.353 OA
HETATM   18  C   UNL     1      19.662  52.116  48.530  1.00  0.00     0.210 C 
ENDBRANCH  12  17
ENDBRANCH   6   9
ENDBRANCH   1   5
BRANCH   2  19
HETATM   19  C   UNL     1      26.772  45.044  51.301  1.00  0.00     0.144 C 
BRANCH  19  20
HETATM   20  C   UNL     1      25.919  43.866  51.877  1.00  0.00     0.033 C 
HETATM   21  C   UNL     1      24.694  43.637  50.965  1.00  0.00     0.049 C 
HETATM   22  C   UNL     1      25.093  43.005  49.634  1.00  0.00     0.169 C 
HETATM   23  O   UNL     1      25.819  41.797  49.846  1.00  0.00    -0.391 OA
HETATM   24  C   UNL     1      27.032  42.002  50.570  1.00  0.00     0.169 C 
HETATM   25  C   UNL     1      26.735  42.561  51.959  1.00  0.00     0.049 C 
BRANCH  20  26
HETATM   26  S   UNL     1      25.372  44.450  53.580  1.00  0.00    -0.118 SA
BRANCH  26  27
HETATM   27  C   UNL     1      26.829  45.221  54.255  1.00  0.00     0.001 A 
HETATM   28  C   UNL     1      26.888  46.609  54.403  1.00  0.00     0.018 A 
HETATM   29  C   UNL     1      28.014  47.211  54.970  1.00  0.00     0.001 A 
HETATM   30  C   UNL     1      29.078  46.427  55.408  1.00  0.00     0.000 A 
HETATM   31  C   UNL     1      29.014  45.039  55.292  1.00  0.00     0.001 A 
HETATM   32  C   UNL     1      27.887  44.438  54.726  1.00  0.00     0.018 A 
ENDBRANCH  26  27
ENDBRANCH  20  26
ENDBRANCH  19  20
ENDBRANCH   2  19
TORSDOF 8
ENDMDL
MODEL 9
REMARK VINA RESULT:      -8.0      2.105      3.171
REMARK  8 active torsions:
REMARK  status: ('A' for Active; 'I' for Inactive)
REMARK    1  A    between atoms: O_2  and  C_3 
REMARK    2  A    between atoms: C_4  and  O_5 
REMARK    3  A    between atoms: C_8  and  N_9 
REMARK       I    between atoms: N_9  and  C_10 
REMARK    4  A    between atoms: C_10  and  C_11 
REMARK       I    between atoms: C_11  and  N_12 
REMARK    5  A    between atoms: N_12  and  C_13 
REMARK    6  A    between atoms: C_13  and  C_14 
REMARK    7  A    between atoms: C_14  and  S_15 
REMARK    8  A    between atoms: S_15  and  C_16 
ROOT
HETATM    1  C   UNL     1      22.226  44.214  49.298  1.00  0.00     0.309 C 
HETATM    2  N   UNL     1      23.109  44.904  50.092  1.00  0.00    -0.351 N 
HETATM    3  O   UNL     1      22.347  43.055  48.924  1.00  0.00    -0.262 OA
HETATM    4  H   UNL     1      22.908  45.890  50.249  1.00  0.00     0.162 HD
ENDROOT
BRANCH   1   5
HETATM    5  C   UNL     1      21.007  45.044  48.839  1.00  0.00     0.313 C 
HETATM    6  N   UNL     1      21.327  46.377  48.694  1.00  0.00    -0.319 N 
HETATM    7  H   UNL     1      22.302  46.595  48.894  1.00  0.00     0.169 HD
HETATM    8  O   UNL     1      19.936  44.479  48.676  1.00  0.00    -0.262 OA
BRANCH   6   9
HETATM    9  C   UNL     1      20.476  47.441  48.347  1.00  0.00     0.037 A 
HETATM   10  C   UNL     1      20.008  48.389  49.262  1.00  0.00     0.069 A 
HETATM   11  C   UNL     1      19.177  49.438  48.843  1.00  0.00     0.103 A 
HETATM   12  C   UNL     1      18.822  49.538  47.486  1.00  0.00     0.101 A 
HETATM   13  C   UNL     1      19.268  48.577  46.577  1.00  0.00     0.042 A 
HETATM   14  C   UNL     1      20.095  47.537  47.007  1.00  0.00     0.032 A 
BRANCH  11  15
HETATM   15  O   UNL     1      18.678  50.414  49.667  1.00  0.00    -0.353 OA
HETATM   16  C   UNL     1      19.559  51.456  50.062  1.00  0.00     0.210 C 
ENDBRANCH  11  15
BRANCH  12  17
HETATM   17  O   UNL     1      17.991  50.573  47.129  1.00  0.00    -0.353 OA
HETATM   18  C   UNL     1      18.221  51.113  45.833  1.00  0.00     0.210 C 
ENDBRANCH  12  17
ENDBRANCH   6   9
ENDBRANCH   1   5
BRANCH   2  19
HETATM   19  C   UNL     1      24.378  44.362  50.546  1.00  0.00     0.144 C 
BRANCH  19  20
HETATM   20  C   UNL     1      25.257  45.369  51.360  1.00  0.00     0.033 C 
HETATM   21  C   UNL     1      26.740  45.166  50.979  1.00  0.00     0.049 C 
HETATM   22  C   UNL     1      27.036  45.684  49.574  1.00  0.00     0.169 C 
HETATM   23  O   UNL     1      26.645  47.048  49.445  1.00  0.00    -0.391 OA
HETATM   24  C   UNL     1      25.248  47.245  49.657  1.00  0.00     0.169 C 
HETATM   25  C   UNL     1      24.859  46.830  51.073  1.00  0.00     0.049 C 
BRANCH  20  26
HETATM   26  S   UNL     1      24.972  44.913  53.163  1.00  0.00    -0.118 SA
BRANCH  26  27
HETATM   27  C   UNL     1      26.406  45.557  53.999  1.00  0.00     0.001 A 
HETATM   28  C   UNL     1      27.438  44.700  54.392  1.00  0.00     0.018 A 
HETATM   29  C   UNL     1      28.581  45.211  55.013  1.00  0.00     0.001 A 
HETATM   30  C   UNL     1      28.707  46.581  55.225  1.00  0.00     0.000 A 
HETATM   31  C   UNL     1      27.696  47.446  54.808  1.00  0.00     0.001 A 
HETATM   32  C   UNL     1      26.553  46.935  54.187  1.00  0.00     0.018 A 
ENDBRANCH  26  27
ENDBRANCH  20  26
ENDBRANCH  19  20
ENDBRANCH   2  19
TORSDOF 8
ENDMDL
MODEL 10
REMARK VINA RESULT:      -8.0      2.888      9.105
REMARK  8 active torsions:
REMARK  status: ('A' for Active; 'I' for Inactive)
REMARK    1  A    between atoms: O_2  and  C_3 
REMARK    2  A    between atoms: C_4  and  O_5 
REMARK    3  A    between atoms: C_8  and  N_9 
REMARK       I    between atoms: N_9  and  C_10 
REMARK    4  A    between atoms: C_10  and  C_11 
REMARK       I    between atoms: C_11  and  N_12 
REMARK    5  A    between atoms: N_12  and  C_13 
REMARK    6  A    between atoms: C_13  and  C_14 
REMARK    7  A    between atoms: C_14  and  S_15 
REMARK    8  A    between atoms: S_15  and  C_16 
ROOT
HETATM    1  C   UNL     1      19.733  45.234  48.159  1.00  0.00     0.309 C 
HETATM    2  N   UNL     1      19.662  46.605  48.209  1.00  0.00    -0.351 N 
HETATM    3  O   UNL     1      18.785  44.461  48.205  1.00  0.00    -0.262 OA
HETATM    4  H   UNL     1      20.548  47.107  48.244  1.00  0.00     0.162 HD
ENDROOT
BRANCH   1   5
HETATM    5  C   UNL     1      21.172  44.678  48.073  1.00  0.00     0.313 C 
HETATM    6  N   UNL     1      21.860  44.872  49.251  1.00  0.00    -0.319 N 
HETATM    7  H   UNL     1      21.316  45.328  49.982  1.00  0.00     0.169 HD
HETATM    8  O   UNL     1      21.546  44.167  47.028  1.00  0.00    -0.262 OA
BRANCH   6   9
HETATM    9  C   UNL     1      23.200  44.552  49.536  1.00  0.00     0.037 A 
HETATM   10  C   UNL     1      24.277  45.394  49.243  1.00  0.00     0.069 A 
HETATM   11  C   UNL     1      25.587  45.021  49.573  1.00  0.00     0.103 A 
HETATM   12  C   UNL     1      25.815  43.790  50.214  1.00  0.00     0.101 A 
HETATM   13  C   UNL     1      24.742  42.938  50.484  1.00  0.00     0.042 A 
HETATM   14  C   UNL     1      23.442  43.321  50.150  1.00  0.00     0.032 A 
BRANCH  11  15
HETATM   15  O   UNL     1      26.700  45.785  49.330  1.00  0.00    -0.353 OA
HETATM   16  C   UNL     1      26.657  47.152  49.714  1.00  0.00     0.210 C 
ENDBRANCH  11  15
BRANCH  12  17
HETATM   17  O   UNL     1      27.118  43.463  50.501  1.00  0.00    -0.353 OA
HETATM   18  C   UNL     1      27.485  43.584  51.870  1.00  0.00     0.210 C 
ENDBRANCH  12  17
ENDBRANCH   6   9
ENDBRANCH   1   5
BRANCH   2  19
HETATM   19  C   UNL     1      18.426  47.342  48.405  1.00  0.00     0.144 C 
BRANCH  19  20
HETATM   20  C   UNL     1      18.588  48.897  48.372  1.00  0.00     0.033 C 
HETATM   21  C   UNL     1      19.306  49.302  47.066  1.00  0.00     0.049 C 
HETATM   22  C   UNL     1      18.398  49.137  45.850  1.00  0.00     0.169 C 
HETATM   23  O   UNL     1      17.183  49.861  46.024  1.00  0.00    -0.391 OA
HETATM   24  C   UNL     1      16.429  49.412  47.148  1.00  0.00     0.169 C 
HETATM   25  C   UNL     1      17.223  49.611  48.437  1.00  0.00     0.049 C 
BRANCH  20  26
HETATM   26  S   UNL     1      19.656  49.306  49.865  1.00  0.00    -0.118 SA
BRANCH  26  27
HETATM   27  C   UNL     1      21.259  49.643  49.165  1.00  0.00     0.001 A 
HETATM   28  C   UNL     1      21.627  50.951  48.843  1.00  0.00     0.018 A 
HETATM   29  C   UNL     1      22.899  51.221  48.330  1.00  0.00     0.001 A 
HETATM   30  C   UNL     1      23.814  50.186  48.156  1.00  0.00     0.000 A 
HETATM   31  C   UNL     1      23.465  48.882  48.505  1.00  0.00     0.001 A 
HETATM   32  C   UNL     1      22.194  48.613  49.017  1.00  0.00     0.018 A 
ENDBRANCH  26  27
ENDBRANCH  20  26
ENDBRANCH  19  20
ENDBRANCH   2  19
TORSDOF 8
ENDMDL
