MODEL 1
REMARK VINA RESULT:      -9.5      0.000      0.000
REMARK  4 active torsions:
REMARK  status: ('A' for Active; 'I' for Inactive)
REMARK    1  A    between atoms: O_2  and  C_3 
REMARK    2  A    between atoms: C_7  and  C_8 
REMARK       I    between atoms: C_8  and  N_9 
REMARK    3  A    between atoms: N_9  and  C_10 
REMARK    4  A    between atoms: C_12  and  C_13 
ROOT
HETATM    1  C   UNL     1      26.247  44.623  52.366  1.00  0.00     0.254 C 
HETATM    2  N   UNL     1      27.600  44.893  52.407  1.00  0.00    -0.323 N 
HETATM    3  O   UNL     1      25.655  43.784  53.035  1.00  0.00    -0.268 OA
HETATM    4  H   UNL     1      27.937  45.657  51.840  1.00  0.00     0.169 HD
ENDROOT
BRANCH   1   5
HETATM    5  C   UNL     1      25.458  45.518  51.457  1.00  0.00     0.035 C 
HETATM    6  C   UNL     1      24.496  45.081  50.632  1.00  0.00     0.029 C 
HETATM    7  C   UNL     1      23.846  46.063  49.770  1.00  0.00     0.001 A 
HETATM    8  C   UNL     1      24.049  47.431  49.987  1.00  0.00     0.112 A 
HETATM    9  C   UNL     1      23.001  45.646  48.736  1.00  0.00     0.014 A 
HETATM   10  C   UNL     1      23.386  48.386  49.195  1.00  0.00     0.102 A 
HETATM   11  O   UNL     1      24.846  47.894  51.002  1.00  0.00    -0.343 OA
HETATM   12  C   UNL     1      22.559  47.954  48.155  1.00  0.00     0.040 A 
HETATM   13  C   UNL     1      22.369  46.589  47.926  1.00  0.00     0.004 A 
HETATM   14  C   UNL     1      25.800  46.980  51.563  1.00  0.00     0.220 C 
BRANCH  10  15
HETATM   15  O   UNL     1      23.632  49.702  49.496  1.00  0.00    -0.353 OA
HETATM   16  C   UNL     1      22.512  50.576  49.529  1.00  0.00     0.210 C 
ENDBRANCH  10  15
ENDBRANCH   1   5
BRANCH   2  17
HETATM   17  C   UNL     1      28.583  44.253  53.194  1.00  0.00     0.035 A 
HETATM   18  C   UNL     1      28.984  44.690  54.461  1.00  0.00     0.042 A 
HETATM   19  C   UNL     1      29.994  44.025  55.180  1.00  0.00    -0.021 A 
HETATM   20  C   UNL     1      30.581  42.887  54.611  1.00  0.00     0.012 A 
HETATM   21  C   UNL     1      30.181  42.433  53.354  1.00  0.00     0.003 A 
HETATM   22  C   UNL     1      29.192  43.118  52.647  1.00  0.00     0.029 A 
BRANCH  19  23
HETATM   23  C   UNL     1      30.441  44.503  56.483  1.00  0.00     0.010 A 
HETATM   24  C   UNL     1      31.379  43.965  57.399  1.00  0.00     0.152 A 
HETATM   25  N   UNL     1      31.536  44.718  58.491  1.00  0.00    -0.187 NA
HETATM   26  N   UNL     1      30.698  45.745  58.284  1.00  0.00    -0.289 N 
HETATM   27  H   UNL     1      30.637  46.469  58.991  1.00  0.00     0.188 HD
HETATM   28  C   UNL     1      30.025  45.666  57.098  1.00  0.00     0.123 A 
ENDBRANCH  19  23
ENDBRANCH   2  17
TORSDOF 4
ENDMDL
MODEL 2
REMARK VINA RESULT:      -9.2      3.221      9.268
REMARK  4 active torsions:
REMARK  status: ('A' for Active; 'I' for Inactive)
REMARK    1  A    between atoms: O_2  and  C_3 
REMARK    2  A    between atoms: C_7  and  C_8 
REMARK       I    between atoms: C_8  and  N_9 
REMARK    3  A    between atoms: N_9  and  C_10 
REMARK    4  A    between atoms: C_12  and  C_13 
ROOT
HETATM    1  C   UNL     1      26.058  46.533  52.900  1.00  0.00     0.254 C 
HETATM    2  N   UNL     1      25.867  45.823  51.733  1.00  0.00    -0.323 N 
HETATM    3  O   UNL     1      25.375  47.470  53.298  1.00  0.00    -0.268 OA
HETATM    4  H   UNL     1      26.475  45.033  51.567  1.00  0.00     0.169 HD
ENDROOT
BRANCH   1   5
HETATM    5  C   UNL     1      27.172  46.026  53.767  1.00  0.00     0.035 C 
HETATM    6  C   UNL     1      27.889  44.927  53.494  1.00  0.00     0.029 C 
HETATM    7  C   UNL     1      28.910  44.528  54.457  1.00  0.00     0.001 A 
HETATM    8  C   UNL     1      29.286  45.401  55.484  1.00  0.00     0.112 A 
HETATM    9  C   UNL     1      29.534  43.281  54.348  1.00  0.00     0.014 A 
HETATM   10  C   UNL     1      30.306  45.047  56.385  1.00  0.00     0.102 A 
HETATM   11  O   UNL     1      28.725  46.644  55.620  1.00  0.00    -0.343 OA
HETATM   12  C   UNL     1      30.908  43.791  56.274  1.00  0.00     0.040 A 
HETATM   13  C   UNL     1      30.522  42.911  55.260  1.00  0.00     0.004 A 
HETATM   14  C   UNL     1      27.463  46.875  54.976  1.00  0.00     0.220 C 
BRANCH  10  15
HETATM   15  O   UNL     1      30.619  45.976  57.345  1.00  0.00    -0.353 OA
HETATM   16  C   UNL     1      30.253  45.669  58.683  1.00  0.00     0.210 C 
ENDBRANCH  10  15
ENDBRANCH   1   5
BRANCH   2  17
HETATM   17  C   UNL     1      24.879  46.033  50.746  1.00  0.00     0.035 A 
HETATM   18  C   UNL     1      24.650  47.258  50.110  1.00  0.00     0.042 A 
HETATM   19  C   UNL     1      23.626  47.408  49.157  1.00  0.00    -0.021 A 
HETATM   20  C   UNL     1      22.846  46.291  48.831  1.00  0.00     0.012 A 
HETATM   21  C   UNL     1      23.072  45.061  49.450  1.00  0.00     0.003 A 
HETATM   22  C   UNL     1      24.078  44.936  50.407  1.00  0.00     0.029 A 
BRANCH  19  23
HETATM   23  C   UNL     1      23.361  48.694  48.522  1.00  0.00     0.010 A 
HETATM   24  C   UNL     1      24.238  49.738  48.135  1.00  0.00     0.152 A 
HETATM   25  N   UNL     1      23.609  50.763  47.553  1.00  0.00    -0.187 NA
HETATM   26  N   UNL     1      22.322  50.384  47.566  1.00  0.00    -0.289 N 
HETATM   27  H   UNL     1      21.630  51.011  47.169  1.00  0.00     0.188 HD
HETATM   28  C   UNL     1      22.122  49.156  48.128  1.00  0.00     0.123 A 
ENDBRANCH  19  23
ENDBRANCH   2  17
TORSDOF 4
ENDMDL
MODEL 3
REMARK VINA RESULT:      -8.9      1.820      2.715
REMARK  4 active torsions:
REMARK  status: ('A' for Active; 'I' for Inactive)
REMARK    1  A    between atoms: O_2  and  C_3 
REMARK    2  A    between atoms: C_7  and  C_8 
REMARK       I    between atoms: C_8  and  N_9 
REMARK    3  A    between atoms: N_9  and  C_10 
REMARK    4  A    between atoms: C_12  and  C_13 
ROOT
HETATM    1  C   UNL     1      26.501  45.740  50.346  1.00  0.00     0.254 C 
HETATM    2  N   UNL     1      26.250  45.200  51.591  1.00  0.00    -0.323 N 
HETATM    3  O   UNL     1      27.468  45.496  49.633  1.00  0.00    -0.268 OA
HETATM    4  H   UNL     1      25.378  45.449  52.036  1.00  0.00     0.169 HD
ENDROOT
BRANCH   1   5
HETATM    5  C   UNL     1      25.425  46.645  49.827  1.00  0.00     0.035 C 
HETATM    6  C   UNL     1      25.652  47.881  49.357  1.00  0.00     0.029 C 
HETATM    7  C   UNL     1      24.498  48.665  48.931  1.00  0.00     0.001 A 
HETATM    8  C   UNL     1      23.247  48.053  48.785  1.00  0.00     0.112 A 
HETATM    9  C   UNL     1      24.637  50.027  48.644  1.00  0.00     0.014 A 
HETATM   10  C   UNL     1      22.142  48.789  48.325  1.00  0.00     0.102 A 
HETATM   11  O   UNL     1      23.062  46.716  49.028  1.00  0.00    -0.343 OA
HETATM   12  C   UNL     1      22.291  50.152  48.059  1.00  0.00     0.040 A 
HETATM   13  C   UNL     1      23.534  50.769  48.220  1.00  0.00     0.004 A 
HETATM   14  C   UNL     1      24.043  46.048  49.835  1.00  0.00     0.220 C 
BRANCH  10  15
HETATM   15  O   UNL     1      20.962  48.098  48.195  1.00  0.00    -0.353 OA
HETATM   16  C   UNL     1      19.954  48.356  49.162  1.00  0.00     0.210 C 
ENDBRANCH  10  15
ENDBRANCH   1   5
BRANCH   2  17
HETATM   17  C   UNL     1      27.051  44.288  52.314  1.00  0.00     0.035 A 
HETATM   18  C   UNL     1      27.910  44.649  53.357  1.00  0.00     0.042 A 
HETATM   19  C   UNL     1      28.705  43.693  54.015  1.00  0.00    -0.021 A 
HETATM   20  C   UNL     1      28.602  42.352  53.623  1.00  0.00     0.012 A 
HETATM   21  C   UNL     1      27.739  41.977  52.593  1.00  0.00     0.003 A 
HETATM   22  C   UNL     1      26.974  42.942  51.938  1.00  0.00     0.029 A 
BRANCH  19  23
HETATM   23  C   UNL     1      29.631  44.075  55.076  1.00  0.00     0.010 A 
HETATM   24  C   UNL     1      29.677  45.228  55.898  1.00  0.00     0.152 A 
HETATM   25  N   UNL     1      30.678  45.202  56.782  1.00  0.00    -0.187 NA
HETATM   26  N   UNL     1      31.283  44.030  56.531  1.00  0.00    -0.289 N 
HETATM   27  H   UNL     1      32.092  43.775  57.087  1.00  0.00     0.188 HD
HETATM   28  C   UNL     1      30.694  43.319  55.525  1.00  0.00     0.123 A 
ENDBRANCH  19  23
ENDBRANCH   2  17
TORSDOF 4
ENDMDL
MODEL 4
REMARK VINA RESULT:      -8.8      4.685      8.116
REMARK  4 active torsions:
REMARK  status: ('A' for Active; 'I' for Inactive)
REMARK    1  A    between atoms: O_2  and  C_3 
REMARK    2  A    between atoms: C_7  and  C_8 
REMARK       I    between atoms: C_8  and  N_9 
REMARK    3  A    between atoms: N_9  and  C_10 
REMARK    4  A    between atoms: C_12  and  C_13 
ROOT
HETATM    1  C   UNL     1      22.060  50.577  49.448  1.00  0.00     0.254 C 
HETATM    2  N   UNL     1      22.813  49.822  48.573  1.00  0.00    -0.323 N 
HETATM    3  O   UNL     1      22.434  51.026  50.526  1.00  0.00    -0.268 OA
HETATM    4  H   UNL     1      22.388  49.573  47.692  1.00  0.00     0.169 HD
ENDROOT
BRANCH   1   5
HETATM    5  C   UNL     1      20.684  50.917  48.958  1.00  0.00     0.035 C 
HETATM    6  C   UNL     1      19.792  51.623  49.668  1.00  0.00     0.029 C 
HETATM    7  C   UNL     1      18.474  51.834  49.080  1.00  0.00     0.001 A 
HETATM    8  C   UNL     1      18.248  51.528  47.732  1.00  0.00     0.112 A 
HETATM    9  C   UNL     1      17.433  52.363  49.851  1.00  0.00     0.014 A 
HETATM   10  C   UNL     1      16.996  51.777  47.144  1.00  0.00     0.102 A 
HETATM   11  O   UNL     1      19.240  51.033  46.926  1.00  0.00    -0.343 OA
HETATM   12  C   UNL     1      15.961  52.290  47.930  1.00  0.00     0.040 A 
HETATM   13  C   UNL     1      16.179  52.579  49.279  1.00  0.00     0.004 A 
HETATM   14  C   UNL     1      20.375  50.432  47.566  1.00  0.00     0.220 C 
BRANCH  10  15
HETATM   15  O   UNL     1      16.876  51.464  45.813  1.00  0.00    -0.353 OA
HETATM   16  C   UNL     1      16.854  52.547  44.894  1.00  0.00     0.210 C 
ENDBRANCH  10  15
ENDBRANCH   1   5
BRANCH   2  17
HETATM   17  C   UNL     1      24.148  49.387  48.737  1.00  0.00     0.035 A 
HETATM   18  C   UNL     1      24.519  48.231  49.432  1.00  0.00     0.042 A 
HETATM   19  C   UNL     1      25.871  47.872  49.585  1.00  0.00    -0.021 A 
HETATM   20  C   UNL     1      26.850  48.686  49.001  1.00  0.00     0.012 A 
HETATM   21  C   UNL     1      26.492  49.834  48.295  1.00  0.00     0.003 A 
HETATM   22  C   UNL     1      25.148  50.186  48.171  1.00  0.00     0.029 A 
BRANCH  19  23
HETATM   23  C   UNL     1      26.261  46.689  50.344  1.00  0.00     0.010 A 
HETATM   24  C   UNL     1      26.072  46.355  51.708  1.00  0.00     0.152 A 
HETATM   25  N   UNL     1      26.558  45.152  52.026  1.00  0.00    -0.187 NA
HETATM   26  N   UNL     1      27.066  44.706  50.867  1.00  0.00    -0.289 N 
HETATM   27  H   UNL     1      27.502  43.791  50.851  1.00  0.00     0.188 HD
HETATM   28  C   UNL     1      26.910  45.584  49.832  1.00  0.00     0.123 A 
ENDBRANCH  19  23
ENDBRANCH   2  17
TORSDOF 4
ENDMDL
MODEL 5
REMARK VINA RESULT:      -8.7      1.469      2.311
REMARK  4 active torsions:
REMARK  status: ('A' for Active; 'I' for Inactive)
REMARK    1  A    between atoms: O_2  and  C_3 
REMARK    2  A    between atoms: C_7  and  C_8 
REMARK       I    between atoms: C_8  and  N_9 
REMARK    3  A    between atoms: N_9  and  C_10 
REMARK    4  A    between atoms: C_12  and  C_13 
ROOT
HETATM    1  C   UNL     1      25.708  44.407  52.247  1.00  0.00     0.254 C 
HETATM    2  N   UNL     1      27.065  44.591  52.082  1.00  0.00    -0.323 N 
HETATM    3  O   UNL     1      25.164  43.815  53.172  1.00  0.00    -0.268 OA
HETATM    4  H   UNL     1      27.364  45.155  51.299  1.00  0.00     0.169 HD
ENDROOT
BRANCH   1   5
HETATM    5  C   UNL     1      24.854  45.076  51.211  1.00  0.00     0.035 C 
HETATM    6  C   UNL     1      24.970  46.369  50.872  1.00  0.00     0.029 C 
HETATM    7  C   UNL     1      24.036  46.894  49.881  1.00  0.00     0.001 A 
HETATM    8  C   UNL     1      23.230  46.020  49.142  1.00  0.00     0.112 A 
HETATM    9  C   UNL     1      23.954  48.271  49.649  1.00  0.00     0.014 A 
HETATM   10  C   UNL     1      22.366  46.512  48.149  1.00  0.00     0.102 A 
HETATM   11  O   UNL     1      23.290  44.661  49.312  1.00  0.00    -0.343 OA
HETATM   12  C   UNL     1      22.282  47.891  47.940  1.00  0.00     0.040 A 
HETATM   13  C   UNL     1      23.072  48.767  48.688  1.00  0.00     0.004 A 
HETATM   14  C   UNL     1      23.859  44.171  50.535  1.00  0.00     0.220 C 
BRANCH  10  15
HETATM   15  O   UNL     1      21.631  45.578  47.463  1.00  0.00    -0.353 OA
HETATM   16  C   UNL     1      22.004  45.326  46.116  1.00  0.00     0.210 C 
ENDBRANCH  10  15
ENDBRANCH   1   5
BRANCH   2  17
HETATM   17  C   UNL     1      28.107  44.122  52.913  1.00  0.00     0.035 A 
HETATM   18  C   UNL     1      28.449  44.693  54.144  1.00  0.00     0.042 A 
HETATM   19  C   UNL     1      29.521  44.197  54.909  1.00  0.00    -0.021 A 
HETATM   20  C   UNL     1      30.231  43.090  54.426  1.00  0.00     0.012 A 
HETATM   21  C   UNL     1      29.891  42.504  53.206  1.00  0.00     0.003 A 
HETATM   22  C   UNL     1      28.839  43.023  52.452  1.00  0.00     0.029 A 
BRANCH  19  23
HETATM   23  C   UNL     1      29.904  44.817  56.172  1.00  0.00     0.010 A 
HETATM   24  C   UNL     1      29.357  45.923  56.868  1.00  0.00     0.152 A 
HETATM   25  N   UNL     1      29.979  46.176  58.022  1.00  0.00    -0.187 NA
HETATM   26  N   UNL     1      30.932  45.233  58.075  1.00  0.00    -0.289 N 
HETATM   27  H   UNL     1      31.552  45.216  58.878  1.00  0.00     0.188 HD
HETATM   28  C   UNL     1      30.926  44.394  56.997  1.00  0.00     0.123 A 
ENDBRANCH  19  23
ENDBRANCH   2  17
TORSDOF 4
ENDMDL
MODEL 6
REMARK VINA RESULT:      -8.6      3.592      9.614
REMARK  4 active torsions:
REMARK  status: ('A' for Active; 'I' for Inactive)
REMARK    1  A    between atoms: O_2  and  C_3 
REMARK    2  A    between atoms: C_7  and  C_8 
REMARK       I    between atoms: C_8  and  N_9 
REMARK    3  A    between atoms: N_9  and  C_10 
REMARK    4  A    between atoms: C_12  and  C_13 
ROOT
HETATM    1  C   UNL     1      25.525  46.901  51.383  1.00  0.00     0.254 C 
HETATM    2  N   UNL     1      25.295  47.087  50.035  1.00  0.00    -0.323 N 
HETATM    3  O   UNL     1      25.188  47.657  52.287  1.00  0.00    -0.268 OA
HETATM    4  H   UNL     1      25.579  46.346  49.410  1.00  0.00     0.169 HD
ENDROOT
BRANCH   1   5
HETATM    5  C   UNL     1      26.187  45.601  51.732  1.00  0.00     0.035 C 
HETATM    6  C   UNL     1      26.907  45.406  52.845  1.00  0.00     0.029 C 
HETATM    7  C   UNL     1      27.534  44.101  53.027  1.00  0.00     0.001 A 
HETATM    8  C   UNL     1      27.180  43.031  52.196  1.00  0.00     0.112 A 
HETATM    9  C   UNL     1      28.474  43.903  54.043  1.00  0.00     0.014 A 
HETATM   10  C   UNL     1      27.738  41.756  52.396  1.00  0.00     0.102 A 
HETATM   11  O   UNL     1      26.245  43.163  51.201  1.00  0.00    -0.343 OA
HETATM   12  C   UNL     1      28.689  41.578  53.405  1.00  0.00     0.040 A 
HETATM   13  C   UNL     1      29.056  42.649  54.224  1.00  0.00     0.004 A 
HETATM   14  C   UNL     1      25.952  44.491  50.742  1.00  0.00     0.220 C 
BRANCH  10  15
HETATM   15  O   UNL     1      27.316  40.766  51.545  1.00  0.00    -0.353 OA
HETATM   16  C   UNL     1      28.282  40.223  50.657  1.00  0.00     0.210 C 
ENDBRANCH  10  15
ENDBRANCH   1   5
BRANCH   2  17
HETATM   17  C   UNL     1      24.657  48.183  49.412  1.00  0.00     0.035 A 
HETATM   18  C   UNL     1      23.272  48.376  49.386  1.00  0.00     0.042 A 
HETATM   19  C   UNL     1      22.698  49.474  48.719  1.00  0.00    -0.021 A 
HETATM   20  C   UNL     1      23.548  50.398  48.097  1.00  0.00     0.012 A 
HETATM   21  C   UNL     1      24.932  50.223  48.127  1.00  0.00     0.003 A 
HETATM   22  C   UNL     1      25.481  49.117  48.775  1.00  0.00     0.029 A 
BRANCH  19  23
HETATM   23  C   UNL     1      21.252  49.655  48.656  1.00  0.00     0.010 A 
HETATM   24  C   UNL     1      20.198  48.939  49.278  1.00  0.00     0.152 A 
HETATM   25  N   UNL     1      18.990  49.429  48.990  1.00  0.00    -0.187 NA
HETATM   26  N   UNL     1      19.260  50.464  48.178  1.00  0.00    -0.289 N 
HETATM   27  H   UNL     1      18.485  51.009  47.816  1.00  0.00     0.188 HD
HETATM   28  C   UNL     1      20.595  50.643  47.952  1.00  0.00     0.123 A 
ENDBRANCH  19  23
ENDBRANCH   2  17
TORSDOF 4
ENDMDL
MODEL 7
REMARK VINA RESULT:      -8.5      4.506      6.391
REMARK  4 active torsions:
REMARK  status: ('A' for Active; 'I' for Inactive)
REMARK    1  A    between atoms: O_2  and  C_3 
REMARK    2  A    between atoms: C_7  and  C_8 
REMARK       I    between atoms: C_8  and  N_9 
REMARK    3  A    between atoms: N_9  and  C_10 
REMARK    4  A    between atoms: C_12  and  C_13 
ROOT
HETATM    1  C   UNL     1      28.164  41.765  52.354  1.00  0.00     0.254 C 
HETATM    2  N   UNL     1      28.378  43.127  52.325  1.00  0.00    -0.323 N 
HETATM    3  O   UNL     1      27.974  41.082  53.354  1.00  0.00    -0.268 OA
HETATM    4  H   UNL     1      28.459  43.565  51.419  1.00  0.00     0.169 HD
ENDROOT
BRANCH   1   5
HETATM    5  C   UNL     1      28.090  41.114  51.004  1.00  0.00     0.035 C 
HETATM    6  C   UNL     1      28.532  39.874  50.749  1.00  0.00     0.029 C 
HETATM    7  C   UNL     1      28.439  39.392  49.375  1.00  0.00     0.001 A 
HETATM    8  C   UNL     1      27.688  40.103  48.431  1.00  0.00     0.112 A 
HETATM    9  C   UNL     1      29.080  38.208  48.997  1.00  0.00     0.014 A 
HETATM   10  C   UNL     1      27.549  39.619  47.119  1.00  0.00     0.102 A 
HETATM   11  O   UNL     1      27.018  41.254  48.755  1.00  0.00    -0.343 OA
HETATM   12  C   UNL     1      28.209  38.443  46.751  1.00  0.00     0.040 A 
HETATM   13  C   UNL     1      28.973  37.742  47.686  1.00  0.00     0.004 A 
HETATM   14  C   UNL     1      27.437  41.952  49.938  1.00  0.00     0.220 C 
BRANCH  10  15
HETATM   15  O   UNL     1      26.777  40.373  46.270  1.00  0.00    -0.353 OA
HETATM   16  C   UNL     1      26.530  39.839  44.977  1.00  0.00     0.210 C 
ENDBRANCH  10  15
ENDBRANCH   1   5
BRANCH   2  17
HETATM   17  C   UNL     1      28.452  44.012  53.425  1.00  0.00     0.035 A 
HETATM   18  C   UNL     1      29.392  43.910  54.456  1.00  0.00     0.042 A 
HETATM   19  C   UNL     1      29.390  44.807  55.540  1.00  0.00    -0.021 A 
HETATM   20  C   UNL     1      28.437  45.834  55.557  1.00  0.00     0.012 A 
HETATM   21  C   UNL     1      27.502  45.954  54.528  1.00  0.00     0.003 A 
HETATM   22  C   UNL     1      27.506  45.043  53.472  1.00  0.00     0.029 A 
BRANCH  19  23
HETATM   23  C   UNL     1      30.344  44.677  56.635  1.00  0.00     0.010 A 
HETATM   24  C   UNL     1      31.386  43.743  56.854  1.00  0.00     0.152 A 
HETATM   25  N   UNL     1      32.067  43.970  57.980  1.00  0.00    -0.187 NA
HETATM   26  N   UNL     1      31.463  45.053  58.494  1.00  0.00    -0.289 N 
HETATM   27  H   UNL     1      31.808  45.428  59.371  1.00  0.00     0.188 HD
HETATM   28  C   UNL     1      30.433  45.516  57.727  1.00  0.00     0.123 A 
ENDBRANCH  19  23
ENDBRANCH   2  17
TORSDOF 4
ENDMDL
MODEL 8
REMARK VINA RESULT:      -8.5      3.098      9.413
REMARK  4 active torsions:
REMARK  status: ('A' for Active; 'I' for Inactive)
REMARK    1  A    between atoms: O_2  and  C_3 
REMARK    2  A    between atoms: C_7  and  C_8 
REMARK       I    between atoms: C_8  and  N_9 
REMARK    3  A    between atoms: N_9  and  C_10 
REMARK    4  A    between atoms: C_12  and  C_13 
ROOT
HETATM    1  C   UNL     1      25.388  45.228  52.454  1.00  0.00     0.254 C 
HETATM    2  N   UNL     1      25.520  46.141  51.429  1.00  0.00    -0.323 N 
HETATM    3  O   UNL     1      24.423  44.498  52.655  1.00  0.00    -0.268 OA
HETATM    4  H   UNL     1      26.400  46.630  51.354  1.00  0.00     0.169 HD
ENDROOT
BRANCH   1   5
HETATM    5  C   UNL     1      26.594  45.098  53.337  1.00  0.00     0.035 C 
HETATM    6  C   UNL     1      27.603  44.248  53.099  1.00  0.00     0.029 C 
HETATM    7  C   UNL     1      28.688  44.197  54.074  1.00  0.00     0.001 A 
HETATM    8  C   UNL     1      28.784  45.175  55.070  1.00  0.00     0.112 A 
HETATM    9  C   UNL     1      29.651  43.184  54.006  1.00  0.00     0.014 A 
HETATM   10  C   UNL     1      29.854  45.165  55.981  1.00  0.00     0.102 A 
HETATM   11  O   UNL     1      27.882  46.204  55.165  1.00  0.00    -0.343 OA
HETATM   12  C   UNL     1      30.799  44.137  55.912  1.00  0.00     0.040 A 
HETATM   13  C   UNL     1      30.696  43.150  54.929  1.00  0.00     0.004 A 
HETATM   14  C   UNL     1      26.614  46.034  54.516  1.00  0.00     0.220 C 
BRANCH  10  15
HETATM   15  O   UNL     1      29.874  46.175  56.909  1.00  0.00    -0.353 OA
HETATM   16  C   UNL     1      30.451  45.879  58.173  1.00  0.00     0.210 C 
ENDBRANCH  10  15
ENDBRANCH   1   5
BRANCH   2  17
HETATM   17  C   UNL     1      24.579  46.449  50.421  1.00  0.00     0.035 A 
HETATM   18  C   UNL     1      23.824  45.494  49.730  1.00  0.00     0.042 A 
HETATM   19  C   UNL     1      22.926  45.867  48.713  1.00  0.00    -0.021 A 
HETATM   20  C   UNL     1      22.777  47.228  48.417  1.00  0.00     0.012 A 
HETATM   21  C   UNL     1      23.515  48.190  49.107  1.00  0.00     0.003 A 
HETATM   22  C   UNL     1      24.416  47.801  50.098  1.00  0.00     0.029 A 
BRANCH  19  23
HETATM   23  C   UNL     1      22.168  44.869  47.966  1.00  0.00     0.010 A 
HETATM   24  C   UNL     1      20.776  44.738  47.739  1.00  0.00     0.152 A 
HETATM   25  N   UNL     1      20.466  43.689  46.972  1.00  0.00    -0.187 NA
HETATM   26  N   UNL     1      21.660  43.139  46.702  1.00  0.00    -0.289 N 
HETATM   27  H   UNL     1      21.688  42.308  46.121  1.00  0.00     0.188 HD
HETATM   28  C   UNL     1      22.707  43.808  47.268  1.00  0.00     0.123 A 
ENDBRANCH  19  23
ENDBRANCH   2  17
TORSDOF 4
ENDMDL
MODEL 9
REMARK VINA RESULT:      -8.4      2.974      4.583
REMARK  4 active torsions:
REMARK  status: ('A' for Active; 'I' for Inactive)
REMARK    1  A    between atoms: O_2  and  C_3 
REMARK    2  A    between atoms: C_7  and  C_8 
REMARK       I    between atoms: C_8  and  N_9 
REMARK    3  A    between atoms: N_9  and  C_10 
REMARK    4  A    between atoms: C_12  and  C_13 
ROOT
HETATM    1  C   UNL     1      25.201  47.451  50.331  1.00  0.00     0.254 C 
HETATM    2  N   UNL     1      24.995  47.050  51.635  1.00  0.00    -0.323 N 
HETATM    3  O   UNL     1      26.258  47.389  49.713  1.00  0.00    -0.268 OA
HETATM    4  H   UNL     1      24.051  47.105  51.992  1.00  0.00     0.169 HD
ENDROOT
BRANCH   1   5
HETATM    5  C   UNL     1      23.971  47.928  49.619  1.00  0.00     0.035 C 
HETATM    6  C   UNL     1      23.619  49.219  49.522  1.00  0.00     0.029 C 
HETATM    7  C   UNL     1      22.367  49.530  48.841  1.00  0.00     0.001 A 
HETATM    8  C   UNL     1      21.702  48.540  48.106  1.00  0.00     0.112 A 
HETATM    9  C   UNL     1      21.833  50.821  48.899  1.00  0.00     0.014 A 
HETATM   10  C   UNL     1      20.523  48.843  47.404  1.00  0.00     0.102 A 
HETATM   11  O   UNL     1      22.195  47.266  47.996  1.00  0.00    -0.343 OA
HETATM   12  C   UNL     1      19.992  50.133  47.485  1.00  0.00     0.040 A 
HETATM   13  C   UNL     1      20.644  51.118  48.231  1.00  0.00     0.004 A 
HETATM   14  C   UNL     1      23.154  46.840  48.975  1.00  0.00     0.220 C 
BRANCH  10  15
HETATM   15  O   UNL     1      19.954  47.814  46.697  1.00  0.00    -0.353 OA
HETATM   16  C   UNL     1      18.541  47.831  46.556  1.00  0.00     0.210 C 
ENDBRANCH  10  15
ENDBRANCH   1   5
BRANCH   2  17
HETATM   17  C   UNL     1      25.945  46.518  52.535  1.00  0.00     0.035 A 
HETATM   18  C   UNL     1      26.593  45.291  52.361  1.00  0.00     0.042 A 
HETATM   19  C   UNL     1      27.506  44.804  53.314  1.00  0.00    -0.021 A 
HETATM   20  C   UNL     1      27.780  45.589  54.441  1.00  0.00     0.012 A 
HETATM   21  C   UNL     1      27.150  46.821  54.619  1.00  0.00     0.003 A 
HETATM   22  C   UNL     1      26.232  47.278  53.675  1.00  0.00     0.029 A 
BRANCH  19  23
HETATM   23  C   UNL     1      28.152  43.506  53.153  1.00  0.00     0.010 A 
HETATM   24  C   UNL     1      27.713  42.201  53.488  1.00  0.00     0.152 A 
HETATM   25  N   UNL     1      28.591  41.250  53.158  1.00  0.00    -0.187 NA
HETATM   26  N   UNL     1      29.604  41.941  52.610  1.00  0.00    -0.289 N 
HETATM   27  H   UNL     1      30.411  41.428  52.274  1.00  0.00     0.188 HD
HETATM   28  C   UNL     1      29.389  43.289  52.580  1.00  0.00     0.123 A 
ENDBRANCH  19  23
ENDBRANCH   2  17
TORSDOF 4
ENDMDL
MODEL 10
REMARK VINA RESULT:      -8.4      2.975      5.200
REMARK  4 active torsions:
REMARK  status: ('A' for Active; 'I' for Inactive)
REMARK    1  A    between atoms: O_2  and  C_3 
REMARK    2  A    between atoms: C_7  and  C_8 
REMARK       I    between atoms: C_8  and  N_9 
REMARK    3  A    between atoms: N_9  and  C_10 
REMARK    4  A    between atoms: C_12  and  C_13 
ROOT
HETATM    1  C   UNL     1      23.998  48.297  49.602  1.00  0.00     0.254 C 
HETATM    2  N   UNL     1      23.849  47.105  50.282  1.00  0.00    -0.323 N 
HETATM    3  O   UNL     1      25.050  48.895  49.410  1.00  0.00    -0.268 OA
HETATM    4  H   UNL     1      22.925  46.698  50.307  1.00  0.00     0.169 HD
ENDROOT
BRANCH   1   5
HETATM    5  C   UNL     1      22.736  48.833  48.995  1.00  0.00     0.035 C 
HETATM    6  C   UNL     1      22.314  50.097  49.147  1.00  0.00     0.029 C 
HETATM    7  C   UNL     1      21.039  50.462  48.538  1.00  0.00     0.001 A 
HETATM    8  C   UNL     1      20.423  49.597  47.626  1.00  0.00     0.112 A 
HETATM    9  C   UNL     1      20.437  51.688  48.843  1.00  0.00     0.014 A 
HETATM   10  C   UNL     1      19.222  49.963  46.995  1.00  0.00     0.102 A 
HETATM   11  O   UNL     1      20.983  48.397  47.273  1.00  0.00    -0.343 OA
HETATM   12  C   UNL     1      18.622  51.182  47.322  1.00  0.00     0.040 A 
HETATM   13  C   UNL     1      19.227  52.040  48.244  1.00  0.00     0.004 A 
HETATM   14  C   UNL     1      21.974  47.845  48.153  1.00  0.00     0.220 C 
BRANCH  10  15
HETATM   15  O   UNL     1      18.703  49.059  46.102  1.00  0.00    -0.353 OA
HETATM   16  C   UNL     1      17.533  48.358  46.500  1.00  0.00     0.210 C 
ENDBRANCH  10  15
ENDBRANCH   1   5
BRANCH   2  17
HETATM   17  C   UNL     1      24.855  46.342  50.916  1.00  0.00     0.035 A 
HETATM   18  C   UNL     1      25.391  46.637  52.175  1.00  0.00     0.042 A 
HETATM   19  C   UNL     1      26.415  45.853  52.737  1.00  0.00    -0.021 A 
HETATM   20  C   UNL     1      26.878  44.743  52.019  1.00  0.00     0.012 A 
HETATM   21  C   UNL     1      26.343  44.431  50.769  1.00  0.00     0.003 A 
HETATM   22  C   UNL     1      25.343  45.231  50.218  1.00  0.00     0.029 A 
BRANCH  19  23
HETATM   23  C   UNL     1      27.002  46.183  54.031  1.00  0.00     0.010 A 
HETATM   24  C   UNL     1      27.818  45.421  54.903  1.00  0.00     0.152 A 
HETATM   25  N   UNL     1      28.180  46.090  56.001  1.00  0.00    -0.187 NA
HETATM   26  N   UNL     1      27.595  47.287  55.842  1.00  0.00    -0.289 N 
HETATM   27  H   UNL     1      27.725  47.988  56.563  1.00  0.00     0.188 HD
HETATM   28  C   UNL     1      26.885  47.395  54.680  1.00  0.00     0.123 A 
ENDBRANCH  19  23
ENDBRANCH   2  17
TORSDOF 4
ENDMDL
