MODEL 1
REMARK VINA RESULT:      -9.4      0.000      0.000
REMARK  10 active torsions:
REMARK  status: ('A' for Active; 'I' for Inactive)
REMARK    1  A    between atoms: C_2  and  N_3 
REMARK    2  A    between atoms: N_3  and  C_4 
REMARK    3  A    between atoms: N_3  and  C_37 
REMARK    4  A    between atoms: C_7  and  C_8 
REMARK    5  A    between atoms: N_9  and  C_11 
REMARK    6  A    between atoms: C_11  and  C_12 
REMARK       I    between atoms: C_12  and  N_13 
REMARK    7  A    between atoms: N_13  and  C_14 
REMARK    8  A    between atoms: C_20  and  C_21 
REMARK    9  A    between atoms: C_21  and  O_22 
REMARK   10  A    between atoms: C_28  and  O_29 
ROOT
HETATM    1  C   UNL     1      27.041  41.438  51.562  1.00  0.00     0.228 C 
HETATM    2  N   UNL     1      25.996  42.289  50.839  1.00  0.00    -0.054 N 
HETATM    3  H   UNL     1      25.375  42.552  51.611  1.00  0.00     0.281 HD
HETATM    4  C   UNL     1      25.095  41.492  49.931  1.00  0.00     0.239 C 
HETATM    5  C   UNL     1      25.822  40.522  49.013  1.00  0.00     0.066 C 
HETATM    6  C   UNL     1      26.859  39.677  49.749  1.00  0.00     0.065 C 
HETATM    7  C   UNL     1      27.832  40.543  50.583  1.00  0.00     0.055 C 
HETATM    8  C   UNL     1      27.638  38.790  48.760  1.00  0.00     0.038 C 
HETATM    9  C   UNL     1      28.679  37.917  49.461  1.00  0.00     0.003 C 
HETATM   10  C   UNL     1      29.610  38.744  50.338  1.00  0.00     0.001 C 
HETATM   11  C   UNL     1      28.838  39.625  51.319  1.00  0.00     0.010 C 
ENDROOT
BRANCH   2  12
HETATM   12  C   UNL     1      26.413  43.672  50.306  1.00  0.00     0.338 C 
BRANCH  12  13
HETATM   13  C   UNL     1      25.450  44.845  50.494  1.00  0.00     0.248 C 
HETATM   14  N   UNL     1      25.042  45.409  49.298  1.00  0.00    -0.319 N 
HETATM   15  H   UNL     1      25.496  45.127  48.427  1.00  0.00     0.169 HD
HETATM   16  O   UNL     1      25.148  45.226  51.618  1.00  0.00    -0.271 OA
BRANCH  14  17
HETATM   17  C   UNL     1      24.166  46.482  49.146  1.00  0.00     0.094 A 
HETATM   18  S   UNL     1      22.538  46.238  48.763  1.00  0.00    -0.076 SA
HETATM   19  C   UNL     1      22.198  47.905  48.761  1.00  0.00    -0.012 A 
HETATM   20  C   UNL     1      20.800  48.363  48.483  1.00  0.00     0.057 C 
HETATM   21  C   UNL     1      23.321  48.670  49.047  1.00  0.00    -0.030 A 
HETATM   22  C   UNL     1      23.305  50.166  49.145  1.00  0.00     0.050 C 
HETATM   23  C   UNL     1      24.498  47.829  49.239  1.00  0.00     0.080 A 
BRANCH  23  24
HETATM   24  C   UNL     1      25.879  48.245  49.525  1.00  0.00     0.296 C 
HETATM   25  O   UNL     1      26.359  48.166  50.655  1.00  0.00    -0.259 OA
BRANCH  24  26
HETATM   26  O   UNL     1      26.553  48.706  48.439  1.00  0.00    -0.322 OA
HETATM   27  C   UNL     1      26.896  50.091  48.488  1.00  0.00     0.213 C 
ENDBRANCH  24  26
ENDBRANCH  23  24
ENDBRANCH  14  17
ENDBRANCH  12  13
ENDBRANCH   2  12
BRANCH   1  28
HETATM   28  C   UNL     1      27.843  42.260  52.558  1.00  0.00    -0.027 A 
HETATM   29  C   UNL     1      27.163  42.990  53.543  1.00  0.00     0.011 A 
HETATM   30  C   UNL     1      27.862  43.719  54.512  1.00  0.00     0.030 A 
HETATM   31  C   UNL     1      29.261  43.767  54.533  1.00  0.00     0.030 A 
HETATM   32  C   UNL     1      29.928  43.066  53.517  1.00  0.00     0.030 A 
HETATM   33  C   UNL     1      29.240  42.323  52.546  1.00  0.00     0.011 A 
BRANCH  31  34
HETATM   34  N   UNL     1      29.979  44.421  55.531  1.00  0.00    -0.382 N 
BRANCH  34  35
HETATM   35  C   UNL     1      29.703  45.827  55.867  1.00  0.00     0.118 C 
HETATM   36  C   UNL     1      29.061  45.954  57.243  1.00  0.00     0.026 C 
ENDBRANCH  34  35
BRANCH  34  37
HETATM   37  C   UNL     1      31.340  43.942  55.823  1.00  0.00     0.118 C 
HETATM   38  C   UNL     1      31.373  43.103  57.094  1.00  0.00     0.026 C 
ENDBRANCH  34  37
ENDBRANCH  31  34
ENDBRANCH   1  28
BRANCH   6  39
HETATM   39  O   UNL     1      26.119  38.845  50.657  1.00  0.00    -0.389 OA
HETATM   40  H   UNL     1      25.810  39.391  51.406  1.00  0.00     0.210 HD
ENDBRANCH   6  39
TORSDOF 10
ENDMDL
MODEL 2
REMARK VINA RESULT:      -9.2      1.462      2.395
REMARK  10 active torsions:
REMARK  status: ('A' for Active; 'I' for Inactive)
REMARK    1  A    between atoms: C_2  and  N_3 
REMARK    2  A    between atoms: N_3  and  C_4 
REMARK    3  A    between atoms: N_3  and  C_37 
REMARK    4  A    between atoms: C_7  and  C_8 
REMARK    5  A    between atoms: N_9  and  C_11 
REMARK    6  A    between atoms: C_11  and  C_12 
REMARK       I    between atoms: C_12  and  N_13 
REMARK    7  A    between atoms: N_13  and  C_14 
REMARK    8  A    between atoms: C_20  and  C_21 
REMARK    9  A    between atoms: C_21  and  O_22 
REMARK   10  A    between atoms: C_28  and  O_29 
ROOT
HETATM    1  C   UNL     1      27.066  41.514  51.572  1.00  0.00     0.228 C 
HETATM    2  N   UNL     1      26.065  42.369  50.792  1.00  0.00    -0.054 N 
HETATM    3  H   UNL     1      25.421  42.658  51.535  1.00  0.00     0.281 HD
HETATM    4  C   UNL     1      25.185  41.570  49.866  1.00  0.00     0.239 C 
HETATM    5  C   UNL     1      25.928  40.568  48.996  1.00  0.00     0.066 C 
HETATM    6  C   UNL     1      26.921  39.720  49.788  1.00  0.00     0.065 C 
HETATM    7  C   UNL     1      27.878  40.586  50.641  1.00  0.00     0.055 C 
HETATM    8  C   UNL     1      27.721  38.800  48.847  1.00  0.00     0.038 C 
HETATM    9  C   UNL     1      28.718  37.923  49.605  1.00  0.00     0.003 C 
HETATM   10  C   UNL     1      29.630  38.751  50.500  1.00  0.00     0.001 C 
HETATM   11  C   UNL     1      28.838  39.665  51.434  1.00  0.00     0.010 C 
ENDROOT
BRANCH   2  12
HETATM   12  C   UNL     1      26.528  43.733  50.249  1.00  0.00     0.338 C 
BRANCH  12  13
HETATM   13  C   UNL     1      25.619  44.945  50.457  1.00  0.00     0.248 C 
HETATM   14  N   UNL     1      24.956  45.329  49.304  1.00  0.00    -0.319 N 
HETATM   15  H   UNL     1      25.212  44.906  48.410  1.00  0.00     0.169 HD
HETATM   16  O   UNL     1      25.565  45.501  51.546  1.00  0.00    -0.271 OA
BRANCH  14  17
HETATM   17  C   UNL     1      24.059  46.388  49.180  1.00  0.00     0.094 A 
HETATM   18  S   UNL     1      24.519  47.975  49.541  1.00  0.00    -0.076 SA
HETATM   19  C   UNL     1      22.983  48.599  49.160  1.00  0.00    -0.012 A 
HETATM   20  C   UNL     1      22.747  50.073  49.272  1.00  0.00     0.057 C 
HETATM   21  C   UNL     1      22.098  47.608  48.757  1.00  0.00    -0.030 A 
HETATM   22  C   UNL     1      20.685  47.876  48.330  1.00  0.00     0.050 C 
HETATM   23  C   UNL     1      22.724  46.290  48.804  1.00  0.00     0.080 A 
BRANCH  23  24
HETATM   24  C   UNL     1      22.125  44.985  48.489  1.00  0.00     0.296 C 
HETATM   25  O   UNL     1      21.155  44.549  49.108  1.00  0.00    -0.259 OA
BRANCH  24  26
HETATM   26  O   UNL     1      22.735  44.331  47.465  1.00  0.00    -0.322 OA
HETATM   27  C   UNL     1      22.577  42.912  47.482  1.00  0.00     0.213 C 
ENDBRANCH  24  26
ENDBRANCH  23  24
ENDBRANCH  14  17
ENDBRANCH  12  13
ENDBRANCH   2  12
BRANCH   1  28
HETATM   28  C   UNL     1      27.845  42.341  52.581  1.00  0.00    -0.027 A 
HETATM   29  C   UNL     1      27.149  42.994  53.609  1.00  0.00     0.011 A 
HETATM   30  C   UNL     1      27.829  43.724  54.591  1.00  0.00     0.030 A 
HETATM   31  C   UNL     1      29.223  43.851  54.583  1.00  0.00     0.030 A 
HETATM   32  C   UNL     1      29.903  43.227  53.525  1.00  0.00     0.030 A 
HETATM   33  C   UNL     1      29.235  42.484  52.542  1.00  0.00     0.011 A 
BRANCH  31  34
HETATM   34  N   UNL     1      29.928  44.506  55.589  1.00  0.00    -0.382 N 
BRANCH  34  35
HETATM   35  C   UNL     1      29.616  45.898  55.952  1.00  0.00     0.118 C 
HETATM   36  C   UNL     1      29.132  46.002  57.393  1.00  0.00     0.026 C 
ENDBRANCH  34  35
BRANCH  34  37
HETATM   37  C   UNL     1      31.302  44.059  55.869  1.00  0.00     0.118 C 
HETATM   38  C   UNL     1      31.345  43.102  57.053  1.00  0.00     0.026 C 
ENDBRANCH  34  37
ENDBRANCH  31  34
ENDBRANCH   1  28
BRANCH   6  39
HETATM   39  O   UNL     1      26.131  38.920  50.683  1.00  0.00    -0.389 OA
HETATM   40  H   UNL     1      25.648  38.248  50.163  1.00  0.00     0.210 HD
ENDBRANCH   6  39
TORSDOF 10
ENDMDL
MODEL 3
REMARK VINA RESULT:      -9.0      2.866      8.225
REMARK  10 active torsions:
REMARK  status: ('A' for Active; 'I' for Inactive)
REMARK    1  A    between atoms: C_2  and  N_3 
REMARK    2  A    between atoms: N_3  and  C_4 
REMARK    3  A    between atoms: N_3  and  C_37 
REMARK    4  A    between atoms: C_7  and  C_8 
REMARK    5  A    between atoms: N_9  and  C_11 
REMARK    6  A    between atoms: C_11  and  C_12 
REMARK       I    between atoms: C_12  and  N_13 
REMARK    7  A    between atoms: N_13  and  C_14 
REMARK    8  A    between atoms: C_20  and  C_21 
REMARK    9  A    between atoms: C_21  and  O_22 
REMARK   10  A    between atoms: C_28  and  O_29 
ROOT
HETATM    1  C   UNL     1      25.649  44.592  49.593  1.00  0.00     0.228 C 
HETATM    2  N   UNL     1      26.427  44.483  50.906  1.00  0.00    -0.054 N 
HETATM    3  H   UNL     1      27.097  45.253  50.812  1.00  0.00     0.281 HD
HETATM    4  C   UNL     1      27.312  43.265  50.981  1.00  0.00     0.239 C 
HETATM    5  C   UNL     1      26.636  41.966  50.571  1.00  0.00     0.066 C 
HETATM    6  C   UNL     1      25.867  42.090  49.257  1.00  0.00     0.065 C 
HETATM    7  C   UNL     1      24.889  43.288  49.264  1.00  0.00     0.055 C 
HETATM    8  C   UNL     1      25.116  40.782  48.943  1.00  0.00     0.038 C 
HETATM    9  C   UNL     1      24.344  40.861  47.626  1.00  0.00     0.003 C 
HETATM   10  C   UNL     1      23.420  42.071  47.586  1.00  0.00     0.001 C 
HETATM   11  C   UNL     1      24.163  43.368  47.898  1.00  0.00     0.010 C 
ENDROOT
BRANCH   2  12
HETATM   12  C   UNL     1      25.714  44.863  52.217  1.00  0.00     0.338 C 
BRANCH  12  13
HETATM   13  C   UNL     1      26.433  44.593  53.539  1.00  0.00     0.248 C 
HETATM   14  N   UNL     1      27.722  45.097  53.568  1.00  0.00    -0.319 N 
HETATM   15  H   UNL     1      28.141  45.460  52.709  1.00  0.00     0.169 HD
HETATM   16  O   UNL     1      25.885  43.949  54.424  1.00  0.00    -0.271 OA
BRANCH  14  17
HETATM   17  C   UNL     1      28.619  45.015  54.631  1.00  0.00     0.094 A 
HETATM   18  S   UNL     1      28.703  46.231  55.803  1.00  0.00    -0.076 SA
HETATM   19  C   UNL     1      29.933  45.434  56.666  1.00  0.00    -0.012 A 
HETATM   20  C   UNL     1      30.464  46.056  57.920  1.00  0.00     0.057 C 
HETATM   21  C   UNL     1      30.299  44.234  56.071  1.00  0.00    -0.030 A 
HETATM   22  C   UNL     1      31.336  43.308  56.635  1.00  0.00     0.050 C 
HETATM   23  C   UNL     1      29.546  44.002  54.843  1.00  0.00     0.080 A 
BRANCH  23  24
HETATM   24  C   UNL     1      29.654  42.873  53.907  1.00  0.00     0.296 C 
HETATM   25  O   UNL     1      30.616  42.748  53.149  1.00  0.00    -0.259 OA
BRANCH  24  26
HETATM   26  O   UNL     1      28.613  42.002  53.971  1.00  0.00    -0.322 OA
HETATM   27  C   UNL     1      28.794  40.797  53.226  1.00  0.00     0.213 C 
ENDBRANCH  24  26
ENDBRANCH  23  24
ENDBRANCH  14  17
ENDBRANCH  12  13
ENDBRANCH   2  12
BRANCH   1  28
HETATM   28  C   UNL     1      24.869  45.893  49.508  1.00  0.00    -0.027 A 
HETATM   29  C   UNL     1      23.508  45.851  49.174  1.00  0.00     0.011 A 
HETATM   30  C   UNL     1      22.738  47.020  49.134  1.00  0.00     0.030 A 
HETATM   31  C   UNL     1      23.290  48.276  49.407  1.00  0.00     0.030 A 
HETATM   32  C   UNL     1      24.662  48.309  49.699  1.00  0.00     0.030 A 
HETATM   33  C   UNL     1      25.443  47.145  49.752  1.00  0.00     0.011 A 
BRANCH  31  34
HETATM   34  N   UNL     1      22.530  49.442  49.450  1.00  0.00    -0.382 N 
BRANCH  34  35
HETATM   35  C   UNL     1      21.067  49.401  49.282  1.00  0.00     0.118 C 
HETATM   36  C   UNL     1      20.407  50.647  49.859  1.00  0.00     0.026 C 
ENDBRANCH  34  35
BRANCH  34  37
HETATM   37  C   UNL     1      23.187  50.706  49.077  1.00  0.00     0.118 C 
HETATM   38  C   UNL     1      23.416  50.790  47.574  1.00  0.00     0.026 C 
ENDBRANCH  34  37
ENDBRANCH  31  34
ENDBRANCH   1  28
BRANCH   6  39
HETATM   39  O   UNL     1      26.855  42.329  48.243  1.00  0.00    -0.389 OA
HETATM   40  H   UNL     1      27.510  41.605  48.261  1.00  0.00     0.210 HD
ENDBRANCH   6  39
TORSDOF 10
ENDMDL
MODEL 4
REMARK VINA RESULT:      -8.6      3.080      4.494
REMARK  10 active torsions:
REMARK  status: ('A' for Active; 'I' for Inactive)
REMARK    1  A    between atoms: C_2  and  N_3 
REMARK    2  A    between atoms: N_3  and  C_4 
REMARK    3  A    between atoms: N_3  and  C_37 
REMARK    4  A    between atoms: C_7  and  C_8 
REMARK    5  A    between atoms: N_9  and  C_11 
REMARK    6  A    between atoms: C_11  and  C_12 
REMARK       I    between atoms: C_12  and  N_13 
REMARK    7  A    between atoms: N_13  and  C_14 
REMARK    8  A    between atoms: C_20  and  C_21 
REMARK    9  A    between atoms: C_21  and  O_22 
REMARK   10  A    between atoms: C_28  and  O_29 
ROOT
HETATM    1  C   UNL     1      23.773  43.991  50.156  1.00  0.00     0.228 C 
HETATM    2  N   UNL     1      22.793  45.022  49.591  1.00  0.00    -0.054 N 
HETATM    3  H   UNL     1      22.240  45.255  50.423  1.00  0.00     0.281 HD
HETATM    4  C   UNL     1      21.772  44.431  48.654  1.00  0.00     0.239 C 
HETATM    5  C   UNL     1      22.349  43.505  47.595  1.00  0.00     0.066 C 
HETATM    6  C   UNL     1      23.321  42.479  48.173  1.00  0.00     0.065 C 
HETATM    7  C   UNL     1      24.419  43.140  49.040  1.00  0.00     0.055 C 
HETATM    8  C   UNL     1      23.955  41.638  47.049  1.00  0.00     0.038 C 
HETATM    9  C   UNL     1      24.927  40.589  47.590  1.00  0.00     0.003 C 
HETATM   10  C   UNL     1      25.980  41.210  48.497  1.00  0.00     0.001 C 
HETATM   11  C   UNL     1      25.353  42.046  49.612  1.00  0.00     0.010 C 
ENDROOT
BRANCH   2  12
HETATM   12  C   UNL     1      23.333  46.408  49.191  1.00  0.00     0.338 C 
BRANCH  12  13
HETATM   13  C   UNL     1      22.370  47.401  48.539  1.00  0.00     0.248 C 
HETATM   14  N   UNL     1      21.453  47.932  49.429  1.00  0.00    -0.319 N 
HETATM   15  H   UNL     1      21.380  47.541  50.371  1.00  0.00     0.169 HD
HETATM   16  O   UNL     1      22.428  47.624  47.336  1.00  0.00    -0.271 OA
BRANCH  14  17
HETATM   17  C   UNL     1      20.458  48.862  49.136  1.00  0.00     0.094 A 
HETATM   18  S   UNL     1      18.880  48.374  48.773  1.00  0.00    -0.076 SA
HETATM   19  C   UNL     1      18.342  49.974  48.560  1.00  0.00    -0.012 A 
HETATM   20  C   UNL     1      16.906  50.219  48.215  1.00  0.00     0.057 C 
HETATM   21  C   UNL     1      19.357  50.900  48.759  1.00  0.00    -0.030 A 
HETATM   22  C   UNL     1      19.159  52.384  48.668  1.00  0.00     0.050 C 
HETATM   23  C   UNL     1      20.622  50.241  49.064  1.00  0.00     0.080 A 
BRANCH  23  24
HETATM   24  C   UNL     1      21.935  50.855  49.308  1.00  0.00     0.296 C 
HETATM   25  O   UNL     1      22.385  50.995  50.445  1.00  0.00    -0.259 OA
BRANCH  24  26
HETATM   26  O   UNL     1      22.586  51.235  48.177  1.00  0.00    -0.322 OA
HETATM   27  C   UNL     1      23.911  50.721  48.045  1.00  0.00     0.213 C 
ENDBRANCH  24  26
ENDBRANCH  23  24
ENDBRANCH  14  17
ENDBRANCH  12  13
ENDBRANCH   2  12
BRANCH   1  28
HETATM   28  C   UNL     1      24.703  44.606  51.189  1.00  0.00    -0.027 A 
HETATM   29  C   UNL     1      24.565  44.237  52.534  1.00  0.00     0.011 A 
HETATM   30  C   UNL     1      25.432  44.739  53.512  1.00  0.00     0.030 A 
HETATM   31  C   UNL     1      26.458  45.639  53.198  1.00  0.00     0.030 A 
HETATM   32  C   UNL     1      26.557  46.031  51.855  1.00  0.00     0.030 A 
HETATM   33  C   UNL     1      25.702  45.529  50.863  1.00  0.00     0.011 A 
BRANCH  31  34
HETATM   34  N   UNL     1      27.380  46.091  54.138  1.00  0.00    -0.382 N 
BRANCH  34  35
HETATM   35  C   UNL     1      27.792  45.241  55.268  1.00  0.00     0.118 C 
HETATM   36  C   UNL     1      29.161  45.647  55.798  1.00  0.00     0.026 C 
ENDBRANCH  34  35
BRANCH  34  37
HETATM   37  C   UNL     1      27.488  47.544  54.351  1.00  0.00     0.118 C 
HETATM   38  C   UNL     1      26.294  48.082  55.129  1.00  0.00     0.026 C 
ENDBRANCH  34  37
ENDBRANCH  31  34
ENDBRANCH   1  28
BRANCH   6  39
HETATM   39  O   UNL     1      22.538  41.627  49.024  1.00  0.00    -0.389 OA
HETATM   40  H   UNL     1      21.957  41.072  48.468  1.00  0.00     0.210 HD
ENDBRANCH   6  39
TORSDOF 10
ENDMDL
MODEL 5
REMARK VINA RESULT:      -8.4      2.835      8.647
REMARK  10 active torsions:
REMARK  status: ('A' for Active; 'I' for Inactive)
REMARK    1  A    between atoms: C_2  and  N_3 
REMARK    2  A    between atoms: N_3  and  C_4 
REMARK    3  A    between atoms: N_3  and  C_37 
REMARK    4  A    between atoms: C_7  and  C_8 
REMARK    5  A    between atoms: N_9  and  C_11 
REMARK    6  A    between atoms: C_11  and  C_12 
REMARK       I    between atoms: C_12  and  N_13 
REMARK    7  A    between atoms: N_13  and  C_14 
REMARK    8  A    between atoms: C_20  and  C_21 
REMARK    9  A    between atoms: C_21  and  O_22 
REMARK   10  A    between atoms: C_28  and  O_29 
ROOT
HETATM    1  C   UNL     1      26.176  44.021  52.056  1.00  0.00     0.228 C 
HETATM    2  N   UNL     1      26.585  42.756  51.298  1.00  0.00    -0.054 N 
HETATM    3  H   UNL     1      25.671  42.368  51.040  1.00  0.00     0.281 HD
HETATM    4  C   UNL     1      27.174  41.689  52.182  1.00  0.00     0.239 C 
HETATM    5  C   UNL     1      28.242  42.185  53.145  1.00  0.00     0.066 C 
HETATM    6  C   UNL     1      27.818  43.445  53.898  1.00  0.00     0.065 C 
HETATM    7  C   UNL     1      27.322  44.555  52.942  1.00  0.00     0.055 C 
HETATM    8  C   UNL     1      28.971  43.965  54.777  1.00  0.00     0.038 C 
HETATM    9  C   UNL     1      28.582  45.220  55.559  1.00  0.00     0.003 C 
HETATM   10  C   UNL     1      28.031  46.305  54.643  1.00  0.00     0.001 C 
HETATM   11  C   UNL     1      26.888  45.791  53.769  1.00  0.00     0.010 C 
ENDROOT
BRANCH   2  12
HETATM   12  C   UNL     1      27.246  42.908  49.916  1.00  0.00     0.338 C 
BRANCH  12  13
HETATM   13  C   UNL     1      26.907  41.885  48.831  1.00  0.00     0.248 C 
HETATM   14  N   UNL     1      28.006  41.157  48.410  1.00  0.00    -0.319 N 
HETATM   15  H   UNL     1      28.941  41.432  48.718  1.00  0.00     0.169 HD
HETATM   16  O   UNL     1      25.768  41.803  48.389  1.00  0.00    -0.271 OA
BRANCH  14  17
HETATM   17  C   UNL     1      28.012  40.153  47.444  1.00  0.00     0.094 A 
HETATM   18  S   UNL     1      27.975  40.523  45.794  1.00  0.00    -0.076 SA
HETATM   19  C   UNL     1      28.008  38.884  45.338  1.00  0.00    -0.012 A 
HETATM   20  C   UNL     1      28.011  38.534  43.882  1.00  0.00     0.057 C 
HETATM   21  C   UNL     1      28.042  38.034  46.435  1.00  0.00    -0.030 A 
HETATM   22  C   UNL     1      28.109  36.539  46.327  1.00  0.00     0.050 C 
HETATM   23  C   UNL     1      28.007  38.784  47.686  1.00  0.00     0.080 A 
BRANCH  23  24
HETATM   24  C   UNL     1      27.997  38.263  49.060  1.00  0.00     0.296 C 
HETATM   25  O   UNL     1      27.132  37.480  49.452  1.00  0.00    -0.259 OA
BRANCH  24  26
HETATM   26  O   UNL     1      29.020  38.719  49.831  1.00  0.00    -0.322 OA
HETATM   27  C   UNL     1      29.793  37.700  50.466  1.00  0.00     0.213 C 
ENDBRANCH  24  26
ENDBRANCH  23  24
ENDBRANCH  14  17
ENDBRANCH  12  13
ENDBRANCH   2  12
BRANCH   1  28
HETATM   28  C   UNL     1      25.474  45.018  51.149  1.00  0.00    -0.027 A 
HETATM   29  C   UNL     1      24.210  44.697  50.635  1.00  0.00     0.011 A 
HETATM   30  C   UNL     1      23.504  45.606  49.837  1.00  0.00     0.030 A 
HETATM   31  C   UNL     1      24.030  46.860  49.504  1.00  0.00     0.030 A 
HETATM   32  C   UNL     1      25.314  47.150  49.991  1.00  0.00     0.030 A 
HETATM   33  C   UNL     1      26.027  46.253  50.799  1.00  0.00     0.011 A 
BRANCH  31  34
HETATM   34  N   UNL     1      23.316  47.810  48.779  1.00  0.00    -0.382 N 
BRANCH  34  35
HETATM   35  C   UNL     1      23.344  49.233  49.157  1.00  0.00     0.118 C 
HETATM   36  C   UNL     1      23.764  50.111  47.986  1.00  0.00     0.026 C 
ENDBRANCH  34  35
BRANCH  34  37
HETATM   37  C   UNL     1      22.121  47.360  48.046  1.00  0.00     0.118 C 
HETATM   38  C   UNL     1      20.846  47.900  48.680  1.00  0.00     0.026 C 
ENDBRANCH  34  37
ENDBRANCH  31  34
ENDBRANCH   1  28
BRANCH   6  39
HETATM   39  O   UNL     1      26.717  43.055  54.733  1.00  0.00    -0.389 OA
HETATM   40  H   UNL     1      26.800  42.104  54.944  1.00  0.00     0.210 HD
ENDBRANCH   6  39
TORSDOF 10
ENDMDL
MODEL 6
REMARK VINA RESULT:      -8.2      3.192      4.933
REMARK  10 active torsions:
REMARK  status: ('A' for Active; 'I' for Inactive)
REMARK    1  A    between atoms: C_2  and  N_3 
REMARK    2  A    between atoms: N_3  and  C_4 
REMARK    3  A    between atoms: N_3  and  C_37 
REMARK    4  A    between atoms: C_7  and  C_8 
REMARK    5  A    between atoms: N_9  and  C_11 
REMARK    6  A    between atoms: C_11  and  C_12 
REMARK       I    between atoms: C_12  and  N_13 
REMARK    7  A    between atoms: N_13  and  C_14 
REMARK    8  A    between atoms: C_20  and  C_21 
REMARK    9  A    between atoms: C_21  and  O_22 
REMARK   10  A    between atoms: C_28  and  O_29 
ROOT
HETATM    1  C   UNL     1      23.876  44.351  50.390  1.00  0.00     0.228 C 
HETATM    2  N   UNL     1      22.976  45.434  49.794  1.00  0.00    -0.054 N 
HETATM    3  H   UNL     1      22.391  45.681  50.599  1.00  0.00     0.281 HD
HETATM    4  C   UNL     1      21.979  44.905  48.795  1.00  0.00     0.239 C 
HETATM    5  C   UNL     1      22.567  43.968  47.752  1.00  0.00     0.066 C 
HETATM    6  C   UNL     1      23.460  42.890  48.362  1.00  0.00     0.065 C 
HETATM    7  C   UNL     1      24.539  43.487  49.295  1.00  0.00     0.055 C 
HETATM    8  C   UNL     1      24.113  42.037  47.258  1.00  0.00     0.038 C 
HETATM    9  C   UNL     1      25.005  40.936  47.830  1.00  0.00     0.003 C 
HETATM   10  C   UNL     1      26.037  41.494  48.801  1.00  0.00     0.001 C 
HETATM   11  C   UNL     1      25.391  42.342  49.896  1.00  0.00     0.010 C 
ENDROOT
BRANCH   2  12
HETATM   12  C   UNL     1      23.598  46.799  49.446  1.00  0.00     0.338 C 
BRANCH  12  13
HETATM   13  C   UNL     1      22.729  47.832  48.728  1.00  0.00     0.248 C 
HETATM   14  N   UNL     1      21.588  48.167  49.437  1.00  0.00    -0.319 N 
HETATM   15  H   UNL     1      21.335  47.629  50.268  1.00  0.00     0.169 HD
HETATM   16  O   UNL     1      23.042  48.244  47.618  1.00  0.00    -0.271 OA
BRANCH  14  17
HETATM   17  C   UNL     1      20.610  49.080  49.047  1.00  0.00     0.094 A 
HETATM   18  S   UNL     1      20.733  50.719  49.441  1.00  0.00    -0.076 SA
HETATM   19  C   UNL     1      19.271  51.105  48.663  1.00  0.00    -0.012 A 
HETATM   20  C   UNL     1      18.807  52.529  48.649  1.00  0.00     0.057 C 
HETATM   21  C   UNL     1      18.667  49.991  48.097  1.00  0.00    -0.030 A 
HETATM   22  C   UNL     1      17.384  50.043  47.321  1.00  0.00     0.050 C 
HETATM   23  C   UNL     1      19.441  48.782  48.356  1.00  0.00     0.080 A 
BRANCH  23  24
HETATM   24  C   UNL     1      19.134  47.400  47.960  1.00  0.00     0.296 C 
HETATM   25  O   UNL     1      18.932  46.515  48.792  1.00  0.00    -0.259 OA
BRANCH  24  26
HETATM   26  O   UNL     1      19.089  47.208  46.615  1.00  0.00    -0.322 OA
HETATM   27  C   UNL     1      20.293  46.699  46.041  1.00  0.00     0.213 C 
ENDBRANCH  24  26
ENDBRANCH  23  24
ENDBRANCH  14  17
ENDBRANCH  12  13
ENDBRANCH   2  12
BRANCH   1  28
HETATM   28  C   UNL     1      24.778  44.907  51.480  1.00  0.00    -0.027 A 
HETATM   29  C   UNL     1      24.616  44.451  52.796  1.00  0.00     0.011 A 
HETATM   30  C   UNL     1      25.458  44.897  53.823  1.00  0.00     0.030 A 
HETATM   31  C   UNL     1      26.480  45.824  53.588  1.00  0.00     0.030 A 
HETATM   32  C   UNL     1      26.603  46.303  52.276  1.00  0.00     0.030 A 
HETATM   33  C   UNL     1      25.774  45.857  51.236  1.00  0.00     0.011 A 
BRANCH  31  34
HETATM   34  N   UNL     1      27.377  46.223  54.575  1.00  0.00    -0.382 N 
BRANCH  34  35
HETATM   35  C   UNL     1      27.654  47.649  54.818  1.00  0.00     0.118 C 
HETATM   36  C   UNL     1      26.439  48.359  55.402  1.00  0.00     0.026 C 
ENDBRANCH  34  35
BRANCH  34  37
HETATM   37  C   UNL     1      28.449  45.285  54.951  1.00  0.00     0.118 C 
HETATM   38  C   UNL     1      29.486  45.955  55.843  1.00  0.00     0.026 C 
ENDBRANCH  34  37
ENDBRANCH  31  34
ENDBRANCH   1  28
BRANCH   6  39
HETATM   39  O   UNL     1      22.595  42.064  49.157  1.00  0.00    -0.389 OA
HETATM   40  H   UNL     1      22.019  41.544  48.562  1.00  0.00     0.210 HD
ENDBRANCH   6  39
TORSDOF 10
ENDMDL
MODEL 7
REMARK VINA RESULT:      -7.8      2.386      6.084
REMARK  10 active torsions:
REMARK  status: ('A' for Active; 'I' for Inactive)
REMARK    1  A    between atoms: C_2  and  N_3 
REMARK    2  A    between atoms: N_3  and  C_4 
REMARK    3  A    between atoms: N_3  and  C_37 
REMARK    4  A    between atoms: C_7  and  C_8 
REMARK    5  A    between atoms: N_9  and  C_11 
REMARK    6  A    between atoms: C_11  and  C_12 
REMARK       I    between atoms: C_12  and  N_13 
REMARK    7  A    between atoms: N_13  and  C_14 
REMARK    8  A    between atoms: C_20  and  C_21 
REMARK    9  A    between atoms: C_21  and  O_22 
REMARK   10  A    between atoms: C_28  and  O_29 
ROOT
HETATM    1  C   UNL     1      27.341  42.364  50.158  1.00  0.00     0.228 C 
HETATM    2  N   UNL     1      26.330  43.448  49.779  1.00  0.00    -0.054 N 
HETATM    3  H   UNL     1      26.629  43.682  48.826  1.00  0.00     0.281 HD
HETATM    4  C   UNL     1      26.525  44.740  50.528  1.00  0.00     0.239 C 
HETATM    5  C   UNL     1      26.701  44.580  52.030  1.00  0.00     0.066 C 
HETATM    6  C   UNL     1      27.716  43.498  52.393  1.00  0.00     0.065 C 
HETATM    7  C   UNL     1      27.415  42.155  51.686  1.00  0.00     0.055 C 
HETATM    8  C   UNL     1      27.778  43.302  53.920  1.00  0.00     0.038 C 
HETATM    9  C   UNL     1      28.794  42.235  54.325  1.00  0.00     0.003 C 
HETATM   10  C   UNL     1      28.554  40.921  53.593  1.00  0.00     0.001 C 
HETATM   11  C   UNL     1      28.491  41.114  52.079  1.00  0.00     0.010 C 
ENDROOT
BRANCH   2  12
HETATM   12  C   UNL     1      24.866  43.036  49.541  1.00  0.00     0.338 C 
BRANCH  12  13
HETATM   13  C   UNL     1      23.777  44.095  49.715  1.00  0.00     0.248 C 
HETATM   14  N   UNL     1      23.872  45.128  48.799  1.00  0.00    -0.319 N 
HETATM   15  H   UNL     1      24.698  45.195  48.200  1.00  0.00     0.169 HD
HETATM   16  O   UNL     1      22.961  44.004  50.625  1.00  0.00    -0.271 OA
BRANCH  14  17
HETATM   17  C   UNL     1      23.025  46.230  48.702  1.00  0.00     0.094 A 
HETATM   18  S   UNL     1      21.540  46.127  47.899  1.00  0.00    -0.076 SA
HETATM   19  C   UNL     1      21.160  47.756  48.212  1.00  0.00    -0.012 A 
HETATM   20  C   UNL     1      19.853  48.304  47.729  1.00  0.00     0.057 C 
HETATM   21  C   UNL     1      22.160  48.400  48.927  1.00  0.00    -0.030 A 
HETATM   22  C   UNL     1      22.077  49.831  49.369  1.00  0.00     0.050 C 
HETATM   23  C   UNL     1      23.284  47.507  49.187  1.00  0.00     0.080 A 
BRANCH  23  24
HETATM   24  C   UNL     1      24.545  47.806  49.880  1.00  0.00     0.296 C 
HETATM   25  O   UNL     1      24.751  47.444  51.038  1.00  0.00    -0.259 OA
BRANCH  24  26
HETATM   26  O   UNL     1      25.439  48.498  49.126  1.00  0.00    -0.322 OA
HETATM   27  C   UNL     1      26.802  48.354  49.528  1.00  0.00     0.213 C 
ENDBRANCH  24  26
ENDBRANCH  23  24
ENDBRANCH  14  17
ENDBRANCH  12  13
ENDBRANCH   2  12
BRANCH   1  28
HETATM   28  C   UNL     1      27.188  41.124  49.292  1.00  0.00    -0.027 A 
HETATM   29  C   UNL     1      27.737  41.123  48.002  1.00  0.00     0.011 A 
HETATM   30  C   UNL     1      27.664  39.986  47.188  1.00  0.00     0.030 A 
HETATM   31  C   UNL     1      27.031  38.812  47.615  1.00  0.00     0.030 A 
HETATM   32  C   UNL     1      26.451  38.842  48.892  1.00  0.00     0.030 A 
HETATM   33  C   UNL     1      26.525  39.971  49.721  1.00  0.00     0.011 A 
BRANCH  31  34
HETATM   34  N   UNL     1      27.014  37.645  46.856  1.00  0.00    -0.382 N 
BRANCH  34  35
HETATM   35  C   UNL     1      26.738  36.339  47.478  1.00  0.00     0.118 C 
HETATM   36  C   UNL     1      25.394  35.781  47.027  1.00  0.00     0.026 C 
ENDBRANCH  34  35
BRANCH  34  37
HETATM   37  C   UNL     1      27.815  37.615  45.622  1.00  0.00     0.118 C 
HETATM   38  C   UNL     1      29.037  36.719  45.774  1.00  0.00     0.026 C 
ENDBRANCH  34  37
ENDBRANCH  31  34
ENDBRANCH   1  28
BRANCH   6  39
HETATM   39  O   UNL     1      28.986  43.973  51.919  1.00  0.00    -0.389 OA
HETATM   40  H   UNL     1      29.682  43.345  52.196  1.00  0.00     0.210 HD
ENDBRANCH   6  39
TORSDOF 10
ENDMDL
MODEL 8
REMARK VINA RESULT:      -7.8      2.196      3.089
REMARK  10 active torsions:
REMARK  status: ('A' for Active; 'I' for Inactive)
REMARK    1  A    between atoms: C_2  and  N_3 
REMARK    2  A    between atoms: N_3  and  C_4 
REMARK    3  A    between atoms: N_3  and  C_37 
REMARK    4  A    between atoms: C_7  and  C_8 
REMARK    5  A    between atoms: N_9  and  C_11 
REMARK    6  A    between atoms: C_11  and  C_12 
REMARK       I    between atoms: C_12  and  N_13 
REMARK    7  A    between atoms: N_13  and  C_14 
REMARK    8  A    between atoms: C_20  and  C_21 
REMARK    9  A    between atoms: C_21  and  O_22 
REMARK   10  A    between atoms: C_28  and  O_29 
ROOT
HETATM    1  C   UNL     1      26.009  42.584  51.146  1.00  0.00     0.228 C 
HETATM    2  N   UNL     1      25.096  43.256  50.118  1.00  0.00    -0.054 N 
HETATM    3  H   UNL     1      24.295  43.524  50.700  1.00  0.00     0.281 HD
HETATM    4  C   UNL     1      24.494  42.293  49.128  1.00  0.00     0.239 C 
HETATM    5  C   UNL     1      25.487  41.321  48.509  1.00  0.00     0.066 C 
HETATM    6  C   UNL     1      26.388  40.656  49.547  1.00  0.00     0.065 C 
HETATM    7  C   UNL     1      27.072  41.688  50.473  1.00  0.00     0.055 C 
HETATM    8  C   UNL     1      27.441  39.766  48.861  1.00  0.00     0.038 C 
HETATM    9  C   UNL     1      28.356  39.070  49.868  1.00  0.00     0.003 C 
HETATM   10  C   UNL     1      28.992  40.063  50.832  1.00  0.00     0.001 C 
HETATM   11  C   UNL     1      27.948  40.947  51.513  1.00  0.00     0.010 C 
ENDROOT
BRANCH   2  12
HETATM   12  C   UNL     1      25.517  44.620  49.540  1.00  0.00     0.338 C 
BRANCH  12  13
HETATM   13  C   UNL     1      24.642  45.837  49.840  1.00  0.00     0.248 C 
HETATM   14  N   UNL     1      23.815  46.183  48.786  1.00  0.00    -0.319 N 
HETATM   15  H   UNL     1      23.939  45.731  47.878  1.00  0.00     0.169 HD
HETATM   16  O   UNL     1      24.746  46.429  50.907  1.00  0.00    -0.271 OA
BRANCH  14  17
HETATM   17  C   UNL     1      22.904  47.237  48.761  1.00  0.00     0.094 A 
HETATM   18  S   UNL     1      23.383  48.820  49.113  1.00  0.00    -0.076 SA
HETATM   19  C   UNL     1      21.816  49.440  48.878  1.00  0.00    -0.012 A 
HETATM   20  C   UNL     1      21.582  50.909  49.040  1.00  0.00     0.057 C 
HETATM   21  C   UNL     1      20.907  48.449  48.532  1.00  0.00    -0.030 A 
HETATM   22  C   UNL     1      19.461  48.715  48.233  1.00  0.00     0.050 C 
HETATM   23  C   UNL     1      21.542  47.136  48.499  1.00  0.00     0.080 A 
BRANCH  23  24
HETATM   24  C   UNL     1      20.927  45.833  48.210  1.00  0.00     0.296 C 
HETATM   25  O   UNL     1      20.071  45.342  48.944  1.00  0.00    -0.259 OA
BRANCH  24  26
HETATM   26  O   UNL     1      21.384  45.247  47.072  1.00  0.00    -0.322 OA
HETATM   27  C   UNL     1      20.953  45.869  45.861  1.00  0.00     0.213 C 
ENDBRANCH  24  26
ENDBRANCH  23  24
ENDBRANCH  14  17
ENDBRANCH  12  13
ENDBRANCH   2  12
BRANCH   1  28
HETATM   28  C   UNL     1      26.492  43.570  52.197  1.00  0.00    -0.027 A 
HETATM   29  C   UNL     1      25.584  44.046  53.153  1.00  0.00     0.011 A 
HETATM   30  C   UNL     1      25.997  44.915  54.170  1.00  0.00     0.030 A 
HETATM   31  C   UNL     1      27.321  45.358  54.270  1.00  0.00     0.030 A 
HETATM   32  C   UNL     1      28.210  44.907  53.282  1.00  0.00     0.030 A 
HETATM   33  C   UNL     1      27.812  44.028  52.264  1.00  0.00     0.011 A 
BRANCH  31  34
HETATM   34  N   UNL     1      27.773  46.159  55.315  1.00  0.00    -0.382 N 
BRANCH  34  35
HETATM   35  C   UNL     1      27.767  47.628  55.204  1.00  0.00     0.118 C 
HETATM   36  C   UNL     1      26.370  48.196  55.419  1.00  0.00     0.026 C 
ENDBRANCH  34  35
BRANCH  34  37
HETATM   37  C   UNL     1      28.763  45.587  56.242  1.00  0.00     0.118 C 
HETATM   38  C   UNL     1      28.676  46.234  57.618  1.00  0.00     0.026 C 
ENDBRANCH  34  37
ENDBRANCH  31  34
ENDBRANCH   1  28
BRANCH   6  39
HETATM   39  O   UNL     1      25.524  39.839  50.354  1.00  0.00    -0.389 OA
HETATM   40  H   UNL     1      25.901  39.773  51.253  1.00  0.00     0.210 HD
ENDBRANCH   6  39
TORSDOF 10
ENDMDL
MODEL 9
REMARK VINA RESULT:      -7.7     12.289     15.085
REMARK  10 active torsions:
REMARK  status: ('A' for Active; 'I' for Inactive)
REMARK    1  A    between atoms: C_2  and  N_3 
REMARK    2  A    between atoms: N_3  and  C_4 
REMARK    3  A    between atoms: N_3  and  C_37 
REMARK    4  A    between atoms: C_7  and  C_8 
REMARK    5  A    between atoms: N_9  and  C_11 
REMARK    6  A    between atoms: C_11  and  C_12 
REMARK       I    between atoms: C_12  and  N_13 
REMARK    7  A    between atoms: N_13  and  C_14 
REMARK    8  A    between atoms: C_20  and  C_21 
REMARK    9  A    between atoms: C_21  and  O_22 
REMARK   10  A    between atoms: C_28  and  O_29 
ROOT
HETATM    1  C   UNL     1      36.957  51.683  42.630  1.00  0.00     0.228 C 
HETATM    2  N   UNL     1      35.602  51.110  43.049  1.00  0.00    -0.054 N 
HETATM    3  H   UNL     1      35.875  50.464  43.798  1.00  0.00     0.281 HD
HETATM    4  C   UNL     1      34.988  50.200  42.017  1.00  0.00     0.239 C 
HETATM    5  C   UNL     1      34.995  50.755  40.601  1.00  0.00     0.066 C 
HETATM    6  C   UNL     1      36.355  51.319  40.196  1.00  0.00     0.065 C 
HETATM    7  C   UNL     1      36.899  52.332  41.230  1.00  0.00     0.055 C 
HETATM    8  C   UNL     1      36.281  51.962  38.798  1.00  0.00     0.038 C 
HETATM    9  C   UNL     1      37.629  52.527  38.349  1.00  0.00     0.003 C 
HETATM   10  C   UNL     1      38.212  53.481  39.383  1.00  0.00     0.001 C 
HETATM   11  C   UNL     1      38.286  52.845  40.770  1.00  0.00     0.010 C 
ENDROOT
BRANCH   2  12
HETATM   12  C   UNL     1      34.613  52.028  43.792  1.00  0.00     0.338 C 
BRANCH  12  13
HETATM   13  C   UNL     1      33.124  51.682  43.743  1.00  0.00     0.248 C 
HETATM   14  N   UNL     1      32.568  51.855  42.488  1.00  0.00    -0.319 N 
HETATM   15  H   UNL     1      33.111  52.317  41.755  1.00  0.00     0.169 HD
HETATM   16  O   UNL     1      32.533  51.339  44.759  1.00  0.00    -0.271 OA
BRANCH  14  17
HETATM   17  C   UNL     1      31.242  51.618  42.130  1.00  0.00     0.094 A 
HETATM   18  S   UNL     1      30.119  52.878  42.038  1.00  0.00    -0.076 SA
HETATM   19  C   UNL     1      28.856  51.835  41.577  1.00  0.00    -0.012 A 
HETATM   20  C   UNL     1      27.500  52.408  41.308  1.00  0.00     0.057 C 
HETATM   21  C   UNL     1      29.272  50.513  41.492  1.00  0.00    -0.030 A 
HETATM   22  C   UNL     1      28.376  49.384  41.075  1.00  0.00     0.050 C 
HETATM   23  C   UNL     1      30.678  50.377  41.856  1.00  0.00     0.080 A 
BRANCH  23  24
HETATM   24  C   UNL     1      31.488  49.151  41.924  1.00  0.00     0.296 C 
HETATM   25  O   UNL     1      31.684  48.562  42.986  1.00  0.00    -0.259 OA
BRANCH  24  26
HETATM   26  O   UNL     1      31.976  48.744  40.723  1.00  0.00    -0.322 OA
HETATM   27  C   UNL     1      31.496  47.475  40.279  1.00  0.00     0.213 C 
ENDBRANCH  24  26
ENDBRANCH  23  24
ENDBRANCH  14  17
ENDBRANCH  12  13
ENDBRANCH   2  12
BRANCH   1  28
HETATM   28  C   UNL     1      37.596  52.491  43.747  1.00  0.00    -0.027 A 
HETATM   29  C   UNL     1      38.580  51.891  44.545  1.00  0.00     0.011 A 
HETATM   30  C   UNL     1      39.232  52.614  45.552  1.00  0.00     0.030 A 
HETATM   31  C   UNL     1      38.921  53.952  45.819  1.00  0.00     0.030 A 
HETATM   32  C   UNL     1      37.905  54.527  45.040  1.00  0.00     0.030 A 
HETATM   33  C   UNL     1      37.252  53.818  44.022  1.00  0.00     0.011 A 
BRANCH  31  34
HETATM   34  N   UNL     1      39.608  54.713  46.761  1.00  0.00    -0.382 N 
BRANCH  34  35
HETATM   35  C   UNL     1      40.387  55.896  46.360  1.00  0.00     0.118 C 
HETATM   36  C   UNL     1      41.322  55.579  45.200  1.00  0.00     0.026 C 
ENDBRANCH  34  35
BRANCH  34  37
HETATM   37  C   UNL     1      40.039  54.047  48.001  1.00  0.00     0.118 C 
HETATM   38  C   UNL     1      38.862  53.791  48.933  1.00  0.00     0.026 C 
ENDBRANCH  34  37
ENDBRANCH  31  34
ENDBRANCH   1  28
BRANCH   6  39
HETATM   39  O   UNL     1      37.253  50.198  40.159  1.00  0.00    -0.389 OA
HETATM   40  H   UNL     1      37.767  50.231  39.330  1.00  0.00     0.210 HD
ENDBRANCH   6  39
TORSDOF 10
ENDMDL
MODEL 10
REMARK VINA RESULT:      -7.6      2.060      2.944
REMARK  10 active torsions:
REMARK  status: ('A' for Active; 'I' for Inactive)
REMARK    1  A    between atoms: C_2  and  N_3 
REMARK    2  A    between atoms: N_3  and  C_4 
REMARK    3  A    between atoms: N_3  and  C_37 
REMARK    4  A    between atoms: C_7  and  C_8 
REMARK    5  A    between atoms: N_9  and  C_11 
REMARK    6  A    between atoms: C_11  and  C_12 
REMARK       I    between atoms: C_12  and  N_13 
REMARK    7  A    between atoms: N_13  and  C_14 
REMARK    8  A    between atoms: C_20  and  C_21 
REMARK    9  A    between atoms: C_21  and  O_22 
REMARK   10  A    between atoms: C_28  and  O_29 
ROOT
HETATM    1  C   UNL     1      25.622  42.243  49.936  1.00  0.00     0.228 C 
HETATM    2  N   UNL     1      24.516  42.970  49.170  1.00  0.00    -0.054 N 
HETATM    3  H   UNL     1      23.779  43.029  49.881  1.00  0.00     0.281 HD
HETATM    4  C   UNL     1      23.882  42.134  48.089  1.00  0.00     0.239 C 
HETATM    5  C   UNL     1      24.872  41.418  47.182  1.00  0.00     0.066 C 
HETATM    6  C   UNL     1      25.968  40.694  47.960  1.00  0.00     0.065 C 
HETATM    7  C   UNL     1      26.667  41.619  48.984  1.00  0.00     0.055 C 
HETATM    8  C   UNL     1      27.000  40.077  46.997  1.00  0.00     0.038 C 
HETATM    9  C   UNL     1      28.109  39.330  47.739  1.00  0.00     0.003 C 
HETATM   10  C   UNL     1      28.769  40.205  48.796  1.00  0.00     0.001 C 
HETATM   11  C   UNL     1      27.746  40.818  49.751  1.00  0.00     0.010 C 
ENDROOT
BRANCH   2  12
HETATM   12  C   UNL     1      24.716  44.457  48.822  1.00  0.00     0.338 C 
BRANCH  12  13
HETATM   13  C   UNL     1      23.505  45.262  48.350  1.00  0.00     0.248 C 
HETATM   14  N   UNL     1      23.364  46.468  49.015  1.00  0.00    -0.319 N 
HETATM   15  H   UNL     1      23.948  46.666  49.830  1.00  0.00     0.169 HD
HETATM   16  O   UNL     1      22.749  44.808  47.501  1.00  0.00    -0.271 OA
BRANCH  14  17
HETATM   17  C   UNL     1      22.367  47.418  48.802  1.00  0.00     0.094 A 
HETATM   18  S   UNL     1      20.731  46.993  48.830  1.00  0.00    -0.076 SA
HETATM   19  C   UNL     1      20.223  48.586  48.514  1.00  0.00    -0.012 A 
HETATM   20  C   UNL     1      18.757  48.880  48.432  1.00  0.00     0.057 C 
HETATM   21  C   UNL     1      21.292  49.461  48.378  1.00  0.00    -0.030 A 
HETATM   22  C   UNL     1      21.137  50.932  48.129  1.00  0.00     0.050 C 
HETATM   23  C   UNL     1      22.566  48.763  48.512  1.00  0.00     0.080 A 
BRANCH  23  24
HETATM   24  C   UNL     1      23.924  49.316  48.404  1.00  0.00     0.296 C 
HETATM   25  O   UNL     1      24.293  49.942  47.410  1.00  0.00    -0.259 OA
BRANCH  24  26
HETATM   26  O   UNL     1      24.706  49.077  49.490  1.00  0.00    -0.322 OA
HETATM   27  C   UNL     1      26.088  48.867  49.200  1.00  0.00     0.213 C 
ENDBRANCH  24  26
ENDBRANCH  23  24
ENDBRANCH  14  17
ENDBRANCH  12  13
ENDBRANCH   2  12
BRANCH   1  28
HETATM   28  C   UNL     1      26.146  43.076  51.094  1.00  0.00    -0.027 A 
HETATM   29  C   UNL     1      27.456  43.571  51.040  1.00  0.00     0.011 A 
HETATM   30  C   UNL     1      27.963  44.385  52.060  1.00  0.00     0.030 A 
HETATM   31  C   UNL     1      27.197  44.725  53.181  1.00  0.00     0.030 A 
HETATM   32  C   UNL     1      25.902  44.188  53.243  1.00  0.00     0.030 A 
HETATM   33  C   UNL     1      25.379  43.380  52.223  1.00  0.00     0.011 A 
BRANCH  31  34
HETATM   34  N   UNL     1      27.651  45.595  54.170  1.00  0.00    -0.382 N 
BRANCH  34  35
HETATM   35  C   UNL     1      28.881  45.308  54.927  1.00  0.00     0.118 C 
HETATM   36  C   UNL     1      28.823  45.904  56.327  1.00  0.00     0.026 C 
ENDBRANCH  34  35
BRANCH  34  37
HETATM   37  C   UNL     1      26.657  46.441  54.850  1.00  0.00     0.118 C 
HETATM   38  C   UNL     1      26.107  47.512  53.917  1.00  0.00     0.026 C 
ENDBRANCH  34  37
ENDBRANCH  31  34
ENDBRANCH   1  28
BRANCH   6  39
HETATM   39  O   UNL     1      25.308  39.646  48.689  1.00  0.00    -0.389 OA
HETATM   40  H   UNL     1      24.687  40.047  49.327  1.00  0.00     0.210 HD
ENDBRANCH   6  39
TORSDOF 10
ENDMDL
