MODEL 1
REMARK VINA RESULT:      -9.2      0.000      0.000
REMARK  6 active torsions:
REMARK  status: ('A' for Active; 'I' for Inactive)
REMARK    1  A    between atoms: C_3  and  C_4 
REMARK    2  A    between atoms: C_5  and  C_6 
REMARK    3  A    between atoms: C_8  and  N_9 
REMARK       I    between atoms: N_9  and  C_10 
REMARK    4  A    between atoms: C_10  and  C_11 
REMARK    5  A    between atoms: C_11  and  C_12 
REMARK    6  A    between atoms: C_15  and  O_16 
ROOT
HETATM    1  C   UNL     1      25.281  44.945  50.501  1.00  0.00     0.020 A 
HETATM    2  C   UNL     1      26.524  44.958  51.147  1.00  0.00     0.050 A 
HETATM    3  C   UNL     1      27.093  43.769  51.606  1.00  0.00     0.036 A 
HETATM    4  C   UNL     1      26.407  42.565  51.402  1.00  0.00     0.029 A 
HETATM    5  C   UNL     1      25.175  42.547  50.742  1.00  0.00     0.004 A 
HETATM    6  C   UNL     1      24.610  43.741  50.293  1.00  0.00     0.021 A 
ENDROOT
BRANCH   3   7
HETATM    7  N   UNL     1      28.310  43.709  52.315  1.00  0.00    -0.327 N 
HETATM    8  C   UNL     1      28.511  43.229  53.600  1.00  0.00     0.226 C 
HETATM    9  O   UNL     1      27.640  42.905  54.402  1.00  0.00    -0.273 OA
HETATM   10  H   UNL     1      29.129  44.032  51.814  1.00  0.00     0.169 HD
BRANCH   8  11
HETATM   11  C   UNL     1      29.984  43.101  53.958  1.00  0.00     0.141 C 
BRANCH  11  12
HETATM   12  C   UNL     1      30.298  43.783  55.267  1.00  0.00    -0.049 A 
HETATM   13  C   UNL     1      31.147  43.184  56.207  1.00  0.00     0.010 A 
HETATM   14  C   UNL     1      31.388  43.805  57.434  1.00  0.00     0.037 A 
HETATM   15  C   UNL     1      30.781  45.021  57.724  1.00  0.00     0.065 A 
HETATM   16  C   UNL     1      29.940  45.636  56.803  1.00  0.00     0.037 A 
HETATM   17  C   UNL     1      29.700  45.015  55.576  1.00  0.00     0.010 A 
BRANCH  15  18
HETATM   18  O   UNL     1      31.037  45.585  58.938  1.00  0.00    -0.361 OA
HETATM   19  H   UNL     1      31.794  46.187  58.844  1.00  0.00     0.217 HD
ENDBRANCH  15  18
ENDBRANCH  11  12
ENDBRANCH   8  11
ENDBRANCH   3   7
BRANCH   1  20
HETATM   20  C   UNL     1      24.686  46.180  50.095  1.00  0.00    -0.060 C 
HETATM   21  C   UNL     1      24.193  47.202  49.701  1.00  0.00    -0.041 C 
BRANCH  21  22
HETATM   22  C   UNL     1      23.609  48.395  49.180  1.00  0.00     0.110 A 
HETATM   23  C   UNL     1      24.403  49.431  48.707  1.00  0.00     0.041 A 
HETATM   24  C   UNL     1      23.774  50.580  48.238  1.00  0.00     0.004 A 
HETATM   25  C   UNL     1      22.385  50.651  48.262  1.00  0.00     0.019 A 
HETATM   26  C   UNL     1      21.679  49.563  48.753  1.00  0.00     0.118 A 
HETATM   27  N   UNL     1      22.260  48.434  49.213  1.00  0.00    -0.252 NA
ENDBRANCH  21  22
ENDBRANCH   1  20
TORSDOF 6
ENDMDL
MODEL 2
REMARK VINA RESULT:      -9.1      2.608      4.752
REMARK  6 active torsions:
REMARK  status: ('A' for Active; 'I' for Inactive)
REMARK    1  A    between atoms: C_3  and  C_4 
REMARK    2  A    between atoms: C_5  and  C_6 
REMARK    3  A    between atoms: C_8  and  N_9 
REMARK       I    between atoms: N_9  and  C_10 
REMARK    4  A    between atoms: C_10  and  C_11 
REMARK    5  A    between atoms: C_11  and  C_12 
REMARK    6  A    between atoms: C_15  and  O_16 
ROOT
HETATM    1  C   UNL     1      24.237  49.373  48.783  1.00  0.00     0.020 A 
HETATM    2  C   UNL     1      24.307  48.289  49.667  1.00  0.00     0.050 A 
HETATM    3  C   UNL     1      25.542  47.733  50.005  1.00  0.00     0.036 A 
HETATM    4  C   UNL     1      26.707  48.281  49.455  1.00  0.00     0.029 A 
HETATM    5  C   UNL     1      26.640  49.375  48.586  1.00  0.00     0.004 A 
HETATM    6  C   UNL     1      25.402  49.919  48.248  1.00  0.00     0.021 A 
ENDROOT
BRANCH   3   7
HETATM    7  N   UNL     1      25.688  46.606  50.841  1.00  0.00    -0.327 N 
HETATM    8  C   UNL     1      25.633  46.574  52.225  1.00  0.00     0.226 C 
HETATM    9  O   UNL     1      25.592  47.545  52.976  1.00  0.00    -0.273 OA
HETATM   10  H   UNL     1      25.824  45.721  50.368  1.00  0.00     0.169 HD
BRANCH   8  11
HETATM   11  C   UNL     1      25.601  45.158  52.781  1.00  0.00     0.141 C 
BRANCH  11  12
HETATM   12  C   UNL     1      26.966  44.715  53.247  1.00  0.00    -0.049 A 
HETATM   13  C   UNL     1      27.756  43.868  52.459  1.00  0.00     0.010 A 
HETATM   14  C   UNL     1      28.996  43.426  52.926  1.00  0.00     0.037 A 
HETATM   15  C   UNL     1      29.446  43.828  54.178  1.00  0.00     0.065 A 
HETATM   16  C   UNL     1      28.680  44.673  54.973  1.00  0.00     0.037 A 
HETATM   17  C   UNL     1      27.441  45.114  54.506  1.00  0.00     0.010 A 
BRANCH  15  18
HETATM   18  O   UNL     1      30.657  43.363  54.597  1.00  0.00    -0.361 OA
HETATM   19  H   UNL     1      30.617  42.392  54.634  1.00  0.00     0.217 HD
ENDBRANCH  15  18
ENDBRANCH  11  12
ENDBRANCH   8  11
ENDBRANCH   3   7
BRANCH   1  20
HETATM   20  C   UNL     1      22.958  49.888  48.401  1.00  0.00    -0.060 C 
HETATM   21  C   UNL     1      21.876  50.334  48.133  1.00  0.00    -0.041 C 
BRANCH  21  22
HETATM   22  C   UNL     1      20.588  50.887  47.866  1.00  0.00     0.110 A 
HETATM   23  C   UNL     1      20.095  51.942  48.621  1.00  0.00     0.041 A 
HETATM   24  C   UNL     1      18.819  52.418  48.330  1.00  0.00     0.004 A 
HETATM   25  C   UNL     1      18.090  51.823  47.305  1.00  0.00     0.019 A 
HETATM   26  C   UNL     1      18.671  50.774  46.608  1.00  0.00     0.118 A 
HETATM   27  N   UNL     1      19.906  50.291  46.865  1.00  0.00    -0.252 NA
ENDBRANCH  21  22
ENDBRANCH   1  20
TORSDOF 6
ENDMDL
MODEL 3
REMARK VINA RESULT:      -8.8      3.243      9.762
REMARK  6 active torsions:
REMARK  status: ('A' for Active; 'I' for Inactive)
REMARK    1  A    between atoms: C_3  and  C_4 
REMARK    2  A    between atoms: C_5  and  C_6 
REMARK    3  A    between atoms: C_8  and  N_9 
REMARK       I    between atoms: N_9  and  C_10 
REMARK    4  A    between atoms: C_10  and  C_11 
REMARK    5  A    between atoms: C_11  and  C_12 
REMARK    6  A    between atoms: C_15  and  O_16 
ROOT
HETATM    1  C   UNL     1      26.169  45.256  52.356  1.00  0.00     0.020 A 
HETATM    2  C   UNL     1      26.076  46.529  51.781  1.00  0.00     0.050 A 
HETATM    3  C   UNL     1      25.138  46.785  50.781  1.00  0.00     0.036 A 
HETATM    4  C   UNL     1      24.285  45.753  50.369  1.00  0.00     0.029 A 
HETATM    5  C   UNL     1      24.363  44.486  50.955  1.00  0.00     0.004 A 
HETATM    6  C   UNL     1      25.309  44.237  51.948  1.00  0.00     0.021 A 
ENDROOT
BRANCH   3   7
HETATM    7  N   UNL     1      25.024  48.023  50.114  1.00  0.00    -0.327 N 
HETATM    8  C   UNL     1      25.898  48.557  49.179  1.00  0.00     0.226 C 
HETATM    9  O   UNL     1      27.000  48.112  48.873  1.00  0.00    -0.273 OA
HETATM   10  H   UNL     1      24.197  48.566  50.329  1.00  0.00     0.169 HD
BRANCH   8  11
HETATM   11  C   UNL     1      25.344  49.800  48.498  1.00  0.00     0.141 C 
BRANCH  11  12
HETATM   12  C   UNL     1      23.835  49.820  48.524  1.00  0.00    -0.049 A 
HETATM   13  C   UNL     1      23.090  48.779  47.954  1.00  0.00     0.010 A 
HETATM   14  C   UNL     1      21.695  48.837  47.943  1.00  0.00     0.037 A 
HETATM   15  C   UNL     1      21.044  49.932  48.497  1.00  0.00     0.065 A 
HETATM   16  C   UNL     1      21.764  50.973  49.073  1.00  0.00     0.037 A 
HETATM   17  C   UNL     1      23.159  50.915  49.085  1.00  0.00     0.010 A 
BRANCH  15  18
HETATM   18  O   UNL     1      19.682  49.951  48.453  1.00  0.00    -0.361 OA
HETATM   19  H   UNL     1      19.374  49.098  48.101  1.00  0.00     0.217 HD
ENDBRANCH  15  18
ENDBRANCH  11  12
ENDBRANCH   8  11
ENDBRANCH   3   7
BRANCH   1  20
HETATM   20  C   UNL     1      27.180  44.997  53.335  1.00  0.00    -0.060 C 
HETATM   21  C   UNL     1      28.067  44.790  54.117  1.00  0.00    -0.041 C 
BRANCH  21  22
HETATM   22  C   UNL     1      29.158  44.563  55.008  1.00  0.00     0.110 A 
HETATM   23  C   UNL     1      29.920  43.406  54.923  1.00  0.00     0.041 A 
HETATM   24  C   UNL     1      30.953  43.231  55.839  1.00  0.00     0.004 A 
HETATM   25  C   UNL     1      31.181  44.210  56.800  1.00  0.00     0.019 A 
HETATM   26  C   UNL     1      30.366  45.332  56.803  1.00  0.00     0.118 A 
HETATM   27  N   UNL     1      29.357  45.532  55.927  1.00  0.00    -0.252 NA
ENDBRANCH  21  22
ENDBRANCH   1  20
TORSDOF 6
ENDMDL
MODEL 4
REMARK VINA RESULT:      -8.7      4.715      8.762
REMARK  6 active torsions:
REMARK  status: ('A' for Active; 'I' for Inactive)
REMARK    1  A    between atoms: C_3  and  C_4 
REMARK    2  A    between atoms: C_5  and  C_6 
REMARK    3  A    between atoms: C_8  and  N_9 
REMARK       I    between atoms: N_9  and  C_10 
REMARK    4  A    between atoms: C_10  and  C_11 
REMARK    5  A    between atoms: C_11  and  C_12 
REMARK    6  A    between atoms: C_15  and  O_16 
ROOT
HETATM    1  C   UNL     1      27.946  43.408  52.018  1.00  0.00     0.020 A 
HETATM    2  C   UNL     1      28.018  42.188  51.333  1.00  0.00     0.050 A 
HETATM    3  C   UNL     1      27.272  41.987  50.170  1.00  0.00     0.036 A 
HETATM    4  C   UNL     1      26.461  43.025  49.696  1.00  0.00     0.029 A 
HETATM    5  C   UNL     1      26.402  44.250  50.368  1.00  0.00     0.004 A 
HETATM    6  C   UNL     1      27.144  44.440  51.533  1.00  0.00     0.021 A 
ENDROOT
BRANCH   3   7
HETATM    7  N   UNL     1      27.247  40.769  49.460  1.00  0.00    -0.327 N 
HETATM    8  C   UNL     1      27.811  40.507  48.221  1.00  0.00     0.226 C 
HETATM    9  O   UNL     1      28.308  41.330  47.457  1.00  0.00    -0.273 OA
HETATM   10  H   UNL     1      26.784  39.997  49.924  1.00  0.00     0.169 HD
BRANCH   8  11
HETATM   11  C   UNL     1      27.791  39.028  47.865  1.00  0.00     0.141 C 
BRANCH  11  12
HETATM   12  C   UNL     1      28.383  38.185  48.968  1.00  0.00    -0.049 A 
HETATM   13  C   UNL     1      27.675  37.101  49.504  1.00  0.00     0.010 A 
HETATM   14  C   UNL     1      28.215  36.360  50.558  1.00  0.00     0.037 A 
HETATM   15  C   UNL     1      29.458  36.702  51.077  1.00  0.00     0.065 A 
HETATM   16  C   UNL     1      30.179  37.771  50.555  1.00  0.00     0.037 A 
HETATM   17  C   UNL     1      29.639  38.510  49.502  1.00  0.00     0.010 A 
BRANCH  15  18
HETATM   18  O   UNL     1      29.940  35.959  52.113  1.00  0.00    -0.361 OA
HETATM   19  H   UNL     1      30.908  35.917  52.036  1.00  0.00     0.217 HD
ENDBRANCH  15  18
ENDBRANCH  11  12
ENDBRANCH   8  11
ENDBRANCH   3   7
BRANCH   1  20
HETATM   20  C   UNL     1      28.669  43.571  53.241  1.00  0.00    -0.060 C 
HETATM   21  C   UNL     1      29.274  43.764  54.261  1.00  0.00    -0.041 C 
BRANCH  21  22
HETATM   22  C   UNL     1      29.981  44.047  55.467  1.00  0.00     0.110 A 
HETATM   23  C   UNL     1      30.924  43.160  55.966  1.00  0.00     0.041 A 
HETATM   24  C   UNL     1      31.560  43.481  57.162  1.00  0.00     0.004 A 
HETATM   25  C   UNL     1      31.229  44.667  57.810  1.00  0.00     0.019 A 
HETATM   26  C   UNL     1      30.274  45.489  57.230  1.00  0.00     0.118 A 
HETATM   27  N   UNL     1      29.641  45.206  56.071  1.00  0.00    -0.252 NA
ENDBRANCH  21  22
ENDBRANCH   1  20
TORSDOF 6
ENDMDL
MODEL 5
REMARK VINA RESULT:      -8.7      3.859     10.474
REMARK  6 active torsions:
REMARK  status: ('A' for Active; 'I' for Inactive)
REMARK    1  A    between atoms: C_3  and  C_4 
REMARK    2  A    between atoms: C_5  and  C_6 
REMARK    3  A    between atoms: C_8  and  N_9 
REMARK       I    between atoms: N_9  and  C_10 
REMARK    4  A    between atoms: C_10  and  C_11 
REMARK    5  A    between atoms: C_11  and  C_12 
REMARK    6  A    between atoms: C_15  and  O_16 
ROOT
HETATM    1  C   UNL     1      24.942  45.712  50.296  1.00  0.00     0.020 A 
HETATM    2  C   UNL     1      24.599  47.068  50.377  1.00  0.00     0.050 A 
HETATM    3  C   UNL     1      23.574  47.585  49.583  1.00  0.00     0.036 A 
HETATM    4  C   UNL     1      22.890  46.726  48.713  1.00  0.00     0.029 A 
HETATM    5  C   UNL     1      23.219  45.369  48.644  1.00  0.00     0.004 A 
HETATM    6  C   UNL     1      24.250  44.862  49.435  1.00  0.00     0.021 A 
ENDROOT
BRANCH   3   7
HETATM    7  N   UNL     1      23.211  48.947  49.565  1.00  0.00    -0.327 N 
HETATM    8  C   UNL     1      23.440  49.865  48.552  1.00  0.00     0.226 C 
HETATM    9  O   UNL     1      24.128  49.690  47.551  1.00  0.00    -0.273 OA
HETATM   10  H   UNL     1      22.704  49.279  50.377  1.00  0.00     0.169 HD
BRANCH   8  11
HETATM   11  C   UNL     1      22.709  51.181  48.773  1.00  0.00     0.141 C 
BRANCH  11  12
HETATM   12  C   UNL     1      21.212  51.001  48.708  1.00  0.00    -0.049 A 
HETATM   13  C   UNL     1      20.407  51.248  49.828  1.00  0.00     0.010 A 
HETATM   14  C   UNL     1      19.029  51.029  49.766  1.00  0.00     0.037 A 
HETATM   15  C   UNL     1      18.456  50.564  48.589  1.00  0.00     0.065 A 
HETATM   16  C   UNL     1      19.236  50.319  47.464  1.00  0.00     0.037 A 
HETATM   17  C   UNL     1      20.613  50.538  47.526  1.00  0.00     0.010 A 
BRANCH  15  18
HETATM   18  O   UNL     1      17.109  50.354  48.578  1.00  0.00    -0.361 OA
HETATM   19  H   UNL     1      16.838  50.050  49.461  1.00  0.00     0.217 HD
ENDBRANCH  15  18
ENDBRANCH  11  12
ENDBRANCH   8  11
ENDBRANCH   3   7
BRANCH   1  20
HETATM   20  C   UNL     1      26.037  45.216  51.071  1.00  0.00    -0.060 C 
HETATM   21  C   UNL     1      26.921  44.794  51.765  1.00  0.00    -0.041 C 
BRANCH  21  22
HETATM   22  C   UNL     1      27.933  44.279  52.629  1.00  0.00     0.110 A 
HETATM   23  C   UNL     1      28.809  43.294  52.195  1.00  0.00     0.041 A 
HETATM   24  C   UNL     1      29.756  42.814  53.095  1.00  0.00     0.004 A 
HETATM   25  C   UNL     1      29.789  43.331  54.386  1.00  0.00     0.019 A 
HETATM   26  C   UNL     1      28.872  44.314  54.724  1.00  0.00     0.118 A 
HETATM   27  N   UNL     1      27.943  44.802  53.874  1.00  0.00    -0.252 NA
ENDBRANCH  21  22
ENDBRANCH   1  20
TORSDOF 6
ENDMDL
MODEL 6
REMARK VINA RESULT:      -8.7      2.733      8.812
REMARK  6 active torsions:
REMARK  status: ('A' for Active; 'I' for Inactive)
REMARK    1  A    between atoms: C_3  and  C_4 
REMARK    2  A    between atoms: C_5  and  C_6 
REMARK    3  A    between atoms: C_8  and  N_9 
REMARK       I    between atoms: N_9  and  C_10 
REMARK    4  A    between atoms: C_10  and  C_11 
REMARK    5  A    between atoms: C_11  and  C_12 
REMARK    6  A    between atoms: C_15  and  O_16 
ROOT
HETATM    1  C   UNL     1      28.272  42.933  52.483  1.00  0.00     0.020 A 
HETATM    2  C   UNL     1      27.312  43.829  51.997  1.00  0.00     0.050 A 
HETATM    3  C   UNL     1      26.615  43.547  50.821  1.00  0.00     0.036 A 
HETATM    4  C   UNL     1      26.884  42.351  50.142  1.00  0.00     0.029 A 
HETATM    5  C   UNL     1      27.829  41.448  50.636  1.00  0.00     0.004 A 
HETATM    6  C   UNL     1      28.527  41.741  51.807  1.00  0.00     0.021 A 
ENDROOT
BRANCH   3   7
HETATM    7  N   UNL     1      25.677  44.425  50.239  1.00  0.00    -0.327 N 
HETATM    8  C   UNL     1      24.846  45.321  50.893  1.00  0.00     0.226 C 
HETATM    9  O   UNL     1      24.675  45.405  52.106  1.00  0.00    -0.273 OA
HETATM   10  H   UNL     1      25.629  44.411  49.228  1.00  0.00     0.169 HD
BRANCH   8  11
HETATM   11  C   UNL     1      24.135  46.269  49.940  1.00  0.00     0.141 C 
BRANCH  11  12
HETATM   12  C   UNL     1      25.031  47.408  49.520  1.00  0.00    -0.049 A 
HETATM   13  C   UNL     1      26.416  47.349  49.727  1.00  0.00     0.010 A 
HETATM   14  C   UNL     1      27.226  48.432  49.378  1.00  0.00     0.037 A 
HETATM   15  C   UNL     1      26.655  49.572  48.825  1.00  0.00     0.065 A 
HETATM   16  C   UNL     1      25.285  49.648  48.606  1.00  0.00     0.037 A 
HETATM   17  C   UNL     1      24.475  48.566  48.954  1.00  0.00     0.010 A 
BRANCH  15  18
HETATM   18  O   UNL     1      27.484  50.608  48.510  1.00  0.00    -0.361 OA
HETATM   19  H   UNL     1      28.328  50.242  48.197  1.00  0.00     0.217 HD
ENDBRANCH  15  18
ENDBRANCH  11  12
ENDBRANCH   8  11
ENDBRANCH   3   7
BRANCH   1  20
HETATM   20  C   UNL     1      29.020  43.270  53.655  1.00  0.00    -0.060 C 
HETATM   21  C   UNL     1      29.612  43.596  54.648  1.00  0.00    -0.041 C 
BRANCH  21  22
HETATM   22  C   UNL     1      30.274  44.019  55.838  1.00  0.00     0.110 A 
HETATM   23  C   UNL     1      31.254  43.232  56.428  1.00  0.00     0.041 A 
HETATM   24  C   UNL     1      31.842  43.688  57.605  1.00  0.00     0.004 A 
HETATM   25  C   UNL     1      31.430  44.902  58.144  1.00  0.00     0.019 A 
HETATM   26  C   UNL     1      30.445  45.616  57.479  1.00  0.00     0.118 A 
HETATM   27  N   UNL     1      29.856  45.202  56.336  1.00  0.00    -0.252 NA
ENDBRANCH  21  22
ENDBRANCH   1  20
TORSDOF 6
ENDMDL
MODEL 7
REMARK VINA RESULT:      -8.6      4.094     10.534
REMARK  6 active torsions:
REMARK  status: ('A' for Active; 'I' for Inactive)
REMARK    1  A    between atoms: C_3  and  C_4 
REMARK    2  A    between atoms: C_5  and  C_6 
REMARK    3  A    between atoms: C_8  and  N_9 
REMARK       I    between atoms: N_9  and  C_10 
REMARK    4  A    between atoms: C_10  and  C_11 
REMARK    5  A    between atoms: C_11  and  C_12 
REMARK    6  A    between atoms: C_15  and  O_16 
ROOT
HETATM    1  C   UNL     1      25.848  47.802  49.843  1.00  0.00     0.020 A 
HETATM    2  C   UNL     1      24.513  48.169  49.630  1.00  0.00     0.050 A 
HETATM    3  C   UNL     1      24.203  49.261  48.819  1.00  0.00     0.036 A 
HETATM    4  C   UNL     1      25.244  49.978  48.216  1.00  0.00     0.029 A 
HETATM    5  C   UNL     1      26.576  49.602  48.413  1.00  0.00     0.004 A 
HETATM    6  C   UNL     1      26.878  48.514  49.231  1.00  0.00     0.021 A 
ENDROOT
BRANCH   3   7
HETATM    7  N   UNL     1      22.889  49.726  48.604  1.00  0.00    -0.327 N 
HETATM    8  C   UNL     1      22.182  50.634  49.377  1.00  0.00     0.226 C 
HETATM    9  O   UNL     1      22.522  51.085  50.468  1.00  0.00    -0.273 OA
HETATM   10  H   UNL     1      22.425  49.371  47.777  1.00  0.00     0.169 HD
BRANCH   8  11
HETATM   11  C   UNL     1      20.882  51.079  48.723  1.00  0.00     0.141 C 
BRANCH  11  12
HETATM   12  C   UNL     1      19.803  50.034  48.867  1.00  0.00    -0.049 A 
HETATM   13  C   UNL     1      19.497  49.482  50.118  1.00  0.00     0.010 A 
HETATM   14  C   UNL     1      18.530  48.480  50.227  1.00  0.00     0.037 A 
HETATM   15  C   UNL     1      17.872  48.028  49.090  1.00  0.00     0.065 A 
HETATM   16  C   UNL     1      18.157  48.566  47.841  1.00  0.00     0.037 A 
HETATM   17  C   UNL     1      19.123  49.568  47.731  1.00  0.00     0.010 A 
BRANCH  15  18
HETATM   18  O   UNL     1      16.945  47.041  49.244  1.00  0.00    -0.361 OA
HETATM   19  H   UNL     1      17.385  46.262  49.624  1.00  0.00     0.217 HD
ENDBRANCH  15  18
ENDBRANCH  11  12
ENDBRANCH   8  11
ENDBRANCH   3   7
BRANCH   1  20
HETATM   20  C   UNL     1      26.148  46.719  50.728  1.00  0.00    -0.060 C 
HETATM   21  C   UNL     1      26.450  45.830  51.476  1.00  0.00    -0.041 C 
BRANCH  21  22
HETATM   22  C   UNL     1      26.858  44.801  52.377  1.00  0.00     0.110 A 
HETATM   23  C   UNL     1      27.158  45.090  53.701  1.00  0.00     0.041 A 
HETATM   24  C   UNL     1      27.577  44.047  54.522  1.00  0.00     0.004 A 
HETATM   25  C   UNL     1      27.682  42.766  53.991  1.00  0.00     0.019 A 
HETATM   26  C   UNL     1      27.359  42.578  52.656  1.00  0.00     0.118 A 
HETATM   27  N   UNL     1      26.947  43.568  51.835  1.00  0.00    -0.252 NA
ENDBRANCH  21  22
ENDBRANCH   1  20
TORSDOF 6
ENDMDL
MODEL 8
REMARK VINA RESULT:      -8.6      1.669      2.238
REMARK  6 active torsions:
REMARK  status: ('A' for Active; 'I' for Inactive)
REMARK    1  A    between atoms: C_3  and  C_4 
REMARK    2  A    between atoms: C_5  and  C_6 
REMARK    3  A    between atoms: C_8  and  N_9 
REMARK       I    between atoms: N_9  and  C_10 
REMARK    4  A    between atoms: C_10  and  C_11 
REMARK    5  A    between atoms: C_11  and  C_12 
REMARK    6  A    between atoms: C_15  and  O_16 
ROOT
HETATM    1  C   UNL     1      25.498  45.782  51.343  1.00  0.00     0.020 A 
HETATM    2  C   UNL     1      26.106  46.151  52.549  1.00  0.00     0.050 A 
HETATM    3  C   UNL     1      26.790  45.205  53.314  1.00  0.00     0.036 A 
HETATM    4  C   UNL     1      26.867  43.885  52.851  1.00  0.00     0.029 A 
HETATM    5  C   UNL     1      26.276  43.519  51.638  1.00  0.00     0.004 A 
HETATM    6  C   UNL     1      25.588  44.469  50.884  1.00  0.00     0.021 A 
ENDROOT
BRANCH   3   7
HETATM    7  N   UNL     1      27.376  45.487  54.565  1.00  0.00    -0.327 N 
HETATM    8  C   UNL     1      27.902  46.696  54.993  1.00  0.00     0.226 C 
HETATM    9  O   UNL     1      28.083  47.697  54.305  1.00  0.00    -0.273 OA
HETATM   10  H   UNL     1      27.387  44.723  55.229  1.00  0.00     0.169 HD
BRANCH   8  11
HETATM   11  C   UNL     1      28.238  46.701  56.477  1.00  0.00     0.141 C 
BRANCH  11  12
HETATM   12  C   UNL     1      29.345  45.727  56.797  1.00  0.00    -0.049 A 
HETATM   13  C   UNL     1      29.927  45.691  58.071  1.00  0.00     0.010 A 
HETATM   14  C   UNL     1      30.985  44.819  58.338  1.00  0.00     0.037 A 
HETATM   15  C   UNL     1      31.462  43.985  57.334  1.00  0.00     0.065 A 
HETATM   16  C   UNL     1      30.895  44.001  56.065  1.00  0.00     0.037 A 
HETATM   17  C   UNL     1      29.838  44.872  55.798  1.00  0.00     0.010 A 
BRANCH  15  18
HETATM   18  O   UNL     1      32.503  43.158  57.636  1.00  0.00    -0.361 OA
HETATM   19  H   UNL     1      33.333  43.637  57.470  1.00  0.00     0.217 HD
ENDBRANCH  15  18
ENDBRANCH  11  12
ENDBRANCH   8  11
ENDBRANCH   3   7
BRANCH   1  20
HETATM   20  C   UNL     1      24.748  46.753  50.607  1.00  0.00    -0.060 C 
HETATM   21  C   UNL     1      24.165  47.597  49.982  1.00  0.00    -0.041 C 
BRANCH  21  22
HETATM   22  C   UNL     1      23.523  48.624  49.228  1.00  0.00     0.110 A 
HETATM   23  C   UNL     1      24.255  49.663  48.671  1.00  0.00     0.041 A 
HETATM   24  C   UNL     1      23.566  50.649  47.971  1.00  0.00     0.004 A 
HETATM   25  C   UNL     1      22.183  50.560  47.856  1.00  0.00     0.019 A 
HETATM   26  C   UNL     1      21.542  49.482  48.447  1.00  0.00     0.118 A 
HETATM   27  N   UNL     1      22.181  48.509  49.132  1.00  0.00    -0.252 NA
ENDBRANCH  21  22
ENDBRANCH   1  20
TORSDOF 6
ENDMDL
MODEL 9
REMARK VINA RESULT:      -8.5      4.035      8.647
REMARK  6 active torsions:
REMARK  status: ('A' for Active; 'I' for Inactive)
REMARK    1  A    between atoms: C_3  and  C_4 
REMARK    2  A    between atoms: C_5  and  C_6 
REMARK    3  A    between atoms: C_8  and  N_9 
REMARK       I    between atoms: N_9  and  C_10 
REMARK    4  A    between atoms: C_10  and  C_11 
REMARK    5  A    between atoms: C_11  and  C_12 
REMARK    6  A    between atoms: C_15  and  O_16 
ROOT
HETATM    1  C   UNL     1      27.046  44.872  53.183  1.00  0.00     0.020 A 
HETATM    2  C   UNL     1      26.866  43.693  52.449  1.00  0.00     0.050 A 
HETATM    3  C   UNL     1      25.896  43.625  51.449  1.00  0.00     0.036 A 
HETATM    4  C   UNL     1      25.112  44.756  51.184  1.00  0.00     0.029 A 
HETATM    5  C   UNL     1      25.303  45.940  51.904  1.00  0.00     0.004 A 
HETATM    6  C   UNL     1      26.269  45.996  52.907  1.00  0.00     0.021 A 
ENDROOT
BRANCH   3   7
HETATM    7  N   UNL     1      25.617  42.458  50.708  1.00  0.00    -0.327 N 
HETATM    8  C   UNL     1      26.245  42.028  49.550  1.00  0.00     0.226 C 
HETATM    9  O   UNL     1      27.057  42.662  48.881  1.00  0.00    -0.273 OA
HETATM   10  H   UNL     1      24.893  41.859  51.086  1.00  0.00     0.169 HD
BRANCH   8  11
HETATM   11  C   UNL     1      25.847  40.613  49.154  1.00  0.00     0.141 C 
BRANCH  11  12
HETATM   12  C   UNL     1      26.913  39.613  49.529  1.00  0.00    -0.049 A 
HETATM   13  C   UNL     1      28.038  40.002  50.268  1.00  0.00     0.010 A 
HETATM   14  C   UNL     1      29.040  39.076  50.564  1.00  0.00     0.037 A 
HETATM   15  C   UNL     1      28.921  37.764  50.122  1.00  0.00     0.065 A 
HETATM   16  C   UNL     1      27.810  37.356  49.393  1.00  0.00     0.037 A 
HETATM   17  C   UNL     1      26.808  38.282  49.097  1.00  0.00     0.010 A 
BRANCH  15  18
HETATM   18  O   UNL     1      29.929  36.897  50.425  1.00  0.00    -0.361 OA
HETATM   19  H   UNL     1      30.752  37.405  50.521  1.00  0.00     0.217 HD
ENDBRANCH  15  18
ENDBRANCH  11  12
ENDBRANCH   8  11
ENDBRANCH   3   7
BRANCH   1  20
HETATM   20  C   UNL     1      28.002  44.901  54.247  1.00  0.00    -0.060 C 
HETATM   21  C   UNL     1      28.822  44.874  55.124  1.00  0.00    -0.041 C 
BRANCH  21  22
HETATM   22  C   UNL     1      29.816  44.794  56.143  1.00  0.00     0.110 A 
HETATM   23  C   UNL     1      30.787  43.802  56.117  1.00  0.00     0.041 A 
HETATM   24  C   UNL     1      31.712  43.761  57.156  1.00  0.00     0.004 A 
HETATM   25  C   UNL     1      31.631  44.704  58.175  1.00  0.00     0.019 A 
HETATM   26  C   UNL     1      30.625  45.657  58.111  1.00  0.00     0.118 A 
HETATM   27  N   UNL     1      29.714  45.724  57.117  1.00  0.00    -0.252 NA
ENDBRANCH  21  22
ENDBRANCH   1  20
TORSDOF 6
ENDMDL
MODEL 10
REMARK VINA RESULT:      -8.3      4.281     10.732
REMARK  6 active torsions:
REMARK  status: ('A' for Active; 'I' for Inactive)
REMARK    1  A    between atoms: C_3  and  C_4 
REMARK    2  A    between atoms: C_5  and  C_6 
REMARK    3  A    between atoms: C_8  and  N_9 
REMARK       I    between atoms: N_9  and  C_10 
REMARK    4  A    between atoms: C_10  and  C_11 
REMARK    5  A    between atoms: C_11  and  C_12 
REMARK    6  A    between atoms: C_15  and  O_16 
ROOT
HETATM    1  C   UNL     1      25.962  46.741  50.254  1.00  0.00     0.020 A 
HETATM    2  C   UNL     1      24.565  46.804  50.169  1.00  0.00     0.050 A 
HETATM    3  C   UNL     1      23.943  47.904  49.576  1.00  0.00     0.036 A 
HETATM    4  C   UNL     1      24.737  48.937  49.060  1.00  0.00     0.029 A 
HETATM    5  C   UNL     1      26.131  48.867  49.127  1.00  0.00     0.004 A 
HETATM    6  C   UNL     1      26.744  47.768  49.728  1.00  0.00     0.021 A 
ENDROOT
BRANCH   3   7
HETATM    7  N   UNL     1      22.544  48.067  49.506  1.00  0.00    -0.327 N 
HETATM    8  C   UNL     1      21.719  47.787  48.428  1.00  0.00     0.226 C 
HETATM    9  O   UNL     1      22.078  47.487  47.293  1.00  0.00    -0.273 OA
HETATM   10  H   UNL     1      22.096  48.401  50.351  1.00  0.00     0.169 HD
BRANCH   8  11
HETATM   11  C   UNL     1      20.241  47.862  48.783  1.00  0.00     0.141 C 
BRANCH  11  12
HETATM   12  C   UNL     1      19.713  49.271  48.664  1.00  0.00    -0.049 A 
HETATM   13  C   UNL     1      19.429  49.830  47.411  1.00  0.00     0.010 A 
HETATM   14  C   UNL     1      18.988  51.152  47.315  1.00  0.00     0.037 A 
HETATM   15  C   UNL     1      18.833  51.914  48.466  1.00  0.00     0.065 A 
HETATM   16  C   UNL     1      19.104  51.376  49.719  1.00  0.00     0.037 A 
HETATM   17  C   UNL     1      19.544  50.055  49.816  1.00  0.00     0.010 A 
BRANCH  15  18
HETATM   18  O   UNL     1      18.412  53.203  48.323  1.00  0.00    -0.361 OA
HETATM   19  H   UNL     1      18.969  53.636  47.654  1.00  0.00     0.217 HD
ENDBRANCH  15  18
ENDBRANCH  11  12
ENDBRANCH   8  11
ENDBRANCH   3   7
BRANCH   1  20
HETATM   20  C   UNL     1      26.577  45.636  50.921  1.00  0.00    -0.060 C 
HETATM   21  C   UNL     1      27.043  44.688  51.494  1.00  0.00    -0.041 C 
BRANCH  21  22
HETATM   22  C   UNL     1      27.544  43.541  52.177  1.00  0.00     0.110 A 
HETATM   23  C   UNL     1      28.290  43.673  53.340  1.00  0.00     0.041 A 
HETATM   24  C   UNL     1      28.775  42.516  53.944  1.00  0.00     0.004 A 
HETATM   25  C   UNL     1      28.498  41.281  53.366  1.00  0.00     0.019 A 
HETATM   26  C   UNL     1      27.742  41.254  52.204  1.00  0.00     0.118 A 
HETATM   27  N   UNL     1      27.257  42.357  51.595  1.00  0.00    -0.252 NA
ENDBRANCH  21  22
ENDBRANCH   1  20
TORSDOF 6
ENDMDL
