MODEL 1
REMARK VINA RESULT:      -9.2      0.000      0.000
REMARK  6 active torsions:
REMARK  status: ('A' for Active; 'I' for Inactive)
REMARK    1  A    between atoms: O_2  and  C_3 
REMARK    2  A    between atoms: C_5  and  N_6 
REMARK    3  A    between atoms: C_7  and  O_8 
REMARK    4  A    between atoms: C_7  and  C_9 
REMARK       I    between atoms: C_9  and  N_10 
REMARK    5  A    between atoms: N_10  and  C_11 
REMARK    6  A    between atoms: C_11  and  C_12 
ROOT
HETATM    1  N   UNL     1      25.073  43.390  50.136  1.00  0.00    -0.254 N 
HETATM    2  C   UNL     1      26.287  42.682  49.692  1.00  0.00     0.256 C 
HETATM    3  C   UNL     1      26.043  41.725  48.540  1.00  0.00     0.034 A 
HETATM    4  C   UNL     1      24.764  41.220  48.366  1.00  0.00     0.048 A 
HETATM    5  N   UNL     1      23.750  41.686  49.186  1.00  0.00    -0.308 N 
HETATM    6  C   UNL     1      23.842  42.749  50.034  1.00  0.00     0.330 C 
HETATM    7  O   UNL     1      22.830  43.031  50.675  1.00  0.00    -0.246 OA
HETATM    8  C   UNL     1      27.070  41.249  47.706  1.00  0.00     0.015 A 
HETATM    9  C   UNL     1      26.802  40.298  46.719  1.00  0.00     0.001 A 
HETATM   10  C   UNL     1      25.510  39.799  46.567  1.00  0.00     0.002 A 
HETATM   11  C   UNL     1      24.487  40.255  47.395  1.00  0.00     0.030 A 
HETATM   12  H   UNL     1      22.815  41.306  49.100  1.00  0.00     0.170 HD
ENDROOT
BRANCH   2  13
HETATM   13  O   UNL     1      27.228  43.639  49.191  1.00  0.00    -0.359 OA
HETATM   14  H   UNL     1      26.684  44.387  48.878  1.00  0.00     0.213 HD
ENDBRANCH   2  13
BRANCH   2  15
HETATM   15  C   UNL     1      26.926  41.863  50.891  1.00  0.00     0.279 C 
HETATM   16  N   UNL     1      27.940  42.467  51.600  1.00  0.00    -0.352 N 
HETATM   17  H   UNL     1      28.412  43.263  51.191  1.00  0.00     0.162 HD
HETATM   18  O   UNL     1      26.463  40.761  51.207  1.00  0.00    -0.268 OA
BRANCH  16  19
HETATM   19  C   UNL     1      28.595  41.800  52.697  1.00  0.00     0.161 C 
BRANCH  19  20
HETATM   20  C   UNL     1      29.017  42.801  53.739  1.00  0.00    -0.040 A 
HETATM   21  C   UNL     1      28.164  43.860  54.087  1.00  0.00     0.010 A 
HETATM   22  C   UNL     1      28.564  44.813  55.026  1.00  0.00     0.024 A 
HETATM   23  C   UNL     1      29.823  44.717  55.616  1.00  0.00     0.034 A 
HETATM   24 CL   UNL     1      30.317  45.893  56.770  1.00  0.00    -0.084 Cl
HETATM   25  C   UNL     1      30.686  43.679  55.271  1.00  0.00     0.024 A 
HETATM   26  C   UNL     1      30.285  42.726  54.332  1.00  0.00     0.010 A 
ENDBRANCH  19  20
ENDBRANCH  16  19
ENDBRANCH   2  15
BRANCH   1  27
HETATM   27  C   UNL     1      25.176  44.639  50.865  1.00  0.00     0.045 A 
HETATM   28  C   UNL     1      25.196  45.866  50.176  1.00  0.00     0.066 A 
HETATM   29  C   UNL     1      25.316  47.096  50.838  1.00  0.00     0.070 A 
HETATM   30  C   UNL     1      25.429  47.117  52.224  1.00  0.00     0.037 A 
HETATM   31  C   UNL     1      25.421  45.918  52.932  1.00  0.00     0.005 A 
HETATM   32  C   UNL     1      25.299  44.695  52.261  1.00  0.00     0.030 A 
BRANCH  29  33
HETATM   33  O   UNL     1      25.326  48.190  50.015  1.00  0.00    -0.356 OA
HETATM   34  C   UNL     1      26.555  48.507  49.376  1.00  0.00     0.210 C 
ENDBRANCH  29  33
ENDBRANCH   1  27
TORSDOF 6
ENDMDL
MODEL 2
REMARK VINA RESULT:      -8.5     10.714     13.082
REMARK  6 active torsions:
REMARK  status: ('A' for Active; 'I' for Inactive)
REMARK    1  A    between atoms: O_2  and  C_3 
REMARK    2  A    between atoms: C_5  and  N_6 
REMARK    3  A    between atoms: C_7  and  O_8 
REMARK    4  A    between atoms: C_7  and  C_9 
REMARK       I    between atoms: C_9  and  N_10 
REMARK    5  A    between atoms: N_10  and  C_11 
REMARK    6  A    between atoms: C_11  and  C_12 
ROOT
HETATM    1  N   UNL     1      27.151  48.933  39.946  1.00  0.00    -0.254 N 
HETATM    2  C   UNL     1      28.000  49.753  40.828  1.00  0.00     0.256 C 
HETATM    3  C   UNL     1      28.301  51.132  40.270  1.00  0.00     0.034 A 
HETATM    4  C   UNL     1      28.237  51.312  38.897  1.00  0.00     0.048 A 
HETATM    5  N   UNL     1      27.807  50.257  38.109  1.00  0.00    -0.308 N 
HETATM    6  C   UNL     1      27.248  49.102  38.568  1.00  0.00     0.330 C 
HETATM    7  O   UNL     1      26.908  48.279  37.718  1.00  0.00    -0.246 OA
HETATM    8  C   UNL     1      28.738  52.205  41.066  1.00  0.00     0.015 A 
HETATM    9  C   UNL     1      29.089  53.425  40.485  1.00  0.00     0.001 A 
HETATM   10  C   UNL     1      29.024  53.581  39.102  1.00  0.00     0.002 A 
HETATM   11  C   UNL     1      28.603  52.521  38.302  1.00  0.00     0.030 A 
HETATM   12  H   UNL     1      27.786  50.354  37.101  1.00  0.00     0.170 HD
ENDROOT
BRANCH   2  13
HETATM   13  O   UNL     1      27.303  49.991  42.057  1.00  0.00    -0.359 OA
HETATM   14  H   UNL     1      26.367  49.797  41.857  1.00  0.00     0.213 HD
ENDBRANCH   2  13
BRANCH   2  15
HETATM   15  C   UNL     1      29.378  49.022  41.114  1.00  0.00     0.279 C 
HETATM   16  N   UNL     1      29.856  49.055  42.406  1.00  0.00    -0.352 N 
HETATM   17  H   UNL     1      29.475  49.738  43.048  1.00  0.00     0.162 HD
HETATM   18  O   UNL     1      29.944  48.389  40.216  1.00  0.00    -0.268 OA
BRANCH  16  19
HETATM   19  C   UNL     1      31.106  48.433  42.765  1.00  0.00     0.161 C 
BRANCH  19  20
HETATM   20  C   UNL     1      32.249  49.380  42.518  1.00  0.00    -0.040 A 
HETATM   21  C   UNL     1      33.237  49.063  41.573  1.00  0.00     0.010 A 
HETATM   22  C   UNL     1      34.321  49.920  41.365  1.00  0.00     0.024 A 
HETATM   23  C   UNL     1      34.425  51.095  42.108  1.00  0.00     0.034 A 
HETATM   24 CL   UNL     1      35.761  52.149  41.855  1.00  0.00    -0.084 Cl
HETATM   25  C   UNL     1      33.459  51.416  43.059  1.00  0.00     0.024 A 
HETATM   26  C   UNL     1      32.376  50.559  43.266  1.00  0.00     0.010 A 
ENDBRANCH  19  20
ENDBRANCH  16  19
ENDBRANCH   2  15
BRANCH   1  27
HETATM   27  C   UNL     1      26.390  47.823  40.484  1.00  0.00     0.045 A 
HETATM   28  C   UNL     1      24.985  47.889  40.553  1.00  0.00     0.066 A 
HETATM   29  C   UNL     1      24.211  46.848  41.084  1.00  0.00     0.070 A 
HETATM   30  C   UNL     1      24.841  45.708  41.572  1.00  0.00     0.037 A 
HETATM   31  C   UNL     1      26.229  45.618  41.525  1.00  0.00     0.005 A 
HETATM   32  C   UNL     1      26.994  46.663  40.991  1.00  0.00     0.030 A 
BRANCH  29  33
HETATM   33  O   UNL     1      22.862  47.081  41.081  1.00  0.00    -0.356 OA
HETATM   34  C   UNL     1      22.403  48.209  40.348  1.00  0.00     0.210 C 
ENDBRANCH  29  33
ENDBRANCH   1  27
TORSDOF 6
ENDMDL
MODEL 3
REMARK VINA RESULT:      -8.4      2.257      3.167
REMARK  6 active torsions:
REMARK  status: ('A' for Active; 'I' for Inactive)
REMARK    1  A    between atoms: O_2  and  C_3 
REMARK    2  A    between atoms: C_5  and  N_6 
REMARK    3  A    between atoms: C_7  and  O_8 
REMARK    4  A    between atoms: C_7  and  C_9 
REMARK       I    between atoms: C_9  and  N_10 
REMARK    5  A    between atoms: N_10  and  C_11 
REMARK    6  A    between atoms: C_11  and  C_12 
ROOT
HETATM    1  N   UNL     1      24.683  44.387  50.373  1.00  0.00    -0.254 N 
HETATM    2  C   UNL     1      26.022  44.214  50.963  1.00  0.00     0.256 C 
HETATM    3  C   UNL     1      26.551  42.795  50.859  1.00  0.00     0.034 A 
HETATM    4  C   UNL     1      25.636  41.761  50.738  1.00  0.00     0.048 A 
HETATM    5  N   UNL     1      24.293  42.075  50.618  1.00  0.00    -0.308 N 
HETATM    6  C   UNL     1      23.786  43.324  50.410  1.00  0.00     0.330 C 
HETATM    7  O   UNL     1      22.562  43.412  50.311  1.00  0.00    -0.246 OA
HETATM    8  C   UNL     1      27.914  42.473  50.981  1.00  0.00     0.015 A 
HETATM    9  C   UNL     1      28.333  41.141  50.969  1.00  0.00     0.001 A 
HETATM   10  C   UNL     1      27.395  40.117  50.854  1.00  0.00     0.002 A 
HETATM   11  C   UNL     1      26.041  40.425  50.743  1.00  0.00     0.030 A 
HETATM   12  H   UNL     1      23.603  41.335  50.563  1.00  0.00     0.170 HD
ENDROOT
BRANCH   2  13
HETATM   13  O   UNL     1      26.960  45.017  50.235  1.00  0.00    -0.359 OA
HETATM   14  H   UNL     1      27.615  44.384  49.885  1.00  0.00     0.213 HD
ENDBRANCH   2  13
BRANCH   2  15
HETATM   15  C   UNL     1      26.018  44.630  52.493  1.00  0.00     0.279 C 
HETATM   16  N   UNL     1      27.109  45.327  52.963  1.00  0.00    -0.352 N 
HETATM   17  H   UNL     1      27.962  45.320  52.418  1.00  0.00     0.162 HD
HETATM   18  O   UNL     1      25.030  44.397  53.198  1.00  0.00    -0.268 OA
BRANCH  16  19
HETATM   19  C   UNL     1      27.207  45.739  54.341  1.00  0.00     0.161 C 
BRANCH  19  20
HETATM   20  C   UNL     1      28.457  45.178  54.965  1.00  0.00    -0.040 A 
HETATM   21  C   UNL     1      28.991  43.964  54.506  1.00  0.00     0.010 A 
HETATM   22  C   UNL     1      30.130  43.420  55.106  1.00  0.00     0.024 A 
HETATM   23  C   UNL     1      30.734  44.083  56.172  1.00  0.00     0.034 A 
HETATM   24 CL   UNL     1      32.134  43.412  56.912  1.00  0.00    -0.084 Cl
HETATM   25  C   UNL     1      30.207  45.282  56.646  1.00  0.00     0.024 A 
HETATM   26  C   UNL     1      29.069  45.826  56.047  1.00  0.00     0.010 A 
ENDBRANCH  19  20
ENDBRANCH  16  19
ENDBRANCH   2  15
BRANCH   1  27
HETATM   27  C   UNL     1      24.226  45.700  49.960  1.00  0.00     0.045 A 
HETATM   28  C   UNL     1      23.383  45.841  48.842  1.00  0.00     0.066 A 
HETATM   29  C   UNL     1      22.935  47.092  48.395  1.00  0.00     0.070 A 
HETATM   30  C   UNL     1      23.337  48.242  49.065  1.00  0.00     0.037 A 
HETATM   31  C   UNL     1      24.178  48.134  50.169  1.00  0.00     0.005 A 
HETATM   32  C   UNL     1      24.620  46.879  50.609  1.00  0.00     0.030 A 
BRANCH  29  33
HETATM   33  O   UNL     1      22.128  47.047  47.290  1.00  0.00    -0.356 OA
HETATM   34  C   UNL     1      20.935  47.820  47.330  1.00  0.00     0.210 C 
ENDBRANCH  29  33
ENDBRANCH   1  27
TORSDOF 6
ENDMDL
MODEL 4
REMARK VINA RESULT:      -8.4     10.229     13.105
REMARK  6 active torsions:
REMARK  status: ('A' for Active; 'I' for Inactive)
REMARK    1  A    between atoms: O_2  and  C_3 
REMARK    2  A    between atoms: C_5  and  N_6 
REMARK    3  A    between atoms: C_7  and  O_8 
REMARK    4  A    between atoms: C_7  and  C_9 
REMARK       I    between atoms: C_9  and  N_10 
REMARK    5  A    between atoms: N_10  and  C_11 
REMARK    6  A    between atoms: C_11  and  C_12 
ROOT
HETATM    1  N   UNL     1      27.103  48.997  39.886  1.00  0.00    -0.254 N 
HETATM    2  C   UNL     1      27.967  49.774  40.792  1.00  0.00     0.256 C 
HETATM    3  C   UNL     1      28.303  51.159  40.269  1.00  0.00     0.034 A 
HETATM    4  C   UNL     1      28.251  51.374  38.901  1.00  0.00     0.048 A 
HETATM    5  N   UNL     1      27.801  50.349  38.086  1.00  0.00    -0.308 N 
HETATM    6  C   UNL     1      27.212  49.197  38.513  1.00  0.00     0.330 C 
HETATM    7  O   UNL     1      26.857  48.403  37.641  1.00  0.00    -0.246 OA
HETATM    8  C   UNL     1      28.762  52.201  41.094  1.00  0.00     0.015 A 
HETATM    9  C   UNL     1      29.145  53.426  40.545  1.00  0.00     0.001 A 
HETATM   10  C   UNL     1      29.091  53.618  39.166  1.00  0.00     0.002 A 
HETATM   11  C   UNL     1      28.649  52.588  38.338  1.00  0.00     0.030 A 
HETATM   12  H   UNL     1      27.787  50.472  37.080  1.00  0.00     0.170 HD
ENDROOT
BRANCH   2  13
HETATM   13  O   UNL     1      27.269  49.999  42.023  1.00  0.00    -0.359 OA
HETATM   14  H   UNL     1      27.967  50.212  42.673  1.00  0.00     0.213 HD
ENDBRANCH   2  13
BRANCH   2  15
HETATM   15  C   UNL     1      29.325  49.004  41.067  1.00  0.00     0.279 C 
HETATM   16  N   UNL     1      29.846  49.073  42.340  1.00  0.00    -0.352 N 
HETATM   17  H   UNL     1      29.512  49.797  42.963  1.00  0.00     0.162 HD
HETATM   18  O   UNL     1      29.837  48.312  40.180  1.00  0.00    -0.268 OA
BRANCH  16  19
HETATM   19  C   UNL     1      31.083  48.420  42.687  1.00  0.00     0.161 C 
BRANCH  19  20
HETATM   20  C   UNL     1      32.244  49.355  42.475  1.00  0.00    -0.040 A 
HETATM   21  C   UNL     1      33.255  49.028  41.557  1.00  0.00     0.010 A 
HETATM   22  C   UNL     1      34.353  49.874  41.383  1.00  0.00     0.024 A 
HETATM   23  C   UNL     1      34.450  51.045  42.131  1.00  0.00     0.034 A 
HETATM   24 CL   UNL     1      35.804  52.085  41.919  1.00  0.00    -0.084 Cl
HETATM   25  C   UNL     1      33.461  51.375  43.055  1.00  0.00     0.024 A 
HETATM   26  C   UNL     1      32.363  50.530  43.229  1.00  0.00     0.010 A 
ENDBRANCH  19  20
ENDBRANCH  16  19
ENDBRANCH   2  15
BRANCH   1  27
HETATM   27  C   UNL     1      26.313  47.892  40.393  1.00  0.00     0.045 A 
HETATM   28  C   UNL     1      26.926  46.668  40.717  1.00  0.00     0.066 A 
HETATM   29  C   UNL     1      26.199  45.566  41.189  1.00  0.00     0.070 A 
HETATM   30  C   UNL     1      24.821  45.671  41.339  1.00  0.00     0.037 A 
HETATM   31  C   UNL     1      24.185  46.868  41.018  1.00  0.00     0.005 A 
HETATM   32  C   UNL     1      24.921  47.963  40.548  1.00  0.00     0.030 A 
BRANCH  29  33
HETATM   33  O   UNL     1      26.952  44.453  41.448  1.00  0.00    -0.356 OA
HETATM   34  C   UNL     1      26.530  43.623  42.523  1.00  0.00     0.210 C 
ENDBRANCH  29  33
ENDBRANCH   1  27
TORSDOF 6
ENDMDL
MODEL 5
REMARK VINA RESULT:      -8.3      3.162      6.275
REMARK  6 active torsions:
REMARK  status: ('A' for Active; 'I' for Inactive)
REMARK    1  A    between atoms: O_2  and  C_3 
REMARK    2  A    between atoms: C_5  and  N_6 
REMARK    3  A    between atoms: C_7  and  O_8 
REMARK    4  A    between atoms: C_7  and  C_9 
REMARK       I    between atoms: C_9  and  N_10 
REMARK    5  A    between atoms: N_10  and  C_11 
REMARK    6  A    between atoms: C_11  and  C_12 
ROOT
HETATM    1  N   UNL     1      27.045  42.933  51.710  1.00  0.00    -0.254 N 
HETATM    2  C   UNL     1      25.975  43.872  51.332  1.00  0.00     0.256 C 
HETATM    3  C   UNL     1      24.873  43.234  50.505  1.00  0.00     0.034 A 
HETATM    4  C   UNL     1      25.177  42.096  49.774  1.00  0.00     0.048 A 
HETATM    5  N   UNL     1      26.437  41.538  49.909  1.00  0.00    -0.308 N 
HETATM    6  C   UNL     1      27.363  41.888  50.847  1.00  0.00     0.330 C 
HETATM    7  O   UNL     1      28.427  41.270  50.828  1.00  0.00    -0.246 OA
HETATM    8  C   UNL     1      23.593  43.798  50.366  1.00  0.00     0.015 A 
HETATM    9  C   UNL     1      22.649  43.216  49.517  1.00  0.00     0.001 A 
HETATM   10  C   UNL     1      22.978  42.076  48.786  1.00  0.00     0.002 A 
HETATM   11  C   UNL     1      24.248  41.516  48.909  1.00  0.00     0.030 A 
HETATM   12  H   UNL     1      26.694  40.727  49.358  1.00  0.00     0.170 HD
ENDROOT
BRANCH   2  13
HETATM   13  O   UNL     1      25.326  44.341  52.520  1.00  0.00    -0.359 OA
HETATM   14  H   UNL     1      25.101  43.533  53.021  1.00  0.00     0.213 HD
ENDBRANCH   2  13
BRANCH   2  15
HETATM   15  C   UNL     1      26.566  45.094  50.513  1.00  0.00     0.279 C 
HETATM   16  N   UNL     1      26.133  46.355  50.857  1.00  0.00    -0.352 N 
HETATM   17  H   UNL     1      25.290  46.446  51.411  1.00  0.00     0.162 HD
HETATM   18  O   UNL     1      27.437  44.905  49.657  1.00  0.00    -0.268 OA
BRANCH  16  19
HETATM   19  C   UNL     1      26.600  47.530  50.164  1.00  0.00     0.161 C 
BRANCH  19  20
HETATM   20  C   UNL     1      25.442  48.262  49.540  1.00  0.00    -0.040 A 
HETATM   21  C   UNL     1      24.129  47.810  49.744  1.00  0.00     0.010 A 
HETATM   22  C   UNL     1      23.053  48.462  49.138  1.00  0.00     0.024 A 
HETATM   23  C   UNL     1      23.285  49.565  48.318  1.00  0.00     0.034 A 
HETATM   24 CL   UNL     1      21.961  50.367  47.569  1.00  0.00    -0.084 Cl
HETATM   25  C   UNL     1      24.584  50.016  48.095  1.00  0.00     0.024 A 
HETATM   26  C   UNL     1      25.660  49.364  48.702  1.00  0.00     0.010 A 
ENDBRANCH  19  20
ENDBRANCH  16  19
ENDBRANCH   2  15
BRANCH   1  27
HETATM   27  C   UNL     1      27.901  43.213  52.847  1.00  0.00     0.045 A 
HETATM   28  C   UNL     1      27.937  44.502  53.410  1.00  0.00     0.066 A 
HETATM   29  C   UNL     1      28.765  44.823  54.495  1.00  0.00     0.070 A 
HETATM   30  C   UNL     1      29.590  43.844  55.038  1.00  0.00     0.037 A 
HETATM   31  C   UNL     1      29.581  42.562  54.496  1.00  0.00     0.005 A 
HETATM   32  C   UNL     1      28.750  42.251  53.413  1.00  0.00     0.030 A 
BRANCH  29  33
HETATM   33  O   UNL     1      28.681  46.124  54.912  1.00  0.00    -0.356 OA
HETATM   34  C   UNL     1      28.498  46.345  56.305  1.00  0.00     0.210 C 
ENDBRANCH  29  33
ENDBRANCH   1  27
TORSDOF 6
ENDMDL
MODEL 6
REMARK VINA RESULT:      -8.3     17.590     20.994
REMARK  6 active torsions:
REMARK  status: ('A' for Active; 'I' for Inactive)
REMARK    1  A    between atoms: O_2  and  C_3 
REMARK    2  A    between atoms: C_5  and  N_6 
REMARK    3  A    between atoms: C_7  and  O_8 
REMARK    4  A    between atoms: C_7  and  C_9 
REMARK       I    between atoms: C_9  and  N_10 
REMARK    5  A    between atoms: N_10  and  C_11 
REMARK    6  A    between atoms: C_11  and  C_12 
ROOT
HETATM    1  N   UNL     1      40.815  47.726  66.135  1.00  0.00    -0.254 N 
HETATM    2  C   UNL     1      39.613  48.297  65.502  1.00  0.00     0.256 C 
HETATM    3  C   UNL     1      39.086  49.533  66.208  1.00  0.00     0.034 A 
HETATM    4  C   UNL     1      39.389  49.701  67.551  1.00  0.00     0.048 A 
HETATM    5  N   UNL     1      40.237  48.791  68.158  1.00  0.00    -0.308 N 
HETATM    6  C   UNL     1      40.970  47.839  67.514  1.00  0.00     0.330 C 
HETATM    7  O   UNL     1      41.686  47.126  68.217  1.00  0.00    -0.246 OA
HETATM    8  C   UNL     1      38.223  50.459  65.595  1.00  0.00     0.015 A 
HETATM    9  C   UNL     1      37.695  51.528  66.322  1.00  0.00     0.001 A 
HETATM   10  C   UNL     1      38.008  51.674  67.672  1.00  0.00     0.002 A 
HETATM   11  C   UNL     1      38.852  50.755  68.293  1.00  0.00     0.030 A 
HETATM   12  H   UNL     1      40.445  48.874  69.146  1.00  0.00     0.170 HD
ENDROOT
BRANCH   2  13
HETATM   13  O   UNL     1      39.946  48.736  64.179  1.00  0.00    -0.359 OA
HETATM   14  H   UNL     1      39.160  48.528  63.639  1.00  0.00     0.213 HD
ENDBRANCH   2  13
BRANCH   2  15
HETATM   15  C   UNL     1      38.447  47.224  65.444  1.00  0.00     0.279 C 
HETATM   16  N   UNL     1      37.989  46.854  64.199  1.00  0.00    -0.352 N 
HETATM   17  H   UNL     1      38.206  47.444  63.406  1.00  0.00     0.162 HD
HETATM   18  O   UNL     1      38.036  46.696  66.483  1.00  0.00    -0.268 OA
BRANCH  16  19
HETATM   19  C   UNL     1      36.923  45.897  64.040  1.00  0.00     0.161 C 
BRANCH  19  20
HETATM   20  C   UNL     1      37.484  44.545  63.685  1.00  0.00    -0.040 A 
HETATM   21  C   UNL     1      36.974  43.388  64.292  1.00  0.00     0.010 A 
HETATM   22  C   UNL     1      37.515  42.135  63.995  1.00  0.00     0.024 A 
HETATM   23  C   UNL     1      38.575  42.035  63.096  1.00  0.00     0.034 A 
HETATM   24 CL   UNL     1      39.244  40.492  62.732  1.00  0.00    -0.084 Cl
HETATM   25  C   UNL     1      39.101  43.177  62.496  1.00  0.00     0.024 A 
HETATM   26  C   UNL     1      38.559  44.429  62.793  1.00  0.00     0.010 A 
ENDBRANCH  19  20
ENDBRANCH  16  19
ENDBRANCH   2  15
BRANCH   1  27
HETATM   27  C   UNL     1      41.709  46.874  65.377  1.00  0.00     0.045 A 
HETATM   28  C   UNL     1      43.080  47.181  65.287  1.00  0.00     0.066 A 
HETATM   29  C   UNL     1      43.976  46.398  64.547  1.00  0.00     0.070 A 
HETATM   30  C   UNL     1      43.507  45.279  63.868  1.00  0.00     0.037 A 
HETATM   31  C   UNL     1      42.155  44.954  63.932  1.00  0.00     0.005 A 
HETATM   32  C   UNL     1      41.267  45.743  64.675  1.00  0.00     0.030 A 
BRANCH  29  33
HETATM   33  O   UNL     1      45.271  46.844  64.561  1.00  0.00    -0.356 OA
HETATM   34  C   UNL     1      45.589  47.873  65.488  1.00  0.00     0.210 C 
ENDBRANCH  29  33
ENDBRANCH   1  27
TORSDOF 6
ENDMDL
MODEL 7
REMARK VINA RESULT:      -8.3     12.436     15.050
REMARK  6 active torsions:
REMARK  status: ('A' for Active; 'I' for Inactive)
REMARK    1  A    between atoms: O_2  and  C_3 
REMARK    2  A    between atoms: C_5  and  N_6 
REMARK    3  A    between atoms: C_7  and  O_8 
REMARK    4  A    between atoms: C_7  and  C_9 
REMARK       I    between atoms: C_9  and  N_10 
REMARK    5  A    between atoms: N_10  and  C_11 
REMARK    6  A    between atoms: C_11  and  C_12 
ROOT
HETATM    1  N   UNL     1      32.525  51.724  40.167  1.00  0.00    -0.254 N 
HETATM    2  C   UNL     1      33.081  51.164  41.411  1.00  0.00     0.256 C 
HETATM    3  C   UNL     1      34.597  51.115  41.429  1.00  0.00     0.034 A 
HETATM    4  C   UNL     1      35.267  51.080  40.216  1.00  0.00     0.048 A 
HETATM    5  N   UNL     1      34.531  51.191  39.049  1.00  0.00    -0.308 N 
HETATM    6  C   UNL     1      33.213  51.529  38.972  1.00  0.00     0.330 C 
HETATM    7  O   UNL     1      32.726  51.597  37.844  1.00  0.00    -0.246 OA
HETATM    8  C   UNL     1      35.348  51.002  42.613  1.00  0.00     0.015 A 
HETATM    9  C   UNL     1      36.737  50.867  42.563  1.00  0.00     0.001 A 
HETATM   10  C   UNL     1      37.389  50.827  41.333  1.00  0.00     0.002 A 
HETATM   11  C   UNL     1      36.653  50.927  40.153  1.00  0.00     0.030 A 
HETATM   12  H   UNL     1      34.995  51.132  38.150  1.00  0.00     0.170 HD
ENDROOT
BRANCH   2  13
HETATM   13  O   UNL     1      32.720  52.014  42.507  1.00  0.00    -0.359 OA
HETATM   14  H   UNL     1      31.747  51.951  42.565  1.00  0.00     0.213 HD
ENDBRANCH   2  13
BRANCH   2  15
HETATM   15  C   UNL     1      32.534  49.696  41.656  1.00  0.00     0.279 C 
HETATM   16  N   UNL     1      32.472  48.853  40.568  1.00  0.00    -0.352 N 
HETATM   17  H   UNL     1      32.518  49.254  39.640  1.00  0.00     0.162 HD
HETATM   18  O   UNL     1      32.254  49.320  42.800  1.00  0.00    -0.268 OA
BRANCH  16  19
HETATM   19  C   UNL     1      31.977  47.505  40.684  1.00  0.00     0.161 C 
BRANCH  19  20
HETATM   20  C   UNL     1      30.576  47.415  40.141  1.00  0.00    -0.040 A 
HETATM   21  C   UNL     1      30.362  47.104  38.789  1.00  0.00     0.010 A 
HETATM   22  C   UNL     1      29.065  47.056  38.270  1.00  0.00     0.024 A 
HETATM   23  C   UNL     1      27.978  47.327  39.098  1.00  0.00     0.034 A 
HETATM   24 CL   UNL     1      26.382  47.271  38.458  1.00  0.00    -0.084 Cl
HETATM   25  C   UNL     1      28.176  47.650  40.439  1.00  0.00     0.024 A 
HETATM   26  C   UNL     1      29.472  47.698  40.958  1.00  0.00     0.010 A 
ENDBRANCH  19  20
ENDBRANCH  16  19
ENDBRANCH   2  15
BRANCH   1  27
HETATM   27  C   UNL     1      31.185  52.276  40.144  1.00  0.00     0.045 A 
HETATM   28  C   UNL     1      30.074  51.439  39.927  1.00  0.00     0.066 A 
HETATM   29  C   UNL     1      28.762  51.933  39.875  1.00  0.00     0.070 A 
HETATM   30  C   UNL     1      28.538  53.296  40.034  1.00  0.00     0.037 A 
HETATM   31  C   UNL     1      29.619  54.149  40.241  1.00  0.00     0.005 A 
HETATM   32  C   UNL     1      30.925  53.646  40.292  1.00  0.00     0.030 A 
BRANCH  29  33
HETATM   33  O   UNL     1      27.803  50.982  39.650  1.00  0.00    -0.356 OA
HETATM   34  C   UNL     1      27.271  50.901  38.335  1.00  0.00     0.210 C 
ENDBRANCH  29  33
ENDBRANCH   1  27
TORSDOF 6
ENDMDL
MODEL 8
REMARK VINA RESULT:      -8.1      2.984      5.678
REMARK  6 active torsions:
REMARK  status: ('A' for Active; 'I' for Inactive)
REMARK    1  A    between atoms: O_2  and  C_3 
REMARK    2  A    between atoms: C_5  and  N_6 
REMARK    3  A    between atoms: C_7  and  O_8 
REMARK    4  A    between atoms: C_7  and  C_9 
REMARK       I    between atoms: C_9  and  N_10 
REMARK    5  A    between atoms: N_10  and  C_11 
REMARK    6  A    between atoms: C_11  and  C_12 
ROOT
HETATM    1  N   UNL     1      25.472  45.438  50.563  1.00  0.00    -0.254 N 
HETATM    2  C   UNL     1      25.081  44.449  51.583  1.00  0.00     0.256 C 
HETATM    3  C   UNL     1      26.170  44.163  52.601  1.00  0.00     0.034 A 
HETATM    4  C   UNL     1      27.487  44.393  52.233  1.00  0.00     0.048 A 
HETATM    5  N   UNL     1      27.741  44.964  50.998  1.00  0.00    -0.308 N 
HETATM    6  C   UNL     1      26.805  45.509  50.169  1.00  0.00     0.330 C 
HETATM    7  O   UNL     1      27.217  45.989  49.113  1.00  0.00    -0.246 OA
HETATM    8  C   UNL     1      25.916  43.583  53.856  1.00  0.00     0.015 A 
HETATM    9  C   UNL     1      26.968  43.257  54.714  1.00  0.00     0.001 A 
HETATM   10  C   UNL     1      28.285  43.491  54.322  1.00  0.00     0.002 A 
HETATM   11  C   UNL     1      28.548  44.055  53.075  1.00  0.00     0.030 A 
HETATM   12  H   UNL     1      28.696  45.109  50.694  1.00  0.00     0.170 HD
ENDROOT
BRANCH   2  13
HETATM   13  O   UNL     1      23.986  44.973  52.345  1.00  0.00    -0.359 OA
HETATM   14  H   UNL     1      24.381  45.664  52.911  1.00  0.00     0.213 HD
ENDBRANCH   2  13
BRANCH   2  15
HETATM   15  C   UNL     1      24.666  43.078  50.903  1.00  0.00     0.279 C 
HETATM   16  N   UNL     1      25.661  42.348  50.291  1.00  0.00    -0.352 N 
HETATM   17  H   UNL     1      26.534  42.809  50.066  1.00  0.00     0.162 HD
HETATM   18  O   UNL     1      23.506  42.663  50.998  1.00  0.00    -0.268 OA
BRANCH  16  19
HETATM   19  C   UNL     1      25.383  41.096  49.632  1.00  0.00     0.161 C 
BRANCH  19  20
HETATM   20  C   UNL     1      26.540  40.148  49.806  1.00  0.00    -0.040 A 
HETATM   21  C   UNL     1      27.620  40.496  50.631  1.00  0.00     0.010 A 
HETATM   22  C   UNL     1      28.713  39.636  50.768  1.00  0.00     0.024 A 
HETATM   23  C   UNL     1      28.734  38.428  50.073  1.00  0.00     0.034 A 
HETATM   24 CL   UNL     1      30.080  37.371  50.238  1.00  0.00    -0.084 Cl
HETATM   25  C   UNL     1      27.674  38.076  49.239  1.00  0.00     0.024 A 
HETATM   26  C   UNL     1      26.582  38.935  49.104  1.00  0.00     0.010 A 
ENDBRANCH  19  20
ENDBRANCH  16  19
ENDBRANCH   2  15
BRANCH   1  27
HETATM   27  C   UNL     1      24.463  46.170  49.825  1.00  0.00     0.045 A 
HETATM   28  C   UNL     1      24.290  47.551  50.035  1.00  0.00     0.066 A 
HETATM   29  C   UNL     1      23.312  48.295  49.359  1.00  0.00     0.070 A 
HETATM   30  C   UNL     1      22.473  47.657  48.453  1.00  0.00     0.037 A 
HETATM   31  C   UNL     1      22.615  46.290  48.231  1.00  0.00     0.005 A 
HETATM   32  C   UNL     1      23.595  45.556  48.911  1.00  0.00     0.030 A 
BRANCH  29  33
HETATM   33  O   UNL     1      23.277  49.624  49.688  1.00  0.00    -0.356 OA
HETATM   34  C   UNL     1      22.777  50.520  48.704  1.00  0.00     0.210 C 
ENDBRANCH  29  33
ENDBRANCH   1  27
TORSDOF 6
ENDMDL
MODEL 9
REMARK VINA RESULT:      -8.0      4.535      6.392
REMARK  6 active torsions:
REMARK  status: ('A' for Active; 'I' for Inactive)
REMARK    1  A    between atoms: O_2  and  C_3 
REMARK    2  A    between atoms: C_5  and  N_6 
REMARK    3  A    between atoms: C_7  and  O_8 
REMARK    4  A    between atoms: C_7  and  C_9 
REMARK       I    between atoms: C_9  and  N_10 
REMARK    5  A    between atoms: N_10  and  C_11 
REMARK    6  A    between atoms: C_11  and  C_12 
ROOT
HETATM    1  N   UNL     1      21.083  47.338  48.026  1.00  0.00    -0.254 N 
HETATM    2  C   UNL     1      21.214  46.122  47.204  1.00  0.00     0.256 C 
HETATM    3  C   UNL     1      19.890  45.601  46.677  1.00  0.00     0.034 A 
HETATM    4  C   UNL     1      18.734  45.927  47.369  1.00  0.00     0.048 A 
HETATM    5  N   UNL     1      18.828  46.791  48.446  1.00  0.00    -0.308 N 
HETATM    6  C   UNL     1      19.931  47.518  48.786  1.00  0.00     0.330 C 
HETATM    7  O   UNL     1      19.826  48.250  49.770  1.00  0.00    -0.246 OA
HETATM    8  C   UNL     1      19.791  44.723  45.583  1.00  0.00     0.015 A 
HETATM    9  C   UNL     1      18.553  44.202  45.200  1.00  0.00     0.001 A 
HETATM   10  C   UNL     1      17.405  44.538  45.914  1.00  0.00     0.002 A 
HETATM   11  C   UNL     1      17.494  45.399  47.007  1.00  0.00     0.030 A 
HETATM   12  H   UNL     1      18.002  47.017  48.988  1.00  0.00     0.170 HD
ENDROOT
BRANCH   2  13
HETATM   13  O   UNL     1      21.987  46.429  46.037  1.00  0.00    -0.359 OA
HETATM   14  H   UNL     1      21.362  46.872  45.431  1.00  0.00     0.213 HD
ENDBRANCH   2  13
BRANCH   2  15
HETATM   15  C   UNL     1      21.911  44.961  48.031  1.00  0.00     0.279 C 
HETATM   16  N   UNL     1      23.245  44.722  47.784  1.00  0.00    -0.352 N 
HETATM   17  H   UNL     1      23.656  45.088  46.935  1.00  0.00     0.162 HD
HETATM   18  O   UNL     1      21.283  44.362  48.911  1.00  0.00    -0.268 OA
BRANCH  16  19
HETATM   19  C   UNL     1      23.964  43.679  48.473  1.00  0.00     0.161 C 
BRANCH  19  20
HETATM   20  C   UNL     1      24.710  44.251  49.650  1.00  0.00    -0.040 A 
HETATM   21  C   UNL     1      26.102  44.417  49.590  1.00  0.00     0.010 A 
HETATM   22  C   UNL     1      26.804  44.912  50.692  1.00  0.00     0.024 A 
HETATM   23  C   UNL     1      26.118  45.234  51.861  1.00  0.00     0.034 A 
HETATM   24 CL   UNL     1      26.983  45.840  53.219  1.00  0.00    -0.084 Cl
HETATM   25  C   UNL     1      24.738  45.061  51.940  1.00  0.00     0.024 A 
HETATM   26  C   UNL     1      24.036  44.567  50.838  1.00  0.00     0.010 A 
ENDBRANCH  19  20
ENDBRANCH  16  19
ENDBRANCH   2  15
BRANCH   1  27
HETATM   27  C   UNL     1      22.215  48.223  48.214  1.00  0.00     0.045 A 
HETATM   28  C   UNL     1      23.302  47.828  49.016  1.00  0.00     0.066 A 
HETATM   29  C   UNL     1      24.407  48.660  49.243  1.00  0.00     0.070 A 
HETATM   30  C   UNL     1      24.440  49.926  48.669  1.00  0.00     0.037 A 
HETATM   31  C   UNL     1      23.375  50.347  47.877  1.00  0.00     0.005 A 
HETATM   32  C   UNL     1      22.275  49.508  47.656  1.00  0.00     0.030 A 
BRANCH  29  33
HETATM   33  O   UNL     1      25.371  48.121  50.053  1.00  0.00    -0.356 OA
HETATM   34  C   UNL     1      26.725  48.327  49.671  1.00  0.00     0.210 C 
ENDBRANCH  29  33
ENDBRANCH   1  27
TORSDOF 6
ENDMDL
MODEL 10
REMARK VINA RESULT:      -7.9      5.488      8.978
REMARK  6 active torsions:
REMARK  status: ('A' for Active; 'I' for Inactive)
REMARK    1  A    between atoms: O_2  and  C_3 
REMARK    2  A    between atoms: C_5  and  N_6 
REMARK    3  A    between atoms: C_7  and  O_8 
REMARK    4  A    between atoms: C_7  and  C_9 
REMARK       I    between atoms: C_9  and  N_10 
REMARK    5  A    between atoms: N_10  and  C_11 
REMARK    6  A    between atoms: C_11  and  C_12 
ROOT
HETATM    1  N   UNL     1      22.252  49.859  49.020  1.00  0.00    -0.254 N 
HETATM    2  C   UNL     1      21.283  49.283  48.071  1.00  0.00     0.256 C 
HETATM    3  C   UNL     1      20.171  50.240  47.683  1.00  0.00     0.034 A 
HETATM    4  C   UNL     1      19.856  51.268  48.558  1.00  0.00     0.048 A 
HETATM    5  N   UNL     1      20.632  51.434  49.693  1.00  0.00    -0.308 N 
HETATM    6  C   UNL     1      21.811  50.799  49.947  1.00  0.00     0.330 C 
HETATM    7  O   UNL     1      22.374  51.084  51.004  1.00  0.00    -0.246 OA
HETATM    8  C   UNL     1      19.381  50.075  46.532  1.00  0.00     0.015 A 
HETATM    9  C   UNL     1      18.311  50.934  46.274  1.00  0.00     0.001 A 
HETATM   10  C   UNL     1      18.008  51.956  47.171  1.00  0.00     0.002 A 
HETATM   11  C   UNL     1      18.778  52.123  48.321  1.00  0.00     0.030 A 
HETATM   12  H   UNL     1      20.399  52.156  50.364  1.00  0.00     0.170 HD
ENDROOT
BRANCH   2  13
HETATM   13  O   UNL     1      21.958  48.977  46.844  1.00  0.00    -0.359 OA
HETATM   14  H   UNL     1      21.712  49.699  46.235  1.00  0.00     0.213 HD
ENDBRANCH   2  13
BRANCH   2  15
HETATM   15  C   UNL     1      20.622  47.973  48.672  1.00  0.00     0.279 C 
HETATM   16  N   UNL     1      21.052  46.762  48.175  1.00  0.00    -0.352 N 
HETATM   17  H   UNL     1      21.553  46.747  47.296  1.00  0.00     0.162 HD
HETATM   18  O   UNL     1      19.814  48.056  49.604  1.00  0.00    -0.268 OA
BRANCH  16  19
HETATM   19  C   UNL     1      20.503  45.515  48.646  1.00  0.00     0.161 C 
BRANCH  19  20
HETATM   20  C   UNL     1      21.560  44.443  48.637  1.00  0.00    -0.040 A 
HETATM   21  C   UNL     1      21.838  43.736  47.458  1.00  0.00     0.010 A 
HETATM   22  C   UNL     1      22.793  42.715  47.452  1.00  0.00     0.024 A 
HETATM   23  C   UNL     1      23.467  42.392  48.628  1.00  0.00     0.034 A 
HETATM   24 CL   UNL     1      24.639  41.133  48.623  1.00  0.00    -0.084 Cl
HETATM   25  C   UNL     1      23.191  43.077  49.810  1.00  0.00     0.024 A 
HETATM   26  C   UNL     1      22.238  44.097  49.815  1.00  0.00     0.010 A 
ENDBRANCH  19  20
ENDBRANCH  16  19
ENDBRANCH   2  15
BRANCH   1  27
HETATM   27  C   UNL     1      23.585  49.303  49.137  1.00  0.00     0.045 A 
HETATM   28  C   UNL     1      23.798  48.105  49.843  1.00  0.00     0.066 A 
HETATM   29  C   UNL     1      25.073  47.543  49.999  1.00  0.00     0.070 A 
HETATM   30  C   UNL     1      26.176  48.187  49.449  1.00  0.00     0.037 A 
HETATM   31  C   UNL     1      25.997  49.379  48.753  1.00  0.00     0.005 A 
HETATM   32  C   UNL     1      24.719  49.932  48.601  1.00  0.00     0.030 A 
BRANCH  29  33
HETATM   33  O   UNL     1      25.100  46.379  50.720  1.00  0.00    -0.356 OA
HETATM   34  C   UNL     1      25.381  46.485  52.109  1.00  0.00     0.210 C 
ENDBRANCH  29  33
ENDBRANCH   1  27
TORSDOF 6
ENDMDL
