MODEL 1
REMARK VINA RESULT:     -10.2      0.000      0.000
REMARK  4 active torsions:
REMARK  status: ('A' for Active; 'I' for Inactive)
REMARK    1  A    between atoms: O_1  and  C_2 
REMARK    2  A    between atoms: C_2  and  C_3 
REMARK    3  A    between atoms: N_5  and  C_17 
REMARK    4  A    between atoms: C_20  and  C_23 
ROOT
HETATM    1  C   UNL     1      25.396  45.388  50.392  1.00  0.00     0.060 C 
HETATM    2  C   UNL     1      26.681  45.031  51.140  1.00  0.00     0.141 C 
HETATM    3  N   UNL     1      26.693  45.885  52.311  1.00  0.00    -0.316 N 
HETATM    4  C   UNL     1      25.787  46.946  52.155  1.00  0.00     0.248 C 
HETATM    5  O   UNL     1      25.466  47.814  52.957  1.00  0.00    -0.271 OA
HETATM    6  C   UNL     1      25.223  46.875  50.728  1.00  0.00     0.108 A 
HETATM    7  C   UNL     1      26.068  47.797  49.806  1.00  0.00     0.076 A 
HETATM    8  C   UNL     1      25.014  48.639  49.177  1.00  0.00    -0.035 A 
HETATM    9  C   UNL     1      25.164  49.643  48.234  1.00  0.00     0.009 A 
HETATM   10  C   UNL     1      24.025  50.344  47.828  1.00  0.00     0.001 A 
HETATM   11  C   UNL     1      22.769  50.038  48.371  1.00  0.00     0.002 A 
HETATM   12  C   UNL     1      22.637  49.025  49.324  1.00  0.00     0.024 A 
HETATM   13  C   UNL     1      23.768  48.326  49.708  1.00  0.00     0.015 A 
HETATM   14  N   UNL     1      23.792  47.309  50.694  1.00  0.00    -0.274 NA
HETATM   15  H   UNL     1      23.544  47.754  51.585  1.00  0.00     0.129 HD
ENDROOT
BRANCH   3  16
HETATM   16  C   UNL     1      27.556  45.665  53.421  1.00  0.00     0.037 A 
HETATM   17  C   UNL     1      28.238  44.456  53.598  1.00  0.00     0.030 A 
HETATM   18  C   UNL     1      29.083  44.244  54.699  1.00  0.00     0.014 A 
HETATM   19  C   UNL     1      29.276  45.242  55.656  1.00  0.00    -0.023 A 
HETATM   20  C   UNL     1      28.600  46.453  55.491  1.00  0.00     0.014 A 
HETATM   21  C   UNL     1      27.747  46.657  54.395  1.00  0.00     0.030 A 
BRANCH  19  22
HETATM   22  C   UNL     1      30.160  45.040  56.789  1.00  0.00     0.010 A 
HETATM   23  C   UNL     1      31.185  44.089  57.006  1.00  0.00     0.152 A 
HETATM   24  N   UNL     1      31.790  44.240  58.188  1.00  0.00    -0.187 NA
HETATM   25  N   UNL     1      31.154  45.288  58.733  1.00  0.00    -0.289 N 
HETATM   26  H   UNL     1      31.444  45.601  59.654  1.00  0.00     0.188 HD
HETATM   27  C   UNL     1      30.173  45.804  57.936  1.00  0.00     0.123 A 
ENDBRANCH  19  22
ENDBRANCH   3  16
BRANCH   1  28
HETATM   28  C   UNL     1      24.228  44.509  50.851  1.00  0.00     0.172 C 
BRANCH  28  29
HETATM   29  O   UNL     1      23.129  44.695  49.962  1.00  0.00    -0.400 OA
HETATM   30  H   UNL     1      23.242  45.576  49.560  1.00  0.00     0.209 HD
ENDBRANCH  28  29
ENDBRANCH   1  28
TORSDOF 4
ENDMDL
MODEL 2
REMARK VINA RESULT:      -9.6      2.052      2.748
REMARK  4 active torsions:
REMARK  status: ('A' for Active; 'I' for Inactive)
REMARK    1  A    between atoms: O_1  and  C_2 
REMARK    2  A    between atoms: C_2  and  C_3 
REMARK    3  A    between atoms: N_5  and  C_17 
REMARK    4  A    between atoms: C_20  and  C_23 
ROOT
HETATM    1  C   UNL     1      26.428  44.119  49.584  1.00  0.00     0.060 C 
HETATM    2  C   UNL     1      27.560  44.563  50.512  1.00  0.00     0.141 C 
HETATM    3  N   UNL     1      26.982  44.580  51.841  1.00  0.00    -0.316 N 
HETATM    4  C   UNL     1      25.580  44.568  51.767  1.00  0.00     0.248 C 
HETATM    5  O   UNL     1      24.758  44.497  52.672  1.00  0.00    -0.271 OA
HETATM    6  C   UNL     1      25.187  44.684  50.287  1.00  0.00     0.108 A 
HETATM    7  C   UNL     1      24.937  46.179  49.947  1.00  0.00     0.076 A 
HETATM    8  C   UNL     1      23.581  46.125  49.336  1.00  0.00    -0.035 A 
HETATM    9  C   UNL     1      22.832  47.166  48.811  1.00  0.00     0.009 A 
HETATM   10  C   UNL     1      21.548  46.885  48.339  1.00  0.00     0.001 A 
HETATM   11  C   UNL     1      21.036  45.581  48.404  1.00  0.00     0.002 A 
HETATM   12  C   UNL     1      21.804  44.544  48.939  1.00  0.00     0.024 A 
HETATM   13  C   UNL     1      23.080  44.831  49.390  1.00  0.00     0.015 A 
HETATM   14  N   UNL     1      23.952  43.892  49.996  1.00  0.00    -0.274 NA
HETATM   15  H   UNL     1      23.510  43.603  50.877  1.00  0.00     0.129 HD
ENDROOT
BRANCH   3  16
HETATM   16  C   UNL     1      27.767  44.648  53.026  1.00  0.00     0.037 A 
HETATM   17  C   UNL     1      27.628  45.694  53.946  1.00  0.00     0.030 A 
HETATM   18  C   UNL     1      28.410  45.756  55.110  1.00  0.00     0.014 A 
HETATM   19  C   UNL     1      29.354  44.767  55.392  1.00  0.00    -0.023 A 
HETATM   20  C   UNL     1      29.503  43.719  54.482  1.00  0.00     0.014 A 
HETATM   21  C   UNL     1      28.727  43.665  53.313  1.00  0.00     0.030 A 
BRANCH  19  22
HETATM   22  C   UNL     1      30.156  44.814  56.600  1.00  0.00     0.010 A 
HETATM   23  C   UNL     1      31.225  43.995  57.034  1.00  0.00     0.152 A 
HETATM   24  N   UNL     1      31.721  44.373  58.216  1.00  0.00    -0.187 NA
HETATM   25  N   UNL     1      30.971  45.436  58.545  1.00  0.00    -0.289 N 
HETATM   26  H   UNL     1      31.163  45.908  59.422  1.00  0.00     0.188 HD
HETATM   27  C   UNL     1      30.022  45.741  57.612  1.00  0.00     0.123 A 
ENDBRANCH  19  22
ENDBRANCH   3  16
BRANCH   1  28
HETATM   28  C   UNL     1      26.411  42.596  49.426  1.00  0.00     0.172 C 
BRANCH  28  29
HETATM   29  O   UNL     1      27.257  42.232  48.336  1.00  0.00    -0.400 OA
HETATM   30  H   UNL     1      26.796  41.526  47.850  1.00  0.00     0.209 HD
ENDBRANCH  28  29
ENDBRANCH   1  28
TORSDOF 4
ENDMDL
MODEL 3
REMARK VINA RESULT:      -9.0      3.978      5.600
REMARK  4 active torsions:
REMARK  status: ('A' for Active; 'I' for Inactive)
REMARK    1  A    between atoms: O_1  and  C_2 
REMARK    2  A    between atoms: C_2  and  C_3 
REMARK    3  A    between atoms: N_5  and  C_17 
REMARK    4  A    between atoms: C_20  and  C_23 
ROOT
HETATM    1  C   UNL     1      25.040  46.056  51.979  1.00  0.00     0.060 C 
HETATM    2  C   UNL     1      25.223  44.537  52.009  1.00  0.00     0.141 C 
HETATM    3  N   UNL     1      26.156  44.243  50.939  1.00  0.00    -0.316 N 
HETATM    4  C   UNL     1      26.253  45.331  50.057  1.00  0.00     0.248 C 
HETATM    5  O   UNL     1      26.991  45.482  49.092  1.00  0.00    -0.271 OA
HETATM    6  C   UNL     1      25.215  46.378  50.489  1.00  0.00     0.108 A 
HETATM    7  C   UNL     1      23.910  46.161  49.674  1.00  0.00     0.076 A 
HETATM    8  C   UNL     1      23.673  47.522  49.120  1.00  0.00    -0.035 A 
HETATM    9  C   UNL     1      22.628  47.954  48.319  1.00  0.00     0.009 A 
HETATM   10  C   UNL     1      22.645  49.276  47.867  1.00  0.00     0.001 A 
HETATM   11  C   UNL     1      23.699  50.134  48.213  1.00  0.00     0.002 A 
HETATM   12  C   UNL     1      24.746  49.680  49.020  1.00  0.00     0.024 A 
HETATM   13  C   UNL     1      24.712  48.373  49.474  1.00  0.00     0.015 A 
HETATM   14  N   UNL     1      25.724  47.765  50.258  1.00  0.00    -0.274 NA
HETATM   15  H   UNL     1      26.569  47.732  49.676  1.00  0.00     0.129 HD
ENDROOT
BRANCH   3  16
HETATM   16  C   UNL     1      26.823  42.992  50.816  1.00  0.00     0.037 A 
HETATM   17  C   UNL     1      27.722  42.535  51.787  1.00  0.00     0.030 A 
HETATM   18  C   UNL     1      28.380  41.302  51.655  1.00  0.00     0.014 A 
HETATM   19  C   UNL     1      28.152  40.484  50.548  1.00  0.00    -0.023 A 
HETATM   20  C   UNL     1      27.258  40.929  49.572  1.00  0.00     0.014 A 
HETATM   21  C   UNL     1      26.611  42.167  49.701  1.00  0.00     0.030 A 
BRANCH  19  22
HETATM   22  C   UNL     1      28.815  39.200  50.410  1.00  0.00     0.010 A 
HETATM   23  C   UNL     1      29.739  38.539  51.253  1.00  0.00     0.152 A 
HETATM   24  N   UNL     1      30.113  37.347  50.779  1.00  0.00    -0.187 NA
HETATM   25  N   UNL     1      29.431  37.240  49.628  1.00  0.00    -0.289 N 
HETATM   26  H   UNL     1      29.552  36.399  49.074  1.00  0.00     0.188 HD
HETATM   27  C   UNL     1      28.639  38.320  49.363  1.00  0.00     0.123 A 
ENDBRANCH  19  22
ENDBRANCH   3  16
BRANCH   1  28
HETATM   28  C   UNL     1      26.058  46.752  52.887  1.00  0.00     0.172 C 
BRANCH  28  29
HETATM   29  O   UNL     1      25.457  47.915  53.452  1.00  0.00    -0.400 OA
HETATM   30  H   UNL     1      24.938  48.334  52.742  1.00  0.00     0.209 HD
ENDBRANCH  28  29
ENDBRANCH   1  28
TORSDOF 4
ENDMDL
MODEL 4
REMARK VINA RESULT:      -8.8      6.647     11.957
REMARK  4 active torsions:
REMARK  status: ('A' for Active; 'I' for Inactive)
REMARK    1  A    between atoms: O_1  and  C_2 
REMARK    2  A    between atoms: C_2  and  C_3 
REMARK    3  A    between atoms: N_5  and  C_17 
REMARK    4  A    between atoms: C_20  and  C_23 
ROOT
HETATM    1  C   UNL     1      22.087  49.920  48.029  1.00  0.00     0.060 C 
HETATM    2  C   UNL     1      20.834  50.740  47.717  1.00  0.00     0.141 C 
HETATM    3  N   UNL     1      19.812  50.230  48.610  1.00  0.00    -0.316 N 
HETATM    4  C   UNL     1      20.192  48.985  49.132  1.00  0.00     0.248 C 
HETATM    5  O   UNL     1      19.629  48.293  49.972  1.00  0.00    -0.271 OA
HETATM    6  C   UNL     1      21.499  48.565  48.443  1.00  0.00     0.108 A 
HETATM    7  C   UNL     1      21.159  47.665  47.224  1.00  0.00     0.076 A 
HETATM    8  C   UNL     1      22.011  46.472  47.485  1.00  0.00    -0.035 A 
HETATM    9  C   UNL     1      22.149  45.329  46.716  1.00  0.00     0.009 A 
HETATM   10  C   UNL     1      22.970  44.305  47.195  1.00  0.00     0.001 A 
HETATM   11  C   UNL     1      23.628  44.436  48.427  1.00  0.00     0.002 A 
HETATM   12  C   UNL     1      23.474  45.596  49.191  1.00  0.00     0.024 A 
HETATM   13  C   UNL     1      22.671  46.610  48.700  1.00  0.00     0.015 A 
HETATM   14  N   UNL     1      22.388  47.818  49.385  1.00  0.00    -0.274 NA
HETATM   15  H   UNL     1      21.861  47.563  50.229  1.00  0.00     0.129 HD
ENDROOT
BRANCH   3  16
HETATM   16  C   UNL     1      18.588  50.913  48.855  1.00  0.00     0.037 A 
HETATM   17  C   UNL     1      17.366  50.442  48.358  1.00  0.00     0.030 A 
HETATM   18  C   UNL     1      16.164  51.124  48.599  1.00  0.00     0.014 A 
HETATM   19  C   UNL     1      16.146  52.299  49.352  1.00  0.00    -0.023 A 
HETATM   20  C   UNL     1      17.358  52.781  49.853  1.00  0.00     0.014 A 
HETATM   21  C   UNL     1      18.560  52.102  49.600  1.00  0.00     0.030 A 
BRANCH  19  22
HETATM   22  C   UNL     1      14.906  53.004  49.622  1.00  0.00     0.010 A 
HETATM   23  C   UNL     1      14.062  52.993  50.757  1.00  0.00     0.152 A 
HETATM   24  N   UNL     1      13.005  53.799  50.625  1.00  0.00    -0.187 NA
HETATM   25  N   UNL     1      13.166  54.330  49.403  1.00  0.00    -0.289 N 
HETATM   26  H   UNL     1      12.472  54.990  49.069  1.00  0.00     0.188 HD
HETATM   27  C   UNL     1      14.288  53.888  48.762  1.00  0.00     0.123 A 
ENDBRANCH  19  22
ENDBRANCH   3  16
BRANCH   1  28
HETATM   28  C   UNL     1      22.928  50.591  49.119  1.00  0.00     0.172 C 
BRANCH  28  29
HETATM   29  O   UNL     1      24.249  50.054  49.084  1.00  0.00    -0.400 OA
HETATM   30  H   UNL     1      24.340  49.488  49.872  1.00  0.00     0.209 HD
ENDBRANCH  28  29
ENDBRANCH   1  28
TORSDOF 4
ENDMDL
MODEL 5
REMARK VINA RESULT:      -8.5      7.041     13.568
REMARK  4 active torsions:
REMARK  status: ('A' for Active; 'I' for Inactive)
REMARK    1  A    between atoms: O_1  and  C_2 
REMARK    2  A    between atoms: C_2  and  C_3 
REMARK    3  A    between atoms: N_5  and  C_17 
REMARK    4  A    between atoms: C_20  and  C_23 
ROOT
HETATM    1  C   UNL     1      19.106  49.779  50.146  1.00  0.00     0.060 C 
HETATM    2  C   UNL     1      17.910  50.383  49.408  1.00  0.00     0.141 C 
HETATM    3  N   UNL     1      17.840  49.672  48.147  1.00  0.00    -0.316 N 
HETATM    4  C   UNL     1      19.046  49.000  47.893  1.00  0.00     0.248 C 
HETATM    5  O   UNL     1      19.330  48.239  46.977  1.00  0.00    -0.271 OA
HETATM    6  C   UNL     1      20.042  49.394  48.993  1.00  0.00     0.108 A 
HETATM    7  C   UNL     1      20.898  50.590  48.495  1.00  0.00     0.076 A 
HETATM    8  C   UNL     1      22.280  50.087  48.725  1.00  0.00    -0.035 A 
HETATM    9  C   UNL     1      23.482  50.734  48.488  1.00  0.00     0.009 A 
HETATM   10  C   UNL     1      24.668  50.035  48.729  1.00  0.00     0.001 A 
HETATM   11  C   UNL     1      24.633  48.712  49.191  1.00  0.00     0.002 A 
HETATM   12  C   UNL     1      23.412  48.074  49.422  1.00  0.00     0.024 A 
HETATM   13  C   UNL     1      22.244  48.779  49.195  1.00  0.00     0.015 A 
HETATM   14  N   UNL     1      20.938  48.248  49.342  1.00  0.00    -0.274 NA
HETATM   15  H   UNL     1      20.841  47.506  48.639  1.00  0.00     0.129 HD
ENDROOT
BRANCH   3  16
HETATM   16  C   UNL     1      16.700  49.716  47.295  1.00  0.00     0.037 A 
HETATM   17  C   UNL     1      15.706  48.732  47.340  1.00  0.00     0.030 A 
HETATM   18  C   UNL     1      14.588  48.780  46.493  1.00  0.00     0.014 A 
HETATM   19  C   UNL     1      14.427  49.820  45.577  1.00  0.00    -0.023 A 
HETATM   20  C   UNL     1      15.413  50.808  45.522  1.00  0.00     0.014 A 
HETATM   21  C   UNL     1      16.535  50.751  46.363  1.00  0.00     0.030 A 
BRANCH  19  22
HETATM   22  C   UNL     1      13.267  49.888  44.708  1.00  0.00     0.010 A 
HETATM   23  C   UNL     1      12.529  50.998  44.233  1.00  0.00     0.152 A 
HETATM   24  N   UNL     1      11.522  50.645  43.429  1.00  0.00    -0.187 NA
HETATM   25  N   UNL     1      11.609  49.307  43.387  1.00  0.00    -0.289 N 
HETATM   26  H   UNL     1      10.934  48.798  42.825  1.00  0.00     0.188 HD
HETATM   27  C   UNL     1      12.637  48.805  44.133  1.00  0.00     0.123 A 
ENDBRANCH  19  22
ENDBRANCH   3  16
BRANCH   1  28
HETATM   28  C   UNL     1      18.675  48.596  51.018  1.00  0.00     0.172 C 
BRANCH  28  29
HETATM   29  O   UNL     1      18.664  49.005  52.384  1.00  0.00    -0.400 OA
HETATM   30  H   UNL     1      19.010  48.256  52.902  1.00  0.00     0.209 HD
ENDBRANCH  28  29
ENDBRANCH   1  28
TORSDOF 4
ENDMDL
MODEL 6
REMARK VINA RESULT:      -8.4      5.873      9.526
REMARK  4 active torsions:
REMARK  status: ('A' for Active; 'I' for Inactive)
REMARK    1  A    between atoms: O_1  and  C_2 
REMARK    2  A    between atoms: C_2  and  C_3 
REMARK    3  A    between atoms: N_5  and  C_17 
REMARK    4  A    between atoms: C_20  and  C_23 
ROOT
HETATM    1  C   UNL     1      17.615  49.216  47.271  1.00  0.00     0.060 C 
HETATM    2  C   UNL     1      19.067  48.780  47.060  1.00  0.00     0.141 C 
HETATM    3  N   UNL     1      19.869  49.792  47.716  1.00  0.00    -0.316 N 
HETATM    4  C   UNL     1      19.107  50.946  47.956  1.00  0.00     0.248 C 
HETATM    5  O   UNL     1      19.416  51.968  48.556  1.00  0.00    -0.271 OA
HETATM    6  C   UNL     1      17.733  50.746  47.298  1.00  0.00     0.108 A 
HETATM    7  C   UNL     1      17.760  51.367  45.875  1.00  0.00     0.076 A 
HETATM    8  C   UNL     1      16.568  52.258  45.915  1.00  0.00    -0.035 A 
HETATM    9  C   UNL     1      16.064  53.066  44.908  1.00  0.00     0.009 A 
HETATM   10  C   UNL     1      14.957  53.868  45.196  1.00  0.00     0.001 A 
HETATM   11  C   UNL     1      14.380  53.853  46.474  1.00  0.00     0.002 A 
HETATM   12  C   UNL     1      14.903  53.033  47.478  1.00  0.00     0.024 A 
HETATM   13  C   UNL     1      15.991  52.233  47.178  1.00  0.00     0.015 A 
HETATM   14  N   UNL     1      16.652  51.390  48.106  1.00  0.00    -0.274 NA
HETATM   15  H   UNL     1      17.069  52.002  48.817  1.00  0.00     0.129 HD
ENDROOT
BRANCH   3  16
HETATM   16  C   UNL     1      21.250  49.613  48.013  1.00  0.00     0.037 A 
HETATM   17  C   UNL     1      21.716  48.493  48.711  1.00  0.00     0.030 A 
HETATM   18  C   UNL     1      23.078  48.326  49.006  1.00  0.00     0.014 A 
HETATM   19  C   UNL     1      24.019  49.276  48.604  1.00  0.00    -0.023 A 
HETATM   20  C   UNL     1      23.566  50.399  47.907  1.00  0.00     0.014 A 
HETATM   21  C   UNL     1      22.202  50.568  47.625  1.00  0.00     0.030 A 
BRANCH  19  22
HETATM   22  C   UNL     1      25.432  49.105  48.888  1.00  0.00     0.010 A 
HETATM   23  C   UNL     1      26.562  49.825  48.434  1.00  0.00     0.152 A 
HETATM   24  N   UNL     1      27.709  49.364  48.941  1.00  0.00    -0.187 NA
HETATM   25  N   UNL     1      27.318  48.346  49.723  1.00  0.00    -0.289 N 
HETATM   26  H   UNL     1      28.029  47.827  50.227  1.00  0.00     0.188 HD
HETATM   27  C   UNL     1      25.967  48.151  49.727  1.00  0.00     0.123 A 
ENDBRANCH  19  22
ENDBRANCH   3  16
BRANCH   1  28
HETATM   28  C   UNL     1      17.040  48.615  48.557  1.00  0.00     0.172 C 
BRANCH  28  29
HETATM   29  O   UNL     1      15.647  48.370  48.372  1.00  0.00    -0.400 OA
HETATM   30  H   UNL     1      15.541  48.042  47.461  1.00  0.00     0.209 HD
ENDBRANCH  28  29
ENDBRANCH   1  28
TORSDOF 4
ENDMDL
MODEL 7
REMARK VINA RESULT:      -8.1      5.026      6.421
REMARK  4 active torsions:
REMARK  status: ('A' for Active; 'I' for Inactive)
REMARK    1  A    between atoms: O_1  and  C_2 
REMARK    2  A    between atoms: C_2  and  C_3 
REMARK    3  A    between atoms: N_5  and  C_17 
REMARK    4  A    between atoms: C_20  and  C_23 
ROOT
HETATM    1  C   UNL     1      27.481  39.517  49.409  1.00  0.00     0.060 C 
HETATM    2  C   UNL     1      28.327  40.059  50.563  1.00  0.00     0.141 C 
HETATM    3  N   UNL     1      27.984  41.463  50.663  1.00  0.00    -0.316 N 
HETATM    4  C   UNL     1      27.337  41.896  49.494  1.00  0.00     0.248 C 
HETATM    5  O   UNL     1      26.834  42.984  49.246  1.00  0.00    -0.271 OA
HETATM    6  C   UNL     1      27.365  40.737  48.487  1.00  0.00     0.108 A 
HETATM    7  C   UNL     1      28.600  40.904  47.560  1.00  0.00     0.076 A 
HETATM    8  C   UNL     1      27.976  40.827  46.211  1.00  0.00    -0.035 A 
HETATM    9  C   UNL     1      28.593  40.890  44.972  1.00  0.00     0.009 A 
HETATM   10  C   UNL     1      27.790  40.854  43.830  1.00  0.00     0.001 A 
HETATM   11  C   UNL     1      26.395  40.761  43.943  1.00  0.00     0.002 A 
HETATM   12  C   UNL     1      25.789  40.700  45.201  1.00  0.00     0.024 A 
HETATM   13  C   UNL     1      26.595  40.722  46.325  1.00  0.00     0.015 A 
HETATM   14  N   UNL     1      26.119  40.714  47.660  1.00  0.00    -0.274 NA
HETATM   15  H   UNL     1      25.598  41.589  47.794  1.00  0.00     0.129 HD
ENDROOT
BRANCH   3  16
HETATM   16  C   UNL     1      28.319  42.264  51.791  1.00  0.00     0.037 A 
HETATM   17  C   UNL     1      27.559  43.381  52.155  1.00  0.00     0.030 A 
HETATM   18  C   UNL     1      27.899  44.169  53.266  1.00  0.00     0.014 A 
HETATM   19  C   UNL     1      29.010  43.858  54.052  1.00  0.00    -0.023 A 
HETATM   20  C   UNL     1      29.777  42.746  53.698  1.00  0.00     0.014 A 
HETATM   21  C   UNL     1      29.441  41.967  52.580  1.00  0.00     0.030 A 
BRANCH  19  22
HETATM   22  C   UNL     1      29.362  44.656  55.212  1.00  0.00     0.010 A 
HETATM   23  C   UNL     1      30.517  44.645  56.028  1.00  0.00     0.152 A 
HETATM   24  N   UNL     1      30.470  45.555  57.005  1.00  0.00    -0.187 NA
HETATM   25  N   UNL     1      29.283  46.154  56.819  1.00  0.00    -0.289 N 
HETATM   26  H   UNL     1      29.015  46.899  57.453  1.00  0.00     0.188 HD
HETATM   27  C   UNL     1      28.583  45.654  55.759  1.00  0.00     0.123 A 
ENDBRANCH  19  22
ENDBRANCH   3  16
BRANCH   1  28
HETATM   28  C   UNL     1      26.134  38.990  49.914  1.00  0.00     0.172 C 
BRANCH  28  29
HETATM   29  O   UNL     1      26.277  37.617  50.271  1.00  0.00    -0.400 OA
HETATM   30  H   UNL     1      26.950  37.581  50.975  1.00  0.00     0.209 HD
ENDBRANCH  28  29
ENDBRANCH   1  28
TORSDOF 4
ENDMDL
MODEL 8
REMARK VINA RESULT:      -8.1     12.826     14.102
REMARK  4 active torsions:
REMARK  status: ('A' for Active; 'I' for Inactive)
REMARK    1  A    between atoms: O_1  and  C_2 
REMARK    2  A    between atoms: C_2  and  C_3 
REMARK    3  A    between atoms: N_5  and  C_17 
REMARK    4  A    between atoms: C_20  and  C_23 
ROOT
HETATM    1  C   UNL     1      30.839  51.264  39.177  1.00  0.00     0.060 C 
HETATM    2  C   UNL     1      31.611  52.005  40.271  1.00  0.00     0.141 C 
HETATM    3  N   UNL     1      32.491  51.014  40.856  1.00  0.00    -0.316 N 
HETATM    4  C   UNL     1      32.075  49.719  40.509  1.00  0.00     0.248 C 
HETATM    5  O   UNL     1      32.609  48.644  40.747  1.00  0.00    -0.271 OA
HETATM    6  C   UNL     1      30.747  49.842  39.747  1.00  0.00     0.108 A 
HETATM    7  C   UNL     1      29.572  49.676  40.749  1.00  0.00     0.076 A 
HETATM    8  C   UNL     1      28.770  48.606  40.096  1.00  0.00    -0.035 A 
HETATM    9  C   UNL     1      27.576  48.045  40.521  1.00  0.00     0.009 A 
HETATM   10  C   UNL     1      27.030  47.003  39.768  1.00  0.00     0.001 A 
HETATM   11  C   UNL     1      27.682  46.539  38.616  1.00  0.00     0.002 A 
HETATM   12  C   UNL     1      28.886  47.115  38.204  1.00  0.00     0.024 A 
HETATM   13  C   UNL     1      29.411  48.156  38.949  1.00  0.00     0.015 A 
HETATM   14  N   UNL     1      30.643  48.802  38.677  1.00  0.00    -0.274 NA
HETATM   15  H   UNL     1      31.380  48.099  38.805  1.00  0.00     0.129 HD
ENDROOT
BRANCH   3  16
HETATM   16  C   UNL     1      33.586  51.353  41.699  1.00  0.00     0.037 A 
HETATM   17  C   UNL     1      33.415  51.623  43.062  1.00  0.00     0.030 A 
HETATM   18  C   UNL     1      34.499  51.962  43.885  1.00  0.00     0.014 A 
HETATM   19  C   UNL     1      35.794  52.036  43.370  1.00  0.00    -0.023 A 
HETATM   20  C   UNL     1      35.979  51.770  42.011  1.00  0.00     0.014 A 
HETATM   21  C   UNL     1      34.890  51.442  41.188  1.00  0.00     0.030 A 
BRANCH  19  22
HETATM   22  C   UNL     1      36.925  52.370  44.215  1.00  0.00     0.010 A 
HETATM   23  C   UNL     1      38.108  51.651  44.507  1.00  0.00     0.152 A 
HETATM   24  N   UNL     1      38.926  52.311  45.332  1.00  0.00    -0.187 NA
HETATM   25  N   UNL     1      38.270  53.456  45.573  1.00  0.00    -0.289 N 
HETATM   26  H   UNL     1      38.702  54.138  46.188  1.00  0.00     0.188 HD
HETATM   27  C   UNL     1      37.069  53.542  44.928  1.00  0.00     0.123 A 
ENDBRANCH  19  22
ENDBRANCH   3  16
BRANCH   1  28
HETATM   28  C   UNL     1      31.569  51.348  37.834  1.00  0.00     0.172 C 
BRANCH  28  29
HETATM   29  O   UNL     1      30.612  51.555  36.797  1.00  0.00    -0.400 OA
HETATM   30  H   UNL     1      31.106  51.878  36.022  1.00  0.00     0.209 HD
ENDBRANCH  28  29
ENDBRANCH   1  28
TORSDOF 4
ENDMDL
MODEL 9
REMARK VINA RESULT:      -7.9      3.923      9.731
REMARK  4 active torsions:
REMARK  status: ('A' for Active; 'I' for Inactive)
REMARK    1  A    between atoms: O_1  and  C_2 
REMARK    2  A    between atoms: C_2  and  C_3 
REMARK    3  A    between atoms: N_5  and  C_17 
REMARK    4  A    between atoms: C_20  and  C_23 
ROOT
HETATM    1  C   UNL     1      26.224  46.180  50.960  1.00  0.00     0.060 C 
HETATM    2  C   UNL     1      25.554  45.920  49.610  1.00  0.00     0.141 C 
HETATM    3  N   UNL     1      24.728  44.747  49.813  1.00  0.00    -0.316 N 
HETATM    4  C   UNL     1      25.109  44.073  50.983  1.00  0.00     0.248 C 
HETATM    5  O   UNL     1      24.596  43.097  51.518  1.00  0.00    -0.271 OA
HETATM    6  C   UNL     1      26.364  44.765  51.536  1.00  0.00     0.108 A 
HETATM    7  C   UNL     1      27.623  44.027  51.005  1.00  0.00     0.076 A 
HETATM    8  C   UNL     1      28.362  43.748  52.266  1.00  0.00    -0.035 A 
HETATM    9  C   UNL     1      29.588  43.122  52.425  1.00  0.00     0.009 A 
HETATM   10  C   UNL     1      30.063  42.918  53.723  1.00  0.00     0.001 A 
HETATM   11  C   UNL     1      29.310  43.333  54.831  1.00  0.00     0.002 A 
HETATM   12  C   UNL     1      28.074  43.961  54.652  1.00  0.00     0.024 A 
HETATM   13  C   UNL     1      27.620  44.172  53.362  1.00  0.00     0.015 A 
HETATM   14  N   UNL     1      26.370  44.753  53.031  1.00  0.00    -0.274 NA
HETATM   15  H   UNL     1      25.646  44.111  53.375  1.00  0.00     0.129 HD
ENDROOT
BRANCH   3  16
HETATM   16  C   UNL     1      23.712  44.347  48.899  1.00  0.00     0.037 A 
HETATM   17  C   UNL     1      22.476  45.001  48.836  1.00  0.00     0.030 A 
HETATM   18  C   UNL     1      21.478  44.598  47.936  1.00  0.00     0.014 A 
HETATM   19  C   UNL     1      21.689  43.529  47.064  1.00  0.00    -0.023 A 
HETATM   20  C   UNL     1      22.918  42.867  47.117  1.00  0.00     0.014 A 
HETATM   21  C   UNL     1      23.910  43.266  48.027  1.00  0.00     0.030 A 
BRANCH  19  22
HETATM   22  C   UNL     1      20.670  43.114  46.118  1.00  0.00     0.010 A 
HETATM   23  C   UNL     1      20.494  41.895  45.421  1.00  0.00     0.152 A 
HETATM   24  N   UNL     1      19.410  41.896  44.640  1.00  0.00    -0.187 NA
HETATM   25  N   UNL     1      18.887  43.117  44.833  1.00  0.00    -0.289 N 
HETATM   26  H   UNL     1      18.037  43.360  44.335  1.00  0.00     0.188 HD
HETATM   27  C   UNL     1      19.601  43.883  45.709  1.00  0.00     0.123 A 
ENDBRANCH  19  22
ENDBRANCH   3  16
BRANCH   1  28
HETATM   28  C   UNL     1      25.377  47.120  51.823  1.00  0.00     0.172 C 
BRANCH  28  29
HETATM   29  O   UNL     1      24.488  47.851  50.980  1.00  0.00    -0.400 OA
HETATM   30  H   UNL     1      24.409  47.342  50.152  1.00  0.00     0.209 HD
ENDBRANCH  28  29
ENDBRANCH   1  28
TORSDOF 4
ENDMDL
MODEL 10
REMARK VINA RESULT:      -7.8     11.850     12.746
REMARK  4 active torsions:
REMARK  status: ('A' for Active; 'I' for Inactive)
REMARK    1  A    between atoms: O_1  and  C_2 
REMARK    2  A    between atoms: C_2  and  C_3 
REMARK    3  A    between atoms: N_5  and  C_17 
REMARK    4  A    between atoms: C_20  and  C_23 
ROOT
HETATM    1  C   UNL     1      27.683  47.214  39.688  1.00  0.00     0.060 C 
HETATM    2  C   UNL     1      29.068  47.862  39.671  1.00  0.00     0.141 C 
HETATM    3  N   UNL     1      29.034  48.865  40.717  1.00  0.00    -0.316 N 
HETATM    4  C   UNL     1      27.710  49.144  41.089  1.00  0.00     0.248 C 
HETATM    5  O   UNL     1      27.293  49.868  41.984  1.00  0.00    -0.271 OA
HETATM    6  C   UNL     1      26.783  48.373  40.136  1.00  0.00     0.108 A 
HETATM    7  C   UNL     1      26.381  49.304  38.960  1.00  0.00     0.076 A 
HETATM    8  C   UNL     1      24.897  49.197  38.987  1.00  0.00    -0.035 A 
HETATM    9  C   UNL     1      23.975  49.799  38.145  1.00  0.00     0.009 A 
HETATM   10  C   UNL     1      22.616  49.597  38.400  1.00  0.00     0.001 A 
HETATM   11  C   UNL     1      22.204  48.810  39.486  1.00  0.00     0.002 A 
HETATM   12  C   UNL     1      23.148  48.213  40.326  1.00  0.00     0.024 A 
HETATM   13  C   UNL     1      24.491  48.407  40.056  1.00  0.00     0.015 A 
HETATM   14  N   UNL     1      25.554  47.903  40.846  1.00  0.00    -0.274 NA
HETATM   15  H   UNL     1      25.485  48.363  41.762  1.00  0.00     0.129 HD
ENDROOT
BRANCH   3  16
HETATM   16  C   UNL     1      30.206  49.487  41.232  1.00  0.00     0.037 A 
HETATM   17  C   UNL     1      30.817  49.050  42.413  1.00  0.00     0.030 A 
HETATM   18  C   UNL     1      31.970  49.671  42.917  1.00  0.00     0.014 A 
HETATM   19  C   UNL     1      32.552  50.750  42.249  1.00  0.00    -0.023 A 
HETATM   20  C   UNL     1      31.952  51.197  41.070  1.00  0.00     0.014 A 
HETATM   21  C   UNL     1      30.793  50.579  40.575  1.00  0.00     0.030 A 
BRANCH  19  22
HETATM   22  C   UNL     1      33.753  51.390  42.753  1.00  0.00     0.010 A 
HETATM   23  C   UNL     1      34.032  51.976  44.010  1.00  0.00     0.152 A 
HETATM   24  N   UNL     1      35.277  52.455  44.093  1.00  0.00    -0.187 NA
HETATM   25  N   UNL     1      35.801  52.177  42.889  1.00  0.00    -0.289 N 
HETATM   26  H   UNL     1      36.761  52.450  42.707  1.00  0.00     0.188 HD
HETATM   27  C   UNL     1      34.931  51.540  42.052  1.00  0.00     0.123 A 
ENDBRANCH  19  22
ENDBRANCH   3  16
BRANCH   1  28
HETATM   28  C   UNL     1      27.652  46.005  40.629  1.00  0.00     0.172 C 
BRANCH  28  29
HETATM   29  O   UNL     1      28.608  45.045  40.183  1.00  0.00    -0.400 OA
HETATM   30  H   UNL     1      29.482  45.467  40.258  1.00  0.00     0.209 HD
ENDBRANCH  28  29
ENDBRANCH   1  28
TORSDOF 4
ENDMDL
