MODEL 1
REMARK VINA RESULT:      -8.4      0.000      0.000
REMARK  10 active torsions:
REMARK  status: ('A' for Active; 'I' for Inactive)
REMARK    1  A    between atoms: C_2  and  C_3 
REMARK    2  A    between atoms: C_3  and  N_4 
REMARK    3  A    between atoms: C_7  and  C_8 
REMARK       I    between atoms: C_8  and  N_9 
REMARK    4  A    between atoms: N_9  and  C_10 
REMARK    5  A    between atoms: C_10  and  C_11 
REMARK    6  A    between atoms: C_11  and  O_12 
REMARK    7  A    between atoms: C_11  and  C_13 
REMARK    8  A    between atoms: C_13  and  O_14 
REMARK    9  A    between atoms: O_14  and  C_15 
REMARK   10  A    between atoms: C_23  and  C_24 
ROOT
HETATM    1  C   UNL     1      25.647  44.361  53.541  1.00  0.00     0.255 C 
HETATM    2  N   UNL     1      25.623  44.310  52.165  1.00  0.00    -0.354 N 
HETATM    3  O   UNL     1      24.633  44.383  54.229  1.00  0.00    -0.268 OA
HETATM    4  H   UNL     1      26.516  44.189  51.700  1.00  0.00     0.162 HD
ENDROOT
BRANCH   2   5
HETATM    5  C   UNL     1      24.420  44.005  51.397  1.00  0.00     0.156 C 
BRANCH   5   6
HETATM    6  C   UNL     1      24.316  44.605  49.980  1.00  0.00     0.160 C 
BRANCH   6   7
HETATM    7  O   UNL     1      23.082  45.318  49.829  1.00  0.00    -0.392 OA
HETATM    8  H   UNL     1      23.307  46.260  49.658  1.00  0.00     0.210 HD
ENDBRANCH   6   7
BRANCH   6   9
HETATM    9  C   UNL     1      25.514  45.490  49.613  1.00  0.00     0.209 C 
BRANCH   9  10
HETATM   10  O   UNL     1      25.458  46.700  50.378  1.00  0.00    -0.349 OA
BRANCH  10  11
HETATM   11  C   UNL     1      25.774  47.847  49.702  1.00  0.00     0.069 A 
HETATM   12  C   UNL     1      24.687  48.530  49.149  1.00  0.00     0.043 A 
HETATM   13  C   UNL     1      24.874  49.721  48.436  1.00  0.00    -0.059 A 
HETATM   14  C   UNL     1      23.706  50.452  47.843  1.00  0.00     0.048 C 
HETATM   15  C   UNL     1      26.173  50.205  48.250  1.00  0.00     0.007 A 
HETATM   16  C   UNL     1      27.262  49.517  48.784  1.00  0.00     0.003 A 
HETATM   17  C   UNL     1      27.065  48.341  49.510  1.00  0.00     0.037 A 
ENDBRANCH  10  11
ENDBRANCH   9  10
ENDBRANCH   6   9
ENDBRANCH   5   6
ENDBRANCH   2   5
BRANCH   1  18
HETATM   18  C   UNL     1      26.978  44.333  54.107  1.00  0.00     0.075 A 
HETATM   19  C   UNL     1      27.717  43.161  54.376  1.00  0.00     0.158 A 
HETATM   20  N   UNL     1      28.892  43.407  54.945  1.00  0.00    -0.183 NA
HETATM   21  N   UNL     1      28.896  44.747  55.111  1.00  0.00    -0.268 N 
HETATM   22  C   UNL     1      27.802  45.366  54.537  1.00  0.00     0.052 A 
BRANCH  21  23
HETATM   23  C   UNL     1      29.973  45.347  55.898  1.00  0.00     0.106 C 
HETATM   24  C   UNL     1      29.449  45.763  57.278  1.00  0.00     0.034 C 
BRANCH  23  25
HETATM   25  C   UNL     1      31.203  44.431  56.035  1.00  0.00     0.022 C 
HETATM   26  C   UNL     1      31.406  43.923  57.456  1.00  0.00     0.007 C 
ENDBRANCH  23  25
ENDBRANCH  21  23
BRANCH  22  27
HETATM   27  C   UNL     1      27.617  46.881  54.425  1.00  0.00     0.038 A 
HETATM   28  C   UNL     1      26.210  47.433  54.328  1.00  0.00     0.011 A 
HETATM   29  C   UNL     1      27.024  47.697  55.548  1.00  0.00     0.011 A 
ENDBRANCH  22  27
ENDBRANCH   1  18
TORSDOF 10
ENDMDL
MODEL 2
REMARK VINA RESULT:      -8.1      2.544      7.563
REMARK  10 active torsions:
REMARK  status: ('A' for Active; 'I' for Inactive)
REMARK    1  A    between atoms: C_2  and  C_3 
REMARK    2  A    between atoms: C_3  and  N_4 
REMARK    3  A    between atoms: C_7  and  C_8 
REMARK       I    between atoms: C_8  and  N_9 
REMARK    4  A    between atoms: N_9  and  C_10 
REMARK    5  A    between atoms: C_10  and  C_11 
REMARK    6  A    between atoms: C_11  and  O_12 
REMARK    7  A    between atoms: C_11  and  C_13 
REMARK    8  A    between atoms: C_13  and  O_14 
REMARK    9  A    between atoms: O_14  and  C_15 
REMARK   10  A    between atoms: C_23  and  C_24 
ROOT
HETATM    1  C   UNL     1      26.083  42.476  50.589  1.00  0.00     0.255 C 
HETATM    2  N   UNL     1      27.457  42.383  50.570  1.00  0.00    -0.354 N 
HETATM    3  O   UNL     1      25.352  41.535  50.877  1.00  0.00    -0.268 OA
HETATM    4  H   UNL     1      27.968  43.246  50.422  1.00  0.00     0.162 HD
ENDROOT
BRANCH   2   5
HETATM    5  C   UNL     1      28.191  41.259  51.143  1.00  0.00     0.156 C 
BRANCH   5   6
HETATM    6  C   UNL     1      28.484  41.304  52.657  1.00  0.00     0.160 C 
BRANCH   6   7
HETATM    7  O   UNL     1      28.719  39.983  53.160  1.00  0.00    -0.392 OA
HETATM    8  H   UNL     1      29.625  39.721  52.882  1.00  0.00     0.210 HD
ENDBRANCH   6   7
BRANCH   6   9
HETATM    9  C   UNL     1      29.639  42.247  53.017  1.00  0.00     0.209 C 
BRANCH   9  10
HETATM   10  O   UNL     1      29.120  43.561  53.249  1.00  0.00    -0.349 OA
BRANCH  10  11
HETATM   11  C   UNL     1      29.497  44.151  54.426  1.00  0.00     0.069 A 
HETATM   12  C   UNL     1      30.456  43.449  55.162  1.00  0.00     0.043 A 
HETATM   13  C   UNL     1      30.930  43.945  56.383  1.00  0.00    -0.059 A 
HETATM   14  C   UNL     1      31.959  43.190  57.171  1.00  0.00     0.048 C 
HETATM   15  C   UNL     1      30.405  45.143  56.879  1.00  0.00     0.007 A 
HETATM   16  C   UNL     1      29.436  45.838  56.156  1.00  0.00     0.003 A 
HETATM   17  C   UNL     1      28.982  45.345  54.931  1.00  0.00     0.037 A 
ENDBRANCH  10  11
ENDBRANCH   9  10
ENDBRANCH   6   9
ENDBRANCH   5   6
ENDBRANCH   2   5
BRANCH   1  18
HETATM   18  C   UNL     1      25.580  43.798  50.291  1.00  0.00     0.075 A 
HETATM   19  C   UNL     1      24.923  44.161  49.094  1.00  0.00     0.158 A 
HETATM   20  N   UNL     1      24.608  45.451  49.046  1.00  0.00    -0.183 NA
HETATM   21  N   UNL     1      25.121  45.952  50.191  1.00  0.00    -0.268 N 
HETATM   22  C   UNL     1      25.639  44.977  51.023  1.00  0.00     0.052 A 
BRANCH  21  23
HETATM   23  C   UNL     1      25.126  47.403  50.374  1.00  0.00     0.106 C 
HETATM   24  C   UNL     1      26.470  47.986  49.922  1.00  0.00     0.034 C 
BRANCH  23  25
HETATM   25  C   UNL     1      23.959  48.105  49.658  1.00  0.00     0.022 C 
HETATM   26  C   UNL     1      24.407  49.298  48.824  1.00  0.00     0.007 C 
ENDBRANCH  23  25
ENDBRANCH  21  23
BRANCH  22  27
HETATM   27  C   UNL     1      26.140  45.224  52.448  1.00  0.00     0.038 A 
HETATM   28  C   UNL     1      25.126  45.545  53.526  1.00  0.00     0.011 A 
HETATM   29  C   UNL     1      25.866  44.252  53.569  1.00  0.00     0.011 A 
ENDBRANCH  22  27
ENDBRANCH   1  18
TORSDOF 10
ENDMDL
MODEL 3
REMARK VINA RESULT:      -7.7     11.659     13.318
REMARK  10 active torsions:
REMARK  status: ('A' for Active; 'I' for Inactive)
REMARK    1  A    between atoms: C_2  and  C_3 
REMARK    2  A    between atoms: C_3  and  N_4 
REMARK    3  A    between atoms: C_7  and  C_8 
REMARK       I    between atoms: C_8  and  N_9 
REMARK    4  A    between atoms: N_9  and  C_10 
REMARK    5  A    between atoms: C_10  and  C_11 
REMARK    6  A    between atoms: C_11  and  O_12 
REMARK    7  A    between atoms: C_11  and  C_13 
REMARK    8  A    between atoms: C_13  and  O_14 
REMARK    9  A    between atoms: O_14  and  C_15 
REMARK   10  A    between atoms: C_23  and  C_24 
ROOT
HETATM    1  C   UNL     1      30.473  48.365  40.233  1.00  0.00     0.255 C 
HETATM    2  N   UNL     1      29.293  47.813  40.677  1.00  0.00    -0.354 N 
HETATM    3  O   UNL     1      30.836  48.318  39.063  1.00  0.00    -0.268 OA
HETATM    4  H   UNL     1      29.039  47.999  41.641  1.00  0.00     0.162 HD
ENDROOT
BRANCH   2   5
HETATM    5  C   UNL     1      28.233  47.361  39.780  1.00  0.00     0.156 C 
BRANCH   5   6
HETATM    6  C   UNL     1      26.805  47.873  40.059  1.00  0.00     0.160 C 
BRANCH   6   7
HETATM    7  O   UNL     1      26.322  47.355  41.304  1.00  0.00    -0.392 OA
HETATM    8  H   UNL     1      26.626  47.965  42.013  1.00  0.00     0.210 HD
ENDBRANCH   6   7
BRANCH   6   9
HETATM    9  C   UNL     1      26.698  49.403  40.018  1.00  0.00     0.209 C 
BRANCH   9  10
HETATM   10  O   UNL     1      27.517  49.905  38.956  1.00  0.00    -0.349 OA
BRANCH  10  11
HETATM   11  C   UNL     1      28.121  51.111  39.189  1.00  0.00     0.069 A 
HETATM   12  C   UNL     1      28.580  51.304  40.495  1.00  0.00     0.043 A 
HETATM   13  C   UNL     1      29.220  52.494  40.864  1.00  0.00    -0.059 A 
HETATM   14  C   UNL     1      29.711  52.699  42.266  1.00  0.00     0.048 C 
HETATM   15  C   UNL     1      29.366  53.509  39.913  1.00  0.00     0.007 A 
HETATM   16  C   UNL     1      28.895  53.328  38.613  1.00  0.00     0.003 A 
HETATM   17  C   UNL     1      28.274  52.132  38.249  1.00  0.00     0.037 A 
ENDBRANCH  10  11
ENDBRANCH   9  10
ENDBRANCH   6   9
ENDBRANCH   5   6
ENDBRANCH   2   5
BRANCH   1  18
HETATM   18  C   UNL     1      31.223  49.052  41.261  1.00  0.00     0.075 A 
HETATM   19  C   UNL     1      31.073  48.839  42.648  1.00  0.00     0.158 A 
HETATM   20  N   UNL     1      31.843  49.637  43.382  1.00  0.00    -0.183 NA
HETATM   21  N   UNL     1      32.453  50.424  42.470  1.00  0.00    -0.268 N 
HETATM   22  C   UNL     1      32.184  50.051  41.167  1.00  0.00     0.052 A 
BRANCH  21  23
HETATM   23  C   UNL     1      33.236  51.564  42.949  1.00  0.00     0.106 C 
HETATM   24  C   UNL     1      32.864  51.885  44.401  1.00  0.00     0.034 C 
BRANCH  23  25
HETATM   25  C   UNL     1      34.754  51.353  42.808  1.00  0.00     0.022 C 
HETATM   26  C   UNL     1      35.563  52.240  43.745  1.00  0.00     0.007 C 
ENDBRANCH  23  25
ENDBRANCH  21  23
BRANCH  22  27
HETATM   27  C   UNL     1      32.857  50.653  39.931  1.00  0.00     0.038 A 
HETATM   28  C   UNL     1      31.984  51.274  38.861  1.00  0.00     0.011 A 
HETATM   29  C   UNL     1      32.878  52.141  39.679  1.00  0.00     0.011 A 
ENDBRANCH  22  27
ENDBRANCH   1  18
TORSDOF 10
ENDMDL
MODEL 4
REMARK VINA RESULT:      -7.7      3.924      9.552
REMARK  10 active torsions:
REMARK  status: ('A' for Active; 'I' for Inactive)
REMARK    1  A    between atoms: C_2  and  C_3 
REMARK    2  A    between atoms: C_3  and  N_4 
REMARK    3  A    between atoms: C_7  and  C_8 
REMARK       I    between atoms: C_8  and  N_9 
REMARK    4  A    between atoms: N_9  and  C_10 
REMARK    5  A    between atoms: C_10  and  C_11 
REMARK    6  A    between atoms: C_11  and  O_12 
REMARK    7  A    between atoms: C_11  and  C_13 
REMARK    8  A    between atoms: C_13  and  O_14 
REMARK    9  A    between atoms: O_14  and  C_15 
REMARK   10  A    between atoms: C_23  and  C_24 
ROOT
HETATM    1  C   UNL     1      22.182  47.532  48.440  1.00  0.00     0.255 C 
HETATM    2  N   UNL     1      22.979  47.328  49.544  1.00  0.00    -0.354 N 
HETATM    3  O   UNL     1      22.369  46.971  47.367  1.00  0.00    -0.268 OA
HETATM    4  H   UNL     1      22.674  47.760  50.409  1.00  0.00     0.162 HD
ENDROOT
BRANCH   2   5
HETATM    5  C   UNL     1      23.947  46.241  49.643  1.00  0.00     0.156 C 
BRANCH   5   6
HETATM    6  C   UNL     1      25.230  46.507  50.458  1.00  0.00     0.160 C 
BRANCH   6   7
HETATM    7  O   UNL     1      25.263  47.869  50.905  1.00  0.00    -0.392 OA
HETATM    8  H   UNL     1      24.560  47.971  51.584  1.00  0.00     0.210 HD
ENDBRANCH   6   7
BRANCH   6   9
HETATM    9  C   UNL     1      25.408  45.536  51.631  1.00  0.00     0.209 C 
BRANCH   9  10
HETATM   10  O   UNL     1      25.365  46.268  52.861  1.00  0.00    -0.349 OA
BRANCH  10  11
HETATM   11  C   UNL     1      26.498  46.214  53.626  1.00  0.00     0.069 A 
HETATM   12  C   UNL     1      27.143  44.974  53.646  1.00  0.00     0.043 A 
HETATM   13  C   UNL     1      28.316  44.786  54.388  1.00  0.00    -0.059 A 
HETATM   14  C   UNL     1      29.006  43.454  54.408  1.00  0.00     0.048 C 
HETATM   15  C   UNL     1      28.821  45.850  55.142  1.00  0.00     0.007 A 
HETATM   16  C   UNL     1      28.172  47.084  55.139  1.00  0.00     0.003 A 
HETATM   17  C   UNL     1      27.013  47.268  54.382  1.00  0.00     0.037 A 
ENDBRANCH  10  11
ENDBRANCH   9  10
ENDBRANCH   6   9
ENDBRANCH   5   6
ENDBRANCH   2   5
BRANCH   1  18
HETATM   18  C   UNL     1      21.071  48.429  48.675  1.00  0.00     0.075 A 
HETATM   19  C   UNL     1      19.795  48.031  49.129  1.00  0.00     0.158 A 
HETATM   20  N   UNL     1      18.935  49.041  49.212  1.00  0.00    -0.183 NA
HETATM   21  N   UNL     1      19.634  50.098  48.744  1.00  0.00    -0.268 N 
HETATM   22  C   UNL     1      20.960  49.801  48.492  1.00  0.00     0.052 A 
BRANCH  21  23
HETATM   23  C   UNL     1      18.921  51.353  48.509  1.00  0.00     0.106 C 
HETATM   24  C   UNL     1      17.698  51.106  47.617  1.00  0.00     0.034 C 
BRANCH  23  25
HETATM   25  C   UNL     1      18.512  52.067  49.810  1.00  0.00     0.022 C 
HETATM   26  C   UNL     1      17.048  52.487  49.819  1.00  0.00     0.007 C 
ENDBRANCH  23  25
ENDBRANCH  21  23
BRANCH  22  27
HETATM   27  C   UNL     1      22.026  50.830  48.109  1.00  0.00     0.038 A 
HETATM   28  C   UNL     1      23.146  51.111  49.089  1.00  0.00     0.011 A 
HETATM   29  C   UNL     1      23.447  50.429  47.798  1.00  0.00     0.011 A 
ENDBRANCH  22  27
ENDBRANCH   1  18
TORSDOF 10
ENDMDL
MODEL 5
REMARK VINA RESULT:      -7.6     12.763     15.327
REMARK  10 active torsions:
REMARK  status: ('A' for Active; 'I' for Inactive)
REMARK    1  A    between atoms: C_2  and  C_3 
REMARK    2  A    between atoms: C_3  and  N_4 
REMARK    3  A    between atoms: C_7  and  C_8 
REMARK       I    between atoms: C_8  and  N_9 
REMARK    4  A    between atoms: N_9  and  C_10 
REMARK    5  A    between atoms: C_10  and  C_11 
REMARK    6  A    between atoms: C_11  and  O_12 
REMARK    7  A    between atoms: C_11  and  C_13 
REMARK    8  A    between atoms: C_13  and  O_14 
REMARK    9  A    between atoms: O_14  and  C_15 
REMARK   10  A    between atoms: C_23  and  C_24 
ROOT
HETATM    1  C   UNL     1      32.223  52.450  39.844  1.00  0.00     0.255 C 
HETATM    2  N   UNL     1      33.504  52.150  39.438  1.00  0.00    -0.354 N 
HETATM    3  O   UNL     1      31.919  53.513  40.374  1.00  0.00    -0.268 OA
HETATM    4  H   UNL     1      33.625  51.289  38.918  1.00  0.00     0.162 HD
ENDROOT
BRANCH   2   5
HETATM    5  C   UNL     1      34.566  53.146  39.342  1.00  0.00     0.156 C 
BRANCH   5   6
HETATM    6  C   UNL     1      35.894  52.834  40.063  1.00  0.00     0.160 C 
BRANCH   6   7
HETATM    7  O   UNL     1      36.164  53.824  41.064  1.00  0.00    -0.392 OA
HETATM    8  H   UNL     1      37.130  54.004  41.046  1.00  0.00     0.210 HD
ENDBRANCH   6   7
BRANCH   6   9
HETATM    9  C   UNL     1      35.936  51.421  40.658  1.00  0.00     0.209 C 
BRANCH   9  10
HETATM   10  O   UNL     1      35.577  51.481  42.043  1.00  0.00    -0.349 OA
BRANCH  10  11
HETATM   11  C   UNL     1      34.359  50.946  42.367  1.00  0.00     0.069 A 
HETATM   12  C   UNL     1      34.014  49.788  41.664  1.00  0.00     0.043 A 
HETATM   13  C   UNL     1      32.796  49.139  41.903  1.00  0.00    -0.059 A 
HETATM   14  C   UNL     1      32.427  47.897  41.148  1.00  0.00     0.048 C 
HETATM   15  C   UNL     1      31.907  49.685  42.834  1.00  0.00     0.007 A 
HETATM   16  C   UNL     1      32.240  50.849  43.525  1.00  0.00     0.003 A 
HETATM   17  C   UNL     1      33.464  51.480  43.294  1.00  0.00     0.037 A 
ENDBRANCH  10  11
ENDBRANCH   9  10
ENDBRANCH   6   9
ENDBRANCH   5   6
ENDBRANCH   2   5
BRANCH   1  18
HETATM   18  C   UNL     1      31.254  51.418  39.543  1.00  0.00     0.075 A 
HETATM   19  C   UNL     1      31.396  50.452  38.523  1.00  0.00     0.158 A 
HETATM   20  N   UNL     1      30.340  49.651  38.418  1.00  0.00    -0.183 NA
HETATM   21  N   UNL     1      29.472  50.138  39.330  1.00  0.00    -0.268 N 
HETATM   22  C   UNL     1      30.012  51.150  40.103  1.00  0.00     0.052 A 
BRANCH  21  23
HETATM   23  C   UNL     1      28.110  49.607  39.347  1.00  0.00     0.106 C 
HETATM   24  C   UNL     1      27.378  49.993  38.056  1.00  0.00     0.034 C 
BRANCH  23  25
HETATM   25  C   UNL     1      28.059  48.085  39.569  1.00  0.00     0.022 C 
HETATM   26  C   UNL     1      28.555  47.671  40.948  1.00  0.00     0.007 C 
ENDBRANCH  23  25
ENDBRANCH  21  23
BRANCH  22  27
HETATM   27  C   UNL     1      29.324  51.781  41.316  1.00  0.00     0.038 A 
HETATM   28  C   UNL     1      28.553  53.069  41.122  1.00  0.00     0.011 A 
HETATM   29  C   UNL     1      27.822  51.814  41.454  1.00  0.00     0.011 A 
ENDBRANCH  22  27
ENDBRANCH   1  18
TORSDOF 10
ENDMDL
MODEL 6
REMARK VINA RESULT:      -7.6      1.846      3.280
REMARK  10 active torsions:
REMARK  status: ('A' for Active; 'I' for Inactive)
REMARK    1  A    between atoms: C_2  and  C_3 
REMARK    2  A    between atoms: C_3  and  N_4 
REMARK    3  A    between atoms: C_7  and  C_8 
REMARK       I    between atoms: C_8  and  N_9 
REMARK    4  A    between atoms: N_9  and  C_10 
REMARK    5  A    between atoms: C_10  and  C_11 
REMARK    6  A    between atoms: C_11  and  O_12 
REMARK    7  A    between atoms: C_11  and  C_13 
REMARK    8  A    between atoms: C_13  and  O_14 
REMARK    9  A    between atoms: O_14  and  C_15 
REMARK   10  A    between atoms: C_23  and  C_24 
ROOT
HETATM    1  C   UNL     1      26.253  46.040  53.417  1.00  0.00     0.255 C 
HETATM    2  N   UNL     1      26.514  47.001  52.465  1.00  0.00    -0.354 N 
HETATM    3  O   UNL     1      25.292  45.281  53.357  1.00  0.00    -0.268 OA
HETATM    4  H   UNL     1      27.389  47.503  52.556  1.00  0.00     0.162 HD
ENDROOT
BRANCH   2   5
HETATM    5  C   UNL     1      25.849  47.041  51.166  1.00  0.00     0.156 C 
BRANCH   5   6
HETATM    6  C   UNL     1      26.591  47.752  50.015  1.00  0.00     0.160 C 
BRANCH   6   7
HETATM    7  O   UNL     1      27.275  46.796  49.196  1.00  0.00    -0.392 OA
HETATM    8  H   UNL     1      27.833  46.247  49.790  1.00  0.00     0.210 HD
ENDBRANCH   6   7
BRANCH   6   9
HETATM    9  C   UNL     1      25.673  48.646  49.172  1.00  0.00     0.209 C 
BRANCH   9  10
HETATM   10  O   UNL     1      24.326  48.171  49.277  1.00  0.00    -0.349 OA
BRANCH  10  11
HETATM   11  C   UNL     1      23.351  49.062  48.918  1.00  0.00     0.069 A 
HETATM   12  C   UNL     1      22.126  48.490  48.561  1.00  0.00     0.043 A 
HETATM   13  C   UNL     1      21.043  49.291  48.178  1.00  0.00    -0.059 A 
HETATM   14  C   UNL     1      19.730  48.676  47.795  1.00  0.00     0.048 C 
HETATM   15  C   UNL     1      21.211  50.678  48.121  1.00  0.00     0.007 A 
HETATM   16  C   UNL     1      22.436  51.253  48.459  1.00  0.00     0.003 A 
HETATM   17  C   UNL     1      23.505  50.448  48.858  1.00  0.00     0.037 A 
ENDBRANCH  10  11
ENDBRANCH   9  10
ENDBRANCH   6   9
ENDBRANCH   5   6
ENDBRANCH   2   5
BRANCH   1  18
HETATM   18  C   UNL     1      27.243  45.972  54.469  1.00  0.00     0.075 A 
HETATM   19  C   UNL     1      27.251  46.783  55.625  1.00  0.00     0.158 A 
HETATM   20  N   UNL     1      28.299  46.558  56.410  1.00  0.00    -0.183 NA
HETATM   21  N   UNL     1      29.020  45.640  55.730  1.00  0.00    -0.268 N 
HETATM   22  C   UNL     1      28.379  45.182  54.594  1.00  0.00     0.052 A 
BRANCH  21  23
HETATM   23  C   UNL     1      30.356  45.303  56.220  1.00  0.00     0.106 C 
HETATM   24  C   UNL     1      30.535  45.813  57.655  1.00  0.00     0.034 C 
BRANCH  23  25
HETATM   25  C   UNL     1      30.670  43.799  56.133  1.00  0.00     0.022 C 
HETATM   26  C   UNL     1      31.789  43.372  57.073  1.00  0.00     0.007 C 
ENDBRANCH  23  25
ENDBRANCH  21  23
BRANCH  22  27
HETATM   27  C   UNL     1      28.876  44.031  53.717  1.00  0.00     0.038 A 
HETATM   28  C   UNL     1      28.071  42.748  53.681  1.00  0.00     0.011 A 
HETATM   29  C   UNL     1      28.146  43.608  52.466  1.00  0.00     0.011 A 
ENDBRANCH  22  27
ENDBRANCH   1  18
TORSDOF 10
ENDMDL
MODEL 7
REMARK VINA RESULT:      -7.5     12.214     14.829
REMARK  10 active torsions:
REMARK  status: ('A' for Active; 'I' for Inactive)
REMARK    1  A    between atoms: C_2  and  C_3 
REMARK    2  A    between atoms: C_3  and  N_4 
REMARK    3  A    between atoms: C_7  and  C_8 
REMARK       I    between atoms: C_8  and  N_9 
REMARK    4  A    between atoms: N_9  and  C_10 
REMARK    5  A    between atoms: C_10  and  C_11 
REMARK    6  A    between atoms: C_11  and  O_12 
REMARK    7  A    between atoms: C_11  and  C_13 
REMARK    8  A    between atoms: C_13  and  O_14 
REMARK    9  A    between atoms: O_14  and  C_15 
REMARK   10  A    between atoms: C_23  and  C_24 
ROOT
HETATM    1  C   UNL     1      29.310  50.868  38.467  1.00  0.00     0.255 C 
HETATM    2  N   UNL     1      29.082  49.620  39.004  1.00  0.00    -0.354 N 
HETATM    3  O   UNL     1      28.418  51.577  38.017  1.00  0.00    -0.268 OA
HETATM    4  H   UNL     1      29.873  49.163  39.442  1.00  0.00     0.162 HD
ENDROOT
BRANCH   2   5
HETATM    5  C   UNL     1      27.751  49.126  39.342  1.00  0.00     0.156 C 
BRANCH   5   6
HETATM    6  C   UNL     1      27.199  49.480  40.739  1.00  0.00     0.160 C 
BRANCH   6   7
HETATM    7  O   UNL     1      26.300  48.460  41.193  1.00  0.00    -0.392 OA
HETATM    8  H   UNL     1      26.842  47.674  41.427  1.00  0.00     0.210 HD
ENDBRANCH   6   7
BRANCH   6   9
HETATM    9  C   UNL     1      28.304  49.743  41.770  1.00  0.00     0.209 C 
BRANCH   9  10
HETATM   10  O   UNL     1      29.110  48.567  41.908  1.00  0.00    -0.349 OA
BRANCH  10  11
HETATM   11  C   UNL     1      30.463  48.763  41.856  1.00  0.00     0.069 A 
HETATM   12  C   UNL     1      30.941  49.823  42.633  1.00  0.00     0.043 A 
HETATM   13  C   UNL     1      32.307  50.128  42.672  1.00  0.00    -0.059 A 
HETATM   14  C   UNL     1      32.817  51.266  43.505  1.00  0.00     0.048 C 
HETATM   15  C   UNL     1      33.192  49.377  41.892  1.00  0.00     0.007 A 
HETATM   16  C   UNL     1      32.719  48.330  41.102  1.00  0.00     0.003 A 
HETATM   17  C   UNL     1      31.357  48.021  41.083  1.00  0.00     0.037 A 
ENDBRANCH  10  11
ENDBRANCH   9  10
ENDBRANCH   6   9
ENDBRANCH   5   6
ENDBRANCH   2   5
BRANCH   1  18
HETATM   18  C   UNL     1      30.692  51.290  38.529  1.00  0.00     0.075 A 
HETATM   19  C   UNL     1      31.682  50.954  37.580  1.00  0.00     0.158 A 
HETATM   20  N   UNL     1      32.885  51.423  37.897  1.00  0.00    -0.183 NA
HETATM   21  N   UNL     1      32.695  52.014  39.097  1.00  0.00    -0.268 N 
HETATM   22  C   UNL     1      31.368  52.042  39.482  1.00  0.00     0.052 A 
BRANCH  21  23
HETATM   23  C   UNL     1      33.869  52.472  39.839  1.00  0.00     0.106 C 
HETATM   24  C   UNL     1      34.984  51.422  39.763  1.00  0.00     0.034 C 
BRANCH  23  25
HETATM   25  C   UNL     1      34.381  53.846  39.370  1.00  0.00     0.022 C 
HETATM   26  C   UNL     1      35.898  53.903  39.252  1.00  0.00     0.007 C 
ENDBRANCH  23  25
ENDBRANCH  21  23
BRANCH  22  27
HETATM   27  C   UNL     1      30.832  52.784  40.708  1.00  0.00     0.038 A 
HETATM   28  C   UNL     1      30.836  54.298  40.698  1.00  0.00     0.011 A 
HETATM   29  C   UNL     1      29.540  53.563  40.669  1.00  0.00     0.011 A 
ENDBRANCH  22  27
ENDBRANCH   1  18
TORSDOF 10
ENDMDL
MODEL 8
REMARK VINA RESULT:      -7.5      2.862      8.388
REMARK  10 active torsions:
REMARK  status: ('A' for Active; 'I' for Inactive)
REMARK    1  A    between atoms: C_2  and  C_3 
REMARK    2  A    between atoms: C_3  and  N_4 
REMARK    3  A    between atoms: C_7  and  C_8 
REMARK       I    between atoms: C_8  and  N_9 
REMARK    4  A    between atoms: N_9  and  C_10 
REMARK    5  A    between atoms: C_10  and  C_11 
REMARK    6  A    between atoms: C_11  and  O_12 
REMARK    7  A    between atoms: C_11  and  C_13 
REMARK    8  A    between atoms: C_13  and  O_14 
REMARK    9  A    between atoms: O_14  and  C_15 
REMARK   10  A    between atoms: C_23  and  C_24 
ROOT
HETATM    1  C   UNL     1      25.650  43.416  51.269  1.00  0.00     0.255 C 
HETATM    2  N   UNL     1      26.402  42.424  50.681  1.00  0.00    -0.354 N 
HETATM    3  O   UNL     1      25.982  43.986  52.302  1.00  0.00    -0.268 OA
HETATM    4  H   UNL     1      26.090  42.094  49.775  1.00  0.00     0.162 HD
ENDROOT
BRANCH   2   5
HETATM    5  C   UNL     1      27.781  42.134  51.061  1.00  0.00     0.156 C 
BRANCH   5   6
HETATM    6  C   UNL     1      28.002  41.126  52.208  1.00  0.00     0.160 C 
BRANCH   6   7
HETATM    7  O   UNL     1      28.954  40.128  51.819  1.00  0.00    -0.392 OA
HETATM    8  H   UNL     1      28.599  39.681  51.019  1.00  0.00     0.210 HD
ENDBRANCH   6   7
BRANCH   6   9
HETATM    9  C   UNL     1      28.411  41.796  53.526  1.00  0.00     0.209 C 
BRANCH   9  10
HETATM   10  O   UNL     1      29.018  43.062  53.242  1.00  0.00    -0.349 OA
BRANCH  10  11
HETATM   11  C   UNL     1      29.376  43.808  54.333  1.00  0.00     0.069 A 
HETATM   12  C   UNL     1      30.389  43.256  55.123  1.00  0.00     0.043 A 
HETATM   13  C   UNL     1      30.851  43.921  56.266  1.00  0.00    -0.059 A 
HETATM   14  C   UNL     1      31.937  43.327  57.113  1.00  0.00     0.048 C 
HETATM   15  C   UNL     1      30.261  45.135  56.631  1.00  0.00     0.007 A 
HETATM   16  C   UNL     1      29.239  45.682  55.854  1.00  0.00     0.003 A 
HETATM   17  C   UNL     1      28.797  45.021  54.707  1.00  0.00     0.037 A 
ENDBRANCH  10  11
ENDBRANCH   9  10
ENDBRANCH   6   9
ENDBRANCH   5   6
ENDBRANCH   2   5
BRANCH   1  18
HETATM   18  C   UNL     1      24.457  43.765  50.529  1.00  0.00     0.075 A 
HETATM   19  C   UNL     1      23.332  42.927  50.369  1.00  0.00     0.158 A 
HETATM   20  N   UNL     1      22.391  43.462  49.599  1.00  0.00    -0.183 NA
HETATM   21  N   UNL     1      22.931  44.632  49.195  1.00  0.00    -0.268 N 
HETATM   22  C   UNL     1      24.142  44.907  49.803  1.00  0.00     0.052 A 
BRANCH  21  23
HETATM   23  C   UNL     1      22.234  45.401  48.164  1.00  0.00     0.106 C 
HETATM   24  C   UNL     1      22.358  44.695  46.808  1.00  0.00     0.034 C 
BRANCH  23  25
HETATM   25  C   UNL     1      20.758  45.670  48.506  1.00  0.00     0.022 C 
HETATM   26  C   UNL     1      19.804  45.212  47.411  1.00  0.00     0.007 C 
ENDBRANCH  23  25
ENDBRANCH  21  23
BRANCH  22  27
HETATM   27  C   UNL     1      24.907  46.225  49.665  1.00  0.00     0.038 A 
HETATM   28  C   UNL     1      24.217  47.509  50.077  1.00  0.00     0.011 A 
HETATM   29  C   UNL     1      25.374  47.006  50.869  1.00  0.00     0.011 A 
ENDBRANCH  22  27
ENDBRANCH   1  18
TORSDOF 10
ENDMDL
MODEL 9
REMARK VINA RESULT:      -7.4      4.005      6.744
REMARK  10 active torsions:
REMARK  status: ('A' for Active; 'I' for Inactive)
REMARK    1  A    between atoms: C_2  and  C_3 
REMARK    2  A    between atoms: C_3  and  N_4 
REMARK    3  A    between atoms: C_7  and  C_8 
REMARK       I    between atoms: C_8  and  N_9 
REMARK    4  A    between atoms: N_9  and  C_10 
REMARK    5  A    between atoms: C_10  and  C_11 
REMARK    6  A    between atoms: C_11  and  O_12 
REMARK    7  A    between atoms: C_11  and  C_13 
REMARK    8  A    between atoms: C_13  and  O_14 
REMARK    9  A    between atoms: O_14  and  C_15 
REMARK   10  A    between atoms: C_23  and  C_24 
ROOT
HETATM    1  C   UNL     1      26.665  43.070  49.243  1.00  0.00     0.255 C 
HETATM    2  N   UNL     1      25.301  43.147  49.070  1.00  0.00    -0.354 N 
HETATM    3  O   UNL     1      27.351  44.025  49.589  1.00  0.00    -0.268 OA
HETATM    4  H   UNL     1      24.817  42.276  48.886  1.00  0.00     0.162 HD
ENDROOT
BRANCH   2   5
HETATM    5  C   UNL     1      24.498  44.275  49.533  1.00  0.00     0.156 C 
BRANCH   5   6
HETATM    6  C   UNL     1      24.139  44.319  51.033  1.00  0.00     0.160 C 
BRANCH   6   7
HETATM    7  O   UNL     1      24.173  43.000  51.593  1.00  0.00    -0.392 OA
HETATM    8  H   UNL     1      23.506  42.971  52.314  1.00  0.00     0.210 HD
ENDBRANCH   6   7
BRANCH   6   9
HETATM    9  C   UNL     1      25.023  45.282  51.834  1.00  0.00     0.209 C 
BRANCH   9  10
HETATM   10  O   UNL     1      25.381  44.671  53.078  1.00  0.00    -0.349 OA
BRANCH  10  11
HETATM   11  C   UNL     1      26.333  45.325  53.812  1.00  0.00     0.069 A 
HETATM   12  C   UNL     1      25.948  46.576  54.304  1.00  0.00     0.043 A 
HETATM   13  C   UNL     1      26.828  47.348  55.073  1.00  0.00    -0.059 A 
HETATM   14  C   UNL     1      26.413  48.689  55.600  1.00  0.00     0.048 C 
HETATM   15  C   UNL     1      28.118  46.866  55.318  1.00  0.00     0.007 A 
HETATM   16  C   UNL     1      28.513  45.627  54.814  1.00  0.00     0.003 A 
HETATM   17  C   UNL     1      27.623  44.856  54.063  1.00  0.00     0.037 A 
ENDBRANCH  10  11
ENDBRANCH   9  10
ENDBRANCH   6   9
ENDBRANCH   5   6
ENDBRANCH   2   5
BRANCH   1  18
HETATM   18  C   UNL     1      27.209  41.747  49.032  1.00  0.00     0.075 A 
HETATM   19  C   UNL     1      27.554  41.207  47.774  1.00  0.00     0.158 A 
HETATM   20  N   UNL     1      27.983  39.951  47.848  1.00  0.00    -0.183 NA
HETATM   21  N   UNL     1      27.855  39.643  49.157  1.00  0.00    -0.268 N 
HETATM   22  C   UNL     1      27.479  40.723  49.933  1.00  0.00     0.052 A 
BRANCH  21  23
HETATM   23  C   UNL     1      28.057  38.254  49.567  1.00  0.00     0.106 C 
HETATM   24  C   UNL     1      27.304  37.311  48.621  1.00  0.00     0.034 C 
BRANCH  23  25
HETATM   25  C   UNL     1      29.543  37.862  49.659  1.00  0.00     0.022 C 
HETATM   26  C   UNL     1      30.016  37.670  51.093  1.00  0.00     0.007 C 
ENDBRANCH  23  25
ENDBRANCH  21  23
BRANCH  22  27
HETATM   27  C   UNL     1      27.411  40.717  51.461  1.00  0.00     0.038 A 
HETATM   28  C   UNL     1      28.687  40.950  52.243  1.00  0.00     0.011 A 
HETATM   29  C   UNL     1      27.604  41.974  52.273  1.00  0.00     0.011 A 
ENDBRANCH  22  27
ENDBRANCH   1  18
TORSDOF 10
ENDMDL
MODEL 10
REMARK VINA RESULT:      -7.4      3.650      9.496
REMARK  10 active torsions:
REMARK  status: ('A' for Active; 'I' for Inactive)
REMARK    1  A    between atoms: C_2  and  C_3 
REMARK    2  A    between atoms: C_3  and  N_4 
REMARK    3  A    between atoms: C_7  and  C_8 
REMARK       I    between atoms: C_8  and  N_9 
REMARK    4  A    between atoms: N_9  and  C_10 
REMARK    5  A    between atoms: C_10  and  C_11 
REMARK    6  A    between atoms: C_11  and  O_12 
REMARK    7  A    between atoms: C_11  and  C_13 
REMARK    8  A    between atoms: C_13  and  O_14 
REMARK    9  A    between atoms: O_14  and  C_15 
REMARK   10  A    between atoms: C_23  and  C_24 
ROOT
HETATM    1  C   UNL     1      24.015  48.421  49.462  1.00  0.00     0.255 C 
HETATM    2  N   UNL     1      23.904  47.392  50.369  1.00  0.00    -0.354 N 
HETATM    3  O   UNL     1      25.034  48.640  48.818  1.00  0.00    -0.268 OA
HETATM    4  H   UNL     1      22.986  47.236  50.769  1.00  0.00     0.162 HD
ENDROOT
BRANCH   2   5
HETATM    5  C   UNL     1      24.871  46.303  50.465  1.00  0.00     0.156 C 
BRANCH   5   6
HETATM    6  C   UNL     1      24.912  45.508  51.788  1.00  0.00     0.160 C 
BRANCH   6   7
HETATM    7  O   UNL     1      23.864  44.531  51.816  1.00  0.00    -0.392 OA
HETATM    8  H   UNL     1      24.061  43.871  51.115  1.00  0.00     0.210 HD
ENDBRANCH   6   7
BRANCH   6   9
HETATM    9  C   UNL     1      26.277  44.864  52.058  1.00  0.00     0.209 C 
BRANCH   9  10
HETATM   10  O   UNL     1      26.881  45.496  53.193  1.00  0.00    -0.349 OA
BRANCH  10  11
HETATM   11  C   UNL     1      27.931  44.825  53.759  1.00  0.00     0.069 A 
HETATM   12  C   UNL     1      28.518  45.459  54.858  1.00  0.00     0.043 A 
HETATM   13  C   UNL     1      29.599  44.877  55.532  1.00  0.00    -0.059 A 
HETATM   14  C   UNL     1      30.227  45.559  56.710  1.00  0.00     0.048 C 
HETATM   15  C   UNL     1      30.111  43.661  55.069  1.00  0.00     0.007 A 
HETATM   16  C   UNL     1      29.540  43.032  53.963  1.00  0.00     0.003 A 
HETATM   17  C   UNL     1      28.451  43.611  53.308  1.00  0.00     0.037 A 
ENDBRANCH  10  11
ENDBRANCH   9  10
ENDBRANCH   6   9
ENDBRANCH   5   6
ENDBRANCH   2   5
BRANCH   1  18
HETATM   18  C   UNL     1      22.801  49.191  49.296  1.00  0.00     0.075 A 
HETATM   19  C   UNL     1      22.680  50.573  49.558  1.00  0.00     0.158 A 
HETATM   20  N   UNL     1      21.445  51.029  49.378  1.00  0.00    -0.183 NA
HETATM   21  N   UNL     1      20.736  49.924  49.059  1.00  0.00    -0.268 N 
HETATM   22  C   UNL     1      21.527  48.801  48.905  1.00  0.00     0.052 A 
BRANCH  21  23
HETATM   23  C   UNL     1      19.279  50.031  48.984  1.00  0.00     0.106 C 
HETATM   24  C   UNL     1      18.775  51.077  49.984  1.00  0.00     0.034 C 
BRANCH  23  25
HETATM   25  C   UNL     1      18.771  50.343  47.564  1.00  0.00     0.022 C 
HETATM   26  C   UNL     1      18.365  51.800  47.389  1.00  0.00     0.007 C 
ENDBRANCH  23  25
ENDBRANCH  21  23
BRANCH  22  27
HETATM   27  C   UNL     1      21.028  47.448  48.393  1.00  0.00     0.038 A 
HETATM   28  C   UNL     1      20.776  47.284  46.909  1.00  0.00     0.011 A 
HETATM   29  C   UNL     1      21.896  46.543  47.554  1.00  0.00     0.011 A 
ENDBRANCH  22  27
ENDBRANCH   1  18
TORSDOF 10
ENDMDL
