MODEL 1
REMARK VINA RESULT:      -9.2      0.000      0.000
REMARK  3 active torsions:
REMARK  status: ('A' for Active; 'I' for Inactive)
REMARK    1  A    between atoms: C_6  and  C_7 
REMARK       I    between atoms: C_7  and  N_8 
REMARK    2  A    between atoms: N_8  and  C_9 
REMARK    3  A    between atoms: C_9  and  C_10 
ROOT
HETATM    1  C   UNL     1      26.764  45.087  53.090  1.00  0.00     0.271 C 
HETATM    2  N   UNL     1      26.687  45.999  52.066  1.00  0.00    -0.341 N 
HETATM    3  O   UNL     1      26.224  43.988  53.015  1.00  0.00    -0.266 OA
HETATM    4  H   UNL     1      27.014  46.942  52.236  1.00  0.00     0.164 HD
ENDROOT
BRANCH   1   5
HETATM    5  C   UNL     1      27.500  45.527  54.253  1.00  0.00     0.133 A 
HETATM    6  N   UNL     1      28.600  44.865  54.783  1.00  0.00    -0.300 N 
HETATM    7  C   UNL     1      29.038  45.611  55.873  1.00  0.00     0.135 A 
HETATM    8  C   UNL     1      29.221  43.672  54.399  1.00  0.00     0.100 A 
HETATM    9  C   UNL     1      30.168  45.133  56.594  1.00  0.00     0.057 A 
HETATM   10  N   UNL     1      28.302  46.682  56.054  1.00  0.00    -0.233 NA
HETATM   11  C   UNL     1      30.781  43.987  56.225  1.00  0.00    -0.057 A 
HETATM   12  C   UNL     1      31.980  43.442  56.940  1.00  0.00     0.048 C 
HETATM   13  C   UNL     1      30.285  43.222  55.084  1.00  0.00     0.024 A 
HETATM   14  C   UNL     1      27.359  46.659  55.054  1.00  0.00     0.066 A 
HETATM   15  C   UNL     1      26.410  47.796  54.953  1.00  0.00     0.073 C 
ENDBRANCH   1   5
BRANCH   2  16
HETATM   16  C   UNL     1      25.996  45.794  50.778  1.00  0.00     0.079 C 
HETATM   17  C   UNL     1      26.767  44.781  49.912  1.00  0.00     0.046 C 
HETATM   18  C   UNL     1      24.551  45.323  51.018  1.00  0.00     0.046 C 
BRANCH  16  19
HETATM   19  C   UNL     1      25.991  47.163  50.093  1.00  0.00     0.128 A 
HETATM   20  S   UNL     1      27.393  47.857  49.368  1.00  0.00    -0.031 SA
HETATM   21  C   UNL     1      26.428  49.211  48.943  1.00  0.00     0.187 A 
HETATM   22  N   UNL     1      26.944  50.265  48.286  1.00  0.00    -0.377 N 
HETATM   23  N   UNL     1      25.177  49.111  49.330  1.00  0.00    -0.124 NA
HETATM   24  H   UNL     1      27.944  50.416  48.323  1.00  0.00     0.158 HD
HETATM   25  H   UNL     1      26.391  51.116  48.304  1.00  0.00     0.158 HD
HETATM   26  N   UNL     1      24.919  47.930  49.993  1.00  0.00    -0.142 NA
ENDBRANCH  16  19
ENDBRANCH   2  16
TORSDOF 3
ENDMDL
MODEL 2
REMARK VINA RESULT:      -9.0      2.620      4.130
REMARK  3 active torsions:
REMARK  status: ('A' for Active; 'I' for Inactive)
REMARK    1  A    between atoms: C_6  and  C_7 
REMARK       I    between atoms: C_7  and  N_8 
REMARK    2  A    between atoms: N_8  and  C_9 
REMARK    3  A    between atoms: C_9  and  C_10 
ROOT
HETATM    1  C   UNL     1      26.537  44.738  53.398  1.00  0.00     0.271 C 
HETATM    2  N   UNL     1      26.918  44.962  52.098  1.00  0.00    -0.341 N 
HETATM    3  O   UNL     1      25.519  44.110  53.672  1.00  0.00    -0.266 OA
HETATM    4  H   UNL     1      27.674  45.613  51.924  1.00  0.00     0.164 HD
ENDROOT
BRANCH   1   5
HETATM    5  C   UNL     1      27.403  45.312  54.402  1.00  0.00     0.133 A 
HETATM    6  N   UNL     1      28.537  44.691  54.909  1.00  0.00    -0.300 N 
HETATM    7  C   UNL     1      29.106  45.570  55.826  1.00  0.00     0.135 A 
HETATM    8  C   UNL     1      29.085  43.433  54.645  1.00  0.00     0.100 A 
HETATM    9  C   UNL     1      30.295  45.158  56.491  1.00  0.00     0.057 A 
HETATM   10  N   UNL     1      28.419  46.684  55.921  1.00  0.00    -0.233 NA
HETATM   11  C   UNL     1      30.838  43.948  56.235  1.00  0.00    -0.057 A 
HETATM   12  C   UNL     1      32.093  43.466  56.896  1.00  0.00     0.048 C 
HETATM   13  C   UNL     1      30.206  43.046  55.277  1.00  0.00     0.024 A 
HETATM   14  C   UNL     1      27.375  46.553  55.037  1.00  0.00     0.066 A 
HETATM   15  C   UNL     1      26.447  47.700  54.867  1.00  0.00     0.073 C 
ENDBRANCH   1   5
BRANCH   2  16
HETATM   16  C   UNL     1      26.208  44.483  50.896  1.00  0.00     0.079 C 
HETATM   17  C   UNL     1      24.696  44.746  51.026  1.00  0.00     0.046 C 
HETATM   18  C   UNL     1      26.776  45.160  49.636  1.00  0.00     0.046 C 
BRANCH  16  19
HETATM   19  C   UNL     1      26.469  42.975  50.838  1.00  0.00     0.128 A 
HETATM   20  S   UNL     1      25.263  41.830  50.380  1.00  0.00    -0.031 SA
HETATM   21  C   UNL     1      26.435  40.597  50.611  1.00  0.00     0.187 A 
HETATM   22  N   UNL     1      26.140  39.300  50.417  1.00  0.00    -0.377 N 
HETATM   23  N   UNL     1      27.606  41.047  50.999  1.00  0.00    -0.124 NA
HETATM   24  H   UNL     1      25.169  39.014  50.451  1.00  0.00     0.158 HD
HETATM   25  H   UNL     1      26.788  38.630  50.819  1.00  0.00     0.158 HD
HETATM   26  N   UNL     1      27.631  42.419  51.131  1.00  0.00    -0.142 NA
ENDBRANCH  16  19
ENDBRANCH   2  16
TORSDOF 3
ENDMDL
MODEL 3
REMARK VINA RESULT:      -8.9      2.038      3.125
REMARK  3 active torsions:
REMARK  status: ('A' for Active; 'I' for Inactive)
REMARK    1  A    between atoms: C_6  and  C_7 
REMARK       I    between atoms: C_7  and  N_8 
REMARK    2  A    between atoms: N_8  and  C_9 
REMARK    3  A    between atoms: C_9  and  C_10 
ROOT
HETATM    1  C   UNL     1      26.542  43.590  51.822  1.00  0.00     0.271 C 
HETATM    2  N   UNL     1      26.778  44.633  50.960  1.00  0.00    -0.341 N 
HETATM    3  O   UNL     1      25.403  43.243  52.117  1.00  0.00    -0.266 OA
HETATM    4  H   UNL     1      27.726  44.978  50.871  1.00  0.00     0.164 HD
ENDROOT
BRANCH   1   5
HETATM    5  C   UNL     1      27.724  42.960  52.364  1.00  0.00     0.133 A 
HETATM    6  N   UNL     1      28.453  43.451  53.439  1.00  0.00    -0.300 N 
HETATM    7  C   UNL     1      29.492  42.555  53.670  1.00  0.00     0.135 A 
HETATM    8  C   UNL     1      28.286  44.611  54.202  1.00  0.00     0.100 A 
HETATM    9  C   UNL     1      30.391  42.841  54.736  1.00  0.00     0.057 A 
HETATM   10  N   UNL     1      29.459  41.548  52.830  1.00  0.00    -0.233 NA
HETATM   11  C   UNL     1      30.233  43.953  55.485  1.00  0.00    -0.057 A 
HETATM   12  C   UNL     1      31.141  44.300  56.625  1.00  0.00     0.048 C 
HETATM   13  C   UNL     1      29.139  44.880  55.205  1.00  0.00     0.024 A 
HETATM   14  C   UNL     1      28.365  41.769  52.027  1.00  0.00     0.066 A 
HETATM   15  C   UNL     1      28.022  40.747  51.006  1.00  0.00     0.073 C 
ENDBRANCH   1   5
BRANCH   2  16
HETATM   16  C   UNL     1      25.746  45.436  50.276  1.00  0.00     0.079 C 
HETATM   17  C   UNL     1      25.096  44.622  49.143  1.00  0.00     0.046 C 
HETATM   18  C   UNL     1      24.688  45.915  51.285  1.00  0.00     0.046 C 
BRANCH  16  19
HETATM   19  C   UNL     1      26.488  46.641  49.688  1.00  0.00     0.128 A 
HETATM   20  S   UNL     1      25.816  48.229  49.648  1.00  0.00    -0.031 SA
HETATM   21  C   UNL     1      27.266  48.756  48.895  1.00  0.00     0.187 A 
HETATM   22  N   UNL     1      27.445  50.038  48.531  1.00  0.00    -0.377 N 
HETATM   23  N   UNL     1      28.143  47.796  48.708  1.00  0.00    -0.124 NA
HETATM   24  H   UNL     1      26.629  50.622  48.401  1.00  0.00     0.158 HD
HETATM   25  H   UNL     1      28.197  50.214  47.872  1.00  0.00     0.158 HD
HETATM   26  N   UNL     1      27.699  46.574  49.165  1.00  0.00    -0.142 NA
ENDBRANCH  16  19
ENDBRANCH   2  16
TORSDOF 3
ENDMDL
MODEL 4
REMARK VINA RESULT:      -8.3      2.768      7.939
REMARK  3 active torsions:
REMARK  status: ('A' for Active; 'I' for Inactive)
REMARK    1  A    between atoms: C_6  and  C_7 
REMARK       I    between atoms: C_7  and  N_8 
REMARK    2  A    between atoms: N_8  and  C_9 
REMARK    3  A    between atoms: C_9  and  C_10 
ROOT
HETATM    1  C   UNL     1      25.569  46.654  49.987  1.00  0.00     0.271 C 
HETATM    2  N   UNL     1      26.052  46.633  51.272  1.00  0.00    -0.341 N 
HETATM    3  O   UNL     1      25.297  45.620  49.384  1.00  0.00    -0.266 OA
HETATM    4  H   UNL     1      26.406  47.496  51.667  1.00  0.00     0.164 HD
ENDROOT
BRANCH   1   5
HETATM    5  C   UNL     1      25.432  47.968  49.401  1.00  0.00     0.133 A 
HETATM    6  N   UNL     1      24.217  48.594  49.152  1.00  0.00    -0.300 N 
HETATM    7  C   UNL     1      24.506  49.844  48.613  1.00  0.00     0.135 A 
HETATM    8  C   UNL     1      22.905  48.151  49.343  1.00  0.00     0.100 A 
HETATM    9  C   UNL     1      23.413  50.688  48.269  1.00  0.00     0.057 A 
HETATM   10  N   UNL     1      25.800  50.042  48.515  1.00  0.00    -0.233 NA
HETATM   11  C   UNL     1      22.142  50.273  48.459  1.00  0.00    -0.057 A 
HETATM   12  C   UNL     1      20.953  51.122  48.126  1.00  0.00     0.048 C 
HETATM   13  C   UNL     1      21.875  48.949  49.014  1.00  0.00     0.024 A 
HETATM   14  C   UNL     1      26.389  48.904  49.013  1.00  0.00     0.066 A 
HETATM   15  C   UNL     1      27.870  48.857  49.099  1.00  0.00     0.073 C 
ENDBRANCH   1   5
BRANCH   2  16
HETATM   16  C   UNL     1      26.282  45.425  52.087  1.00  0.00     0.079 C 
HETATM   17  C   UNL     1      24.954  44.689  52.343  1.00  0.00     0.046 C 
HETATM   18  C   UNL     1      27.297  44.499  51.393  1.00  0.00     0.046 C 
BRANCH  16  19
HETATM   19  C   UNL     1      26.859  45.928  53.413  1.00  0.00     0.128 A 
HETATM   20  S   UNL     1      27.899  44.977  54.408  1.00  0.00    -0.031 SA
HETATM   21  C   UNL     1      27.965  46.300  55.498  1.00  0.00     0.187 A 
HETATM   22  N   UNL     1      28.675  46.239  56.638  1.00  0.00    -0.377 N 
HETATM   23  N   UNL     1      27.256  47.337  55.114  1.00  0.00    -0.124 NA
HETATM   24  H   UNL     1      28.905  45.328  57.017  1.00  0.00     0.158 HD
HETATM   25  H   UNL     1      28.457  46.941  57.338  1.00  0.00     0.158 HD
HETATM   26  N   UNL     1      26.617  47.128  53.911  1.00  0.00    -0.142 NA
ENDBRANCH  16  19
ENDBRANCH   2  16
TORSDOF 3
ENDMDL
MODEL 5
REMARK VINA RESULT:      -8.0      2.650      4.248
REMARK  3 active torsions:
REMARK  status: ('A' for Active; 'I' for Inactive)
REMARK    1  A    between atoms: C_6  and  C_7 
REMARK       I    between atoms: C_7  and  N_8 
REMARK    2  A    between atoms: N_8  and  C_9 
REMARK    3  A    between atoms: C_9  and  C_10 
ROOT
HETATM    1  C   UNL     1      27.035  44.167  52.993  1.00  0.00     0.271 C 
HETATM    2  N   UNL     1      27.189  44.778  51.773  1.00  0.00    -0.341 N 
HETATM    3  O   UNL     1      25.926  43.912  53.451  1.00  0.00    -0.266 OA
HETATM    4  H   UNL     1      28.111  45.106  51.512  1.00  0.00     0.164 HD
ENDROOT
BRANCH   1   5
HETATM    5  C   UNL     1      28.264  43.877  53.696  1.00  0.00     0.133 A 
HETATM    6  N   UNL     1      28.711  44.568  54.815  1.00  0.00    -0.300 N 
HETATM    7  C   UNL     1      29.907  43.975  55.208  1.00  0.00     0.135 A 
HETATM    8  C   UNL     1      28.167  45.666  55.488  1.00  0.00     0.100 A 
HETATM    9  C   UNL     1      30.571  44.512  56.347  1.00  0.00     0.057 A 
HETATM   10  N   UNL     1      30.231  42.972  54.427  1.00  0.00    -0.233 NA
HETATM   11  C   UNL     1      30.049  45.566  57.011  1.00  0.00    -0.057 A 
HETATM   12  C   UNL     1      30.697  46.165  58.222  1.00  0.00     0.048 C 
HETATM   13  C   UNL     1      28.798  46.172  56.561  1.00  0.00     0.024 A 
HETATM   14  C   UNL     1      29.221  42.883  53.499  1.00  0.00     0.066 A 
HETATM   15  C   UNL     1      29.272  41.780  52.506  1.00  0.00     0.073 C 
ENDBRANCH   1   5
BRANCH   2  16
HETATM   16  C   UNL     1      26.097  45.176  50.864  1.00  0.00     0.079 C 
HETATM   17  C   UNL     1      25.029  45.979  51.628  1.00  0.00     0.046 C 
HETATM   18  C   UNL     1      26.656  45.990  49.684  1.00  0.00     0.046 C 
BRANCH  16  19
HETATM   19  C   UNL     1      25.491  43.865  50.351  1.00  0.00     0.128 A 
HETATM   20  S   UNL     1      26.426  42.635  49.585  1.00  0.00    -0.031 SA
HETATM   21  C   UNL     1      24.981  41.722  49.427  1.00  0.00     0.187 A 
HETATM   22  N   UNL     1      24.973  40.513  48.839  1.00  0.00    -0.377 N 
HETATM   23  N   UNL     1      23.920  42.324  49.915  1.00  0.00    -0.124 NA
HETATM   24  H   UNL     1      25.729  40.276  48.209  1.00  0.00     0.158 HD
HETATM   25  H   UNL     1      24.064  40.162  48.554  1.00  0.00     0.158 HD
HETATM   26  N   UNL     1      24.210  43.561  50.450  1.00  0.00    -0.142 NA
ENDBRANCH  16  19
ENDBRANCH   2  16
TORSDOF 3
ENDMDL
MODEL 6
REMARK VINA RESULT:      -8.0      2.620      4.099
REMARK  3 active torsions:
REMARK  status: ('A' for Active; 'I' for Inactive)
REMARK    1  A    between atoms: C_6  and  C_7 
REMARK       I    between atoms: C_7  and  N_8 
REMARK    2  A    between atoms: N_8  and  C_9 
REMARK    3  A    between atoms: C_9  and  C_10 
ROOT
HETATM    1  C   UNL     1      26.855  44.196  52.770  1.00  0.00     0.271 C 
HETATM    2  N   UNL     1      26.940  44.857  51.570  1.00  0.00    -0.341 N 
HETATM    3  O   UNL     1      25.823  44.198  53.435  1.00  0.00    -0.266 OA
HETATM    4  H   UNL     1      27.851  44.956  51.138  1.00  0.00     0.164 HD
ENDROOT
BRANCH   1   5
HETATM    5  C   UNL     1      28.065  43.530  53.194  1.00  0.00     0.133 A 
HETATM    6  N   UNL     1      28.834  43.918  54.284  1.00  0.00    -0.300 N 
HETATM    7  C   UNL     1      29.891  43.017  54.376  1.00  0.00     0.135 A 
HETATM    8  C   UNL     1      28.688  44.988  55.171  1.00  0.00     0.100 A 
HETATM    9  C   UNL     1      30.833  43.204  55.428  1.00  0.00     0.057 A 
HETATM   10  N   UNL     1      29.834  42.103  53.437  1.00  0.00    -0.233 NA
HETATM   11  C   UNL     1      30.695  44.229  56.296  1.00  0.00    -0.057 A 
HETATM   12  C   UNL     1      31.647  44.468  57.428  1.00  0.00     0.048 C 
HETATM   13  C   UNL     1      29.581  45.163  56.160  1.00  0.00     0.024 A 
HETATM   14  C   UNL     1      28.704  42.391  52.708  1.00  0.00     0.066 A 
HETATM   15  C   UNL     1      28.328  41.476  51.600  1.00  0.00     0.073 C 
ENDBRANCH   1   5
BRANCH   2  16
HETATM   16  C   UNL     1      25.849  45.610  50.920  1.00  0.00     0.079 C 
HETATM   17  C   UNL     1      25.215  46.600  51.915  1.00  0.00     0.046 C 
HETATM   18  C   UNL     1      26.377  46.345  49.676  1.00  0.00     0.046 C 
BRANCH  16  19
HETATM   19  C   UNL     1      24.816  44.559  50.504  1.00  0.00     0.128 A 
HETATM   20  S   UNL     1      25.108  43.392  49.269  1.00  0.00    -0.031 SA
HETATM   21  C   UNL     1      23.531  42.781  49.559  1.00  0.00     0.187 A 
HETATM   22  N   UNL     1      23.035  41.747  48.856  1.00  0.00    -0.377 N 
HETATM   23  N   UNL     1      22.880  43.425  50.501  1.00  0.00    -0.124 NA
HETATM   24  H   UNL     1      23.444  41.535  47.955  1.00  0.00     0.158 HD
HETATM   25  H   UNL     1      22.029  41.619  48.901  1.00  0.00     0.158 HD
HETATM   26  N   UNL     1      23.618  44.451  51.051  1.00  0.00    -0.142 NA
ENDBRANCH  16  19
ENDBRANCH   2  16
TORSDOF 3
ENDMDL
MODEL 7
REMARK VINA RESULT:      -7.8      2.590      2.942
REMARK  3 active torsions:
REMARK  status: ('A' for Active; 'I' for Inactive)
REMARK    1  A    between atoms: C_6  and  C_7 
REMARK       I    between atoms: C_7  and  N_8 
REMARK    2  A    between atoms: N_8  and  C_9 
REMARK    3  A    between atoms: C_9  and  C_10 
ROOT
HETATM    1  C   UNL     1      26.063  44.175  52.688  1.00  0.00     0.271 C 
HETATM    2  N   UNL     1      26.643  43.895  51.476  1.00  0.00    -0.341 N 
HETATM    3  O   UNL     1      24.916  43.826  52.949  1.00  0.00    -0.266 OA
HETATM    4  H   UNL     1      27.527  44.335  51.252  1.00  0.00     0.164 HD
ENDROOT
BRANCH   1   5
HETATM    5  C   UNL     1      26.889  44.922  53.609  1.00  0.00     0.133 A 
HETATM    6  N   UNL     1      28.039  44.428  54.210  1.00  0.00    -0.300 N 
HETATM    7  C   UNL     1      28.557  45.452  54.999  1.00  0.00     0.135 A 
HETATM    8  C   UNL     1      28.643  43.170  54.132  1.00  0.00     0.100 A 
HETATM    9  C   UNL     1      29.752  45.189  55.727  1.00  0.00     0.057 A 
HETATM   10  N   UNL     1      27.824  46.537  54.928  1.00  0.00    -0.233 NA
HETATM   11  C   UNL     1      30.348  43.979  55.651  1.00  0.00    -0.057 A 
HETATM   12  C   UNL     1      31.612  43.649  56.385  1.00  0.00     0.048 C 
HETATM   13  C   UNL     1      29.768  42.924  54.824  1.00  0.00     0.024 A 
HETATM   14  C   UNL     1      26.800  46.238  54.061  1.00  0.00     0.066 A 
HETATM   15  C   UNL     1      25.829  47.308  53.720  1.00  0.00     0.073 C 
ENDBRANCH   1   5
BRANCH   2  16
HETATM   16  C   UNL     1      26.012  43.149  50.370  1.00  0.00     0.079 C 
HETATM   17  C   UNL     1      27.008  42.966  49.210  1.00  0.00     0.046 C 
HETATM   18  C   UNL     1      25.497  41.787  50.871  1.00  0.00     0.046 C 
BRANCH  16  19
HETATM   19  C   UNL     1      24.835  44.013  49.910  1.00  0.00     0.128 A 
HETATM   20  S   UNL     1      23.223  43.412  49.777  1.00  0.00    -0.031 SA
HETATM   21  C   UNL     1      22.748  44.978  49.259  1.00  0.00     0.187 A 
HETATM   22  N   UNL     1      21.473  45.256  48.935  1.00  0.00    -0.377 N 
HETATM   23  N   UNL     1      23.739  45.839  49.202  1.00  0.00    -0.124 NA
HETATM   24  H   UNL     1      20.860  44.490  48.684  1.00  0.00     0.158 HD
HETATM   25  H   UNL     1      21.324  46.105  48.400  1.00  0.00     0.158 HD
HETATM   26  N   UNL     1      24.945  45.287  49.578  1.00  0.00    -0.142 NA
ENDBRANCH  16  19
ENDBRANCH   2  16
TORSDOF 3
ENDMDL
MODEL 8
REMARK VINA RESULT:      -7.7      4.809      9.360
REMARK  3 active torsions:
REMARK  status: ('A' for Active; 'I' for Inactive)
REMARK    1  A    between atoms: C_6  and  C_7 
REMARK       I    between atoms: C_7  and  N_8 
REMARK    2  A    between atoms: N_8  and  C_9 
REMARK    3  A    between atoms: C_9  and  C_10 
ROOT
HETATM    1  C   UNL     1      23.792  48.005  49.368  1.00  0.00     0.271 C 
HETATM    2  N   UNL     1      24.015  46.757  49.894  1.00  0.00    -0.341 N 
HETATM    3  O   UNL     1      24.601  48.917  49.507  1.00  0.00    -0.266 OA
HETATM    4  H   UNL     1      23.253  46.089  49.886  1.00  0.00     0.164 HD
ENDROOT
BRANCH   1   5
HETATM    5  C   UNL     1      22.537  48.165  48.669  1.00  0.00     0.133 A 
HETATM    6  N   UNL     1      21.751  49.309  48.719  1.00  0.00    -0.300 N 
HETATM    7  C   UNL     1      20.649  49.081  47.900  1.00  0.00     0.135 A 
HETATM    8  C   UNL     1      21.918  50.503  49.427  1.00  0.00     0.100 A 
HETATM    9  C   UNL     1      19.682  50.119  47.782  1.00  0.00     0.057 A 
HETATM   10  N   UNL     1      20.694  47.892  47.346  1.00  0.00    -0.233 NA
HETATM   11  C   UNL     1      19.840  51.280  48.454  1.00  0.00    -0.057 A 
HETATM   12  C   UNL     1      18.862  52.412  48.360  1.00  0.00     0.048 C 
HETATM   13  C   UNL     1      21.002  51.480  49.316  1.00  0.00     0.024 A 
HETATM   14  C   UNL     1      21.860  47.318  47.793  1.00  0.00     0.066 A 
HETATM   15  C   UNL     1      22.229  45.977  47.275  1.00  0.00     0.073 C 
ENDBRANCH   1   5
BRANCH   2  16
HETATM   16  C   UNL     1      25.213  46.339  50.647  1.00  0.00     0.079 C 
HETATM   17  C   UNL     1      26.489  46.676  49.855  1.00  0.00     0.046 C 
HETATM   18  C   UNL     1      25.233  47.013  52.031  1.00  0.00     0.046 C 
BRANCH  16  19
HETATM   19  C   UNL     1      25.088  44.822  50.809  1.00  0.00     0.128 A 
HETATM   20  S   UNL     1      26.391  43.734  50.504  1.00  0.00    -0.031 SA
HETATM   21  C   UNL     1      25.337  42.449  50.932  1.00  0.00     0.187 A 
HETATM   22  N   UNL     1      25.742  41.167  50.905  1.00  0.00    -0.377 N 
HETATM   23  N   UNL     1      24.129  42.844  51.263  1.00  0.00    -0.124 NA
HETATM   24  H   UNL     1      26.543  40.925  50.336  1.00  0.00     0.158 HD
HETATM   25  H   UNL     1      25.007  40.467  50.915  1.00  0.00     0.158 HD
HETATM   26  N   UNL     1      23.981  44.213  51.195  1.00  0.00    -0.142 NA
ENDBRANCH  16  19
ENDBRANCH   2  16
TORSDOF 3
ENDMDL
MODEL 9
REMARK VINA RESULT:      -7.6      4.456      6.622
REMARK  3 active torsions:
REMARK  status: ('A' for Active; 'I' for Inactive)
REMARK    1  A    between atoms: C_6  and  C_7 
REMARK       I    between atoms: C_7  and  N_8 
REMARK    2  A    between atoms: N_8  and  C_9 
REMARK    3  A    between atoms: C_9  and  C_10 
ROOT
HETATM    1  C   UNL     1      23.797  48.023  49.618  1.00  0.00     0.271 C 
HETATM    2  N   UNL     1      22.435  48.161  49.513  1.00  0.00    -0.341 N 
HETATM    3  O   UNL     1      24.561  48.941  49.339  1.00  0.00    -0.266 OA
HETATM    4  H   UNL     1      21.858  47.333  49.604  1.00  0.00     0.164 HD
ENDROOT
BRANCH   1   5
HETATM    5  C   UNL     1      24.252  46.721  50.051  1.00  0.00     0.133 A 
HETATM    6  N   UNL     1      24.953  46.486  51.227  1.00  0.00    -0.300 N 
HETATM    7  C   UNL     1      25.184  45.115  51.296  1.00  0.00     0.135 A 
HETATM    8  C   UNL     1      25.409  47.368  52.211  1.00  0.00     0.100 A 
HETATM    9  C   UNL     1      25.895  44.617  52.424  1.00  0.00     0.057 A 
HETATM   10  N   UNL     1      24.678  44.486  50.262  1.00  0.00    -0.233 NA
HETATM   11  C   UNL     1      26.331  45.460  53.385  1.00  0.00    -0.057 A 
HETATM   12  C   UNL     1      27.073  44.992  54.599  1.00  0.00     0.048 C 
HETATM   13  C   UNL     1      26.083  46.895  53.273  1.00  0.00     0.024 A 
HETATM   14  C   UNL     1      24.083  45.456  49.491  1.00  0.00     0.066 A 
HETATM   15  C   UNL     1      23.353  45.036  48.269  1.00  0.00     0.073 C 
ENDBRANCH   1   5
BRANCH   2  16
HETATM   16  C   UNL     1      21.722  49.383  49.095  1.00  0.00     0.079 C 
HETATM   17  C   UNL     1      22.044  50.547  50.050  1.00  0.00     0.046 C 
HETATM   18  C   UNL     1      22.091  49.745  47.645  1.00  0.00     0.046 C 
BRANCH  16  19
HETATM   19  C   UNL     1      20.232  49.039  49.182  1.00  0.00     0.128 A 
HETATM   20  S   UNL     1      19.625  47.437  48.988  1.00  0.00    -0.031 SA
HETATM   21  C   UNL     1      18.050  48.069  49.241  1.00  0.00     0.187 A 
HETATM   22  N   UNL     1      16.961  47.281  49.211  1.00  0.00    -0.377 N 
HETATM   23  N   UNL     1      18.027  49.366  49.444  1.00  0.00    -0.124 NA
HETATM   24  H   UNL     1      17.020  46.392  48.730  1.00  0.00     0.158 HD
HETATM   25  H   UNL     1      16.069  47.754  49.108  1.00  0.00     0.158 HD
HETATM   26  N   UNL     1      19.285  49.931  49.412  1.00  0.00    -0.142 NA
ENDBRANCH  16  19
ENDBRANCH   2  16
TORSDOF 3
ENDMDL
MODEL 10
REMARK VINA RESULT:      -7.4      3.741      7.824
REMARK  3 active torsions:
REMARK  status: ('A' for Active; 'I' for Inactive)
REMARK    1  A    between atoms: C_6  and  C_7 
REMARK       I    between atoms: C_7  and  N_8 
REMARK    2  A    between atoms: N_8  and  C_9 
REMARK    3  A    between atoms: C_9  and  C_10 
ROOT
HETATM    1  C   UNL     1      26.030  46.591  49.835  1.00  0.00     0.271 C 
HETATM    2  N   UNL     1      25.497  46.303  51.067  1.00  0.00    -0.341 N 
HETATM    3  O   UNL     1      26.717  45.778  49.224  1.00  0.00    -0.266 OA
HETATM    4  H   UNL     1      25.072  47.056  51.595  1.00  0.00     0.164 HD
ENDROOT
BRANCH   1   5
HETATM    5  C   UNL     1      25.744  47.916  49.333  1.00  0.00     0.133 A 
HETATM    6  N   UNL     1      24.468  48.398  49.071  1.00  0.00    -0.300 N 
HETATM    7  C   UNL     1      24.611  49.711  48.632  1.00  0.00     0.135 A 
HETATM    8  C   UNL     1      23.219  47.778  49.171  1.00  0.00     0.100 A 
HETATM    9  C   UNL     1      23.430  50.431  48.295  1.00  0.00     0.057 A 
HETATM   10  N   UNL     1      25.870  50.079  48.608  1.00  0.00    -0.233 NA
HETATM   11  C   UNL     1      22.219  49.844  48.397  1.00  0.00    -0.057 A 
HETATM   12  C   UNL     1      20.942  50.556  48.068  1.00  0.00     0.048 C 
HETATM   13  C   UNL     1      22.107  48.459  48.849  1.00  0.00     0.024 A 
HETATM   14  C   UNL     1      26.584  48.993  49.054  1.00  0.00     0.066 A 
HETATM   15  C   UNL     1      28.055  49.130  49.206  1.00  0.00     0.073 C 
ENDBRANCH   1   5
BRANCH   2  16
HETATM   16  C   UNL     1      25.643  45.027  51.793  1.00  0.00     0.079 C 
HETATM   17  C   UNL     1      27.126  44.623  51.875  1.00  0.00     0.046 C 
HETATM   18  C   UNL     1      25.026  45.141  53.199  1.00  0.00     0.046 C 
BRANCH  16  19
HETATM   19  C   UNL     1      24.869  43.995  50.968  1.00  0.00     0.128 A 
HETATM   20  S   UNL     1      25.632  42.678  50.156  1.00  0.00    -0.031 SA
HETATM   21  C   UNL     1      24.078  42.194  49.611  1.00  0.00     0.187 A 
HETATM   22  N   UNL     1      23.910  41.116  48.826  1.00  0.00    -0.377 N 
HETATM   23  N   UNL     1      23.107  42.978  50.021  1.00  0.00    -0.124 NA
HETATM   24  H   UNL     1      24.703  40.778  48.294  1.00  0.00     0.158 HD
HETATM   25  H   UNL     1      23.021  41.049  48.342  1.00  0.00     0.158 HD
HETATM   26  N   UNL     1      23.558  44.018  50.806  1.00  0.00    -0.142 NA
ENDBRANCH  16  19
ENDBRANCH   2  16
TORSDOF 3
ENDMDL
