MODEL 1
REMARK VINA RESULT:      -9.4      0.000      0.000
REMARK  4 active torsions:
REMARK  status: ('A' for Active; 'I' for Inactive)
REMARK    1  A    between atoms: C_5  and  N_6 
REMARK       I    between atoms: N_6  and  C_7 
REMARK    2  A    between atoms: C_7  and  C_8 
REMARK    3  A    between atoms: C_12  and  C_13 
REMARK    4  A    between atoms: N_24  and  C_25 
ROOT
HETATM    1  N   UNL     1      22.430  47.465  48.624  1.00  0.00    -0.348 N 
HETATM    2  C   UNL     1      22.373  48.737  48.118  1.00  0.00     0.257 C 
HETATM    3  O   UNL     1      23.336  49.268  47.568  1.00  0.00    -0.267 OA
HETATM    4  H   UNL     1      21.590  47.052  49.029  1.00  0.00     0.163 HD
ENDROOT
BRANCH   1   5
HETATM    5  C   UNL     1      23.630  46.667  48.506  1.00  0.00     0.122 C 
HETATM    6  C   UNL     1      23.357  45.236  47.985  1.00  0.00     0.039 C 
HETATM    7  C   UNL     1      22.905  44.210  49.068  1.00  0.00    -0.040 C 
HETATM    8  C   UNL     1      22.831  42.816  48.410  1.00  0.00     0.015 C 
HETATM    9  C   UNL     1      21.497  44.549  49.600  1.00  0.00     0.015 C 
HETATM   10  C   UNL     1      23.913  44.145  50.259  1.00  0.00     0.069 C 
HETATM   11  C   UNL     1      24.442  45.495  50.622  1.00  0.00     0.047 A 
HETATM   12  C   UNL     1      24.323  46.620  49.820  1.00  0.00     0.008 A 
HETATM   13  N   UNL     1      25.295  45.840  51.669  1.00  0.00    -0.238 N 
HETATM   14  C   UNL     1      25.068  47.607  50.469  1.00  0.00     0.150 A 
HETATM   15  N   UNL     1      25.667  47.151  51.563  1.00  0.00    -0.179 NA
BRANCH  13  16
HETATM   16  C   UNL     1      25.850  45.059  52.731  1.00  0.00     0.058 A 
HETATM   17  C   UNL     1      27.206  44.687  52.650  1.00  0.00     0.031 A 
HETATM   18  C   UNL     1      27.795  43.896  53.641  1.00  0.00     0.002 A 
HETATM   19  C   UNL     1      27.045  43.485  54.737  1.00  0.00     0.000 A 
HETATM   20  C   UNL     1      25.711  43.869  54.845  1.00  0.00     0.002 A 
HETATM   21  C   UNL     1      25.115  44.651  53.847  1.00  0.00     0.031 A 
ENDBRANCH  13  16
ENDBRANCH   1   5
BRANCH   2  22
HETATM   22  C   UNL     1      21.080  49.460  48.279  1.00  0.00     0.100 A 
HETATM   23  C   UNL     1      19.761  48.792  48.503  1.00  0.00     0.261 A 
HETATM   24  O   UNL     1      19.651  47.570  48.559  1.00  0.00    -0.267 OA
HETATM   25  N   UNL     1      18.669  49.620  48.644  1.00  0.00    -0.322 N 
HETATM   26  C   UNL     1      18.729  50.990  48.596  1.00  0.00     0.045 A 
HETATM   27  H   UNL     1      17.778  49.167  48.806  1.00  0.00     0.169 HD
HETATM   28  C   UNL     1      19.906  51.598  48.388  1.00  0.00     0.031 A 
HETATM   29  C   UNL     1      21.105  50.806  48.225  1.00  0.00     0.025 A 
BRANCH  26  30
HETATM   30  C   UNL     1      17.496  51.761  48.771  1.00  0.00    -0.009 A 
HETATM   31  C   UNL     1      16.510  51.753  47.777  1.00  0.00     0.013 A 
HETATM   32  C   UNL     1      15.351  52.516  47.928  1.00  0.00     0.001 A 
HETATM   33  C   UNL     1      15.170  53.290  49.074  1.00  0.00     0.000 A 
HETATM   34  C   UNL     1      16.145  53.301  50.070  1.00  0.00     0.001 A 
HETATM   35  C   UNL     1      17.306  52.540  49.919  1.00  0.00     0.013 A 
ENDBRANCH  26  30
ENDBRANCH   2  22
TORSDOF 4
ENDMDL
MODEL 2
REMARK VINA RESULT:      -9.0      6.755     10.620
REMARK  4 active torsions:
REMARK  status: ('A' for Active; 'I' for Inactive)
REMARK    1  A    between atoms: C_5  and  N_6 
REMARK       I    between atoms: N_6  and  C_7 
REMARK    2  A    between atoms: C_7  and  C_8 
REMARK    3  A    between atoms: C_12  and  C_13 
REMARK    4  A    between atoms: N_24  and  C_25 
ROOT
HETATM    1  N   UNL     1      26.553  42.004  49.620  1.00  0.00    -0.348 N 
HETATM    2  C   UNL     1      25.844  41.281  48.696  1.00  0.00     0.257 C 
HETATM    3  O   UNL     1      24.740  40.800  48.947  1.00  0.00    -0.267 OA
HETATM    4  H   UNL     1      27.443  42.422  49.349  1.00  0.00     0.163 HD
ENDROOT
BRANCH   1   5
HETATM    5  C   UNL     1      26.016  42.264  50.937  1.00  0.00     0.122 C 
HETATM    6  C   UNL     1      25.182  43.565  51.005  1.00  0.00     0.039 C 
HETATM    7  C   UNL     1      26.007  44.874  51.194  1.00  0.00    -0.040 C 
HETATM    8  C   UNL     1      25.019  46.042  51.396  1.00  0.00     0.015 C 
HETATM    9  C   UNL     1      26.848  45.187  49.939  1.00  0.00     0.015 C 
HETATM   10  C   UNL     1      26.942  44.792  52.443  1.00  0.00     0.069 C 
HETATM   11  C   UNL     1      27.560  43.439  52.594  1.00  0.00     0.047 A 
HETATM   12  C   UNL     1      27.127  42.306  51.924  1.00  0.00     0.008 A 
HETATM   13  N   UNL     1      28.497  43.013  53.535  1.00  0.00    -0.238 N 
HETATM   14  C   UNL     1      27.879  41.258  52.460  1.00  0.00     0.150 A 
HETATM   15  N   UNL     1      28.687  41.664  53.434  1.00  0.00    -0.179 NA
BRANCH  13  16
HETATM   16  C   UNL     1      29.193  43.724  54.563  1.00  0.00     0.058 A 
HETATM   17  C   UNL     1      30.333  43.128  55.135  1.00  0.00     0.031 A 
HETATM   18  C   UNL     1      31.033  43.760  56.166  1.00  0.00     0.002 A 
HETATM   19  C   UNL     1      30.619  45.006  56.623  1.00  0.00     0.000 A 
HETATM   20  C   UNL     1      29.511  45.621  56.047  1.00  0.00     0.002 A 
HETATM   21  C   UNL     1      28.799  44.984  55.023  1.00  0.00     0.031 A 
ENDBRANCH  13  16
ENDBRANCH   1   5
BRANCH   2  22
HETATM   22  C   UNL     1      26.486  41.090  47.365  1.00  0.00     0.100 A 
HETATM   23  C   UNL     1      27.962  40.988  47.146  1.00  0.00     0.261 A 
HETATM   24  O   UNL     1      28.765  41.068  48.072  1.00  0.00    -0.267 OA
HETATM   25  N   UNL     1      28.378  40.799  45.847  1.00  0.00    -0.322 N 
HETATM   26  C   UNL     1      27.530  40.697  44.772  1.00  0.00     0.045 A 
HETATM   27  H   UNL     1      29.378  40.719  45.701  1.00  0.00     0.169 HD
HETATM   28  C   UNL     1      26.206  40.795  44.958  1.00  0.00     0.031 A 
HETATM   29  C   UNL     1      25.680  40.999  46.289  1.00  0.00     0.025 A 
BRANCH  26  30
HETATM   30  C   UNL     1      28.097  40.485  43.438  1.00  0.00    -0.009 A 
HETATM   31  C   UNL     1      27.876  41.421  42.420  1.00  0.00     0.013 A 
HETATM   32  C   UNL     1      28.387  41.201  41.140  1.00  0.00     0.001 A 
HETATM   33  C   UNL     1      29.122  40.047  40.870  1.00  0.00     0.000 A 
HETATM   34  C   UNL     1      29.350  39.113  41.879  1.00  0.00     0.001 A 
HETATM   35  C   UNL     1      28.837  39.330  43.160  1.00  0.00     0.013 A 
ENDBRANCH  26  30
ENDBRANCH   2  22
TORSDOF 4
ENDMDL
MODEL 3
REMARK VINA RESULT:      -8.9      3.586     11.183
REMARK  4 active torsions:
REMARK  status: ('A' for Active; 'I' for Inactive)
REMARK    1  A    between atoms: C_5  and  N_6 
REMARK       I    between atoms: N_6  and  C_7 
REMARK    2  A    between atoms: C_7  and  C_8 
REMARK    3  A    between atoms: C_12  and  C_13 
REMARK    4  A    between atoms: N_24  and  C_25 
ROOT
HETATM    1  N   UNL     1      17.821  50.284  47.847  1.00  0.00    -0.348 N 
HETATM    2  C   UNL     1      18.421  49.373  48.677  1.00  0.00     0.257 C 
HETATM    3  O   UNL     1      17.772  48.595  49.375  1.00  0.00    -0.267 OA
HETATM    4  H   UNL     1      18.404  50.875  47.253  1.00  0.00     0.163 HD
ENDROOT
BRANCH   1   5
HETATM    5  C   UNL     1      16.382  50.354  47.729  1.00  0.00     0.122 C 
HETATM    6  C   UNL     1      15.895  50.382  46.262  1.00  0.00     0.039 C 
HETATM    7  C   UNL     1      15.916  51.784  45.582  1.00  0.00    -0.040 C 
HETATM    8  C   UNL     1      15.259  51.657  44.191  1.00  0.00     0.015 C 
HETATM    9  C   UNL     1      17.363  52.277  45.369  1.00  0.00     0.015 C 
HETATM   10  C   UNL     1      15.121  52.841  46.412  1.00  0.00     0.069 C 
HETATM   11  C   UNL     1      15.329  52.673  47.883  1.00  0.00     0.047 A 
HETATM   12  C   UNL     1      15.883  51.544  48.467  1.00  0.00     0.008 A 
HETATM   13  N   UNL     1      14.848  53.465  48.924  1.00  0.00    -0.238 N 
HETATM   14  C   UNL     1      15.760  51.751  49.842  1.00  0.00     0.150 A 
HETATM   15  N   UNL     1      15.129  52.884  50.129  1.00  0.00    -0.179 NA
BRANCH  13  16
HETATM   16  C   UNL     1      14.098  54.683  48.914  1.00  0.00     0.058 A 
HETATM   17  C   UNL     1      14.673  55.829  49.498  1.00  0.00     0.031 A 
HETATM   18  C   UNL     1      13.974  57.038  49.547  1.00  0.00     0.002 A 
HETATM   19  C   UNL     1      12.701  57.127  48.994  1.00  0.00     0.000 A 
HETATM   20  C   UNL     1      12.132  56.010  48.389  1.00  0.00     0.002 A 
HETATM   21  C   UNL     1      12.825  54.794  48.349  1.00  0.00     0.031 A 
ENDBRANCH  13  16
ENDBRANCH   1   5
BRANCH   2  22
HETATM   22  C   UNL     1      19.911  49.377  48.705  1.00  0.00     0.100 A 
HETATM   23  C   UNL     1      20.752  50.613  48.663  1.00  0.00     0.261 A 
HETATM   24  O   UNL     1      20.259  51.735  48.589  1.00  0.00    -0.267 OA
HETATM   25  N   UNL     1      22.117  50.429  48.712  1.00  0.00    -0.322 N 
HETATM   26  C   UNL     1      22.726  49.202  48.800  1.00  0.00     0.045 A 
HETATM   27  H   UNL     1      22.685  51.267  48.693  1.00  0.00     0.169 HD
HETATM   28  C   UNL     1      21.980  48.088  48.830  1.00  0.00     0.031 A 
HETATM   29  C   UNL     1      20.539  48.187  48.779  1.00  0.00     0.025 A 
BRANCH  26  30
HETATM   30  C   UNL     1      24.189  49.139  48.855  1.00  0.00    -0.009 A 
HETATM   31  C   UNL     1      24.963  50.019  48.090  1.00  0.00     0.013 A 
HETATM   32  C   UNL     1      26.357  49.935  48.115  1.00  0.00     0.001 A 
HETATM   33  C   UNL     1      26.984  48.973  48.906  1.00  0.00     0.000 A 
HETATM   34  C   UNL     1      26.220  48.095  49.673  1.00  0.00     0.001 A 
HETATM   35  C   UNL     1      24.826  48.176  49.647  1.00  0.00     0.013 A 
ENDBRANCH  26  30
ENDBRANCH   2  22
TORSDOF 4
ENDMDL
MODEL 4
REMARK VINA RESULT:      -8.7      8.515     12.019
REMARK  4 active torsions:
REMARK  status: ('A' for Active; 'I' for Inactive)
REMARK    1  A    between atoms: C_5  and  N_6 
REMARK       I    between atoms: N_6  and  C_7 
REMARK    2  A    between atoms: C_7  and  C_8 
REMARK    3  A    between atoms: C_12  and  C_13 
REMARK    4  A    between atoms: N_24  and  C_25 
ROOT
HETATM    1  N   UNL     1      27.043  40.612  48.320  1.00  0.00    -0.348 N 
HETATM    2  C   UNL     1      26.257  41.206  49.274  1.00  0.00     0.257 C 
HETATM    3  O   UNL     1      25.029  41.195  49.211  1.00  0.00    -0.267 OA
HETATM    4  H   UNL     1      28.056  40.607  48.443  1.00  0.00     0.163 HD
ENDROOT
BRANCH   1   5
HETATM    5  C   UNL     1      26.457  39.910  47.200  1.00  0.00     0.122 C 
HETATM    6  C   UNL     1      26.129  38.432  47.517  1.00  0.00     0.039 C 
HETATM    7  C   UNL     1      27.324  37.442  47.380  1.00  0.00    -0.040 C 
HETATM    8  C   UNL     1      26.788  36.008  47.576  1.00  0.00     0.015 C 
HETATM    9  C   UNL     1      28.384  37.696  48.472  1.00  0.00     0.015 C 
HETATM   10  C   UNL     1      27.993  37.534  45.971  1.00  0.00     0.069 C 
HETATM   11  C   UNL     1      28.073  38.944  45.479  1.00  0.00     0.047 A 
HETATM   12  C   UNL     1      27.367  40.002  46.029  1.00  0.00     0.008 A 
HETATM   13  N   UNL     1      28.665  39.423  44.311  1.00  0.00    -0.238 N 
HETATM   14  C   UNL     1      27.626  41.087  45.188  1.00  0.00     0.150 A 
HETATM   15  N   UNL     1      28.385  40.751  44.150  1.00  0.00    -0.179 NA
BRANCH  13  16
HETATM   16  C   UNL     1      29.419  38.758  43.294  1.00  0.00     0.058 A 
HETATM   17  C   UNL     1      30.637  39.330  42.880  1.00  0.00     0.031 A 
HETATM   18  C   UNL     1      31.399  38.743  41.866  1.00  0.00     0.002 A 
HETATM   19  C   UNL     1      30.968  37.564  41.268  1.00  0.00     0.000 A 
HETATM   20  C   UNL     1      29.780  36.971  41.686  1.00  0.00     0.002 A 
HETATM   21  C   UNL     1      29.007  37.565  42.693  1.00  0.00     0.031 A 
ENDBRANCH  13  16
ENDBRANCH   1   5
BRANCH   2  22
HETATM   22  C   UNL     1      26.968  41.885  50.394  1.00  0.00     0.100 A 
HETATM   23  C   UNL     1      27.296  43.344  50.425  1.00  0.00     0.261 A 
HETATM   24  O   UNL     1      27.003  44.097  49.500  1.00  0.00    -0.267 OA
HETATM   25  N   UNL     1      27.946  43.804  51.549  1.00  0.00    -0.322 N 
HETATM   26  C   UNL     1      28.294  43.013  52.615  1.00  0.00     0.045 A 
HETATM   27  H   UNL     1      28.158  44.794  51.573  1.00  0.00     0.169 HD
HETATM   28  C   UNL     1      28.011  41.702  52.593  1.00  0.00     0.031 A 
HETATM   29  C   UNL     1      27.334  41.133  51.450  1.00  0.00     0.025 A 
BRANCH  26  30
HETATM   30  C   UNL     1      28.975  43.624  53.759  1.00  0.00    -0.009 A 
HETATM   31  C   UNL     1      30.105  43.014  54.318  1.00  0.00     0.013 A 
HETATM   32  C   UNL     1      30.732  43.578  55.431  1.00  0.00     0.001 A 
HETATM   33  C   UNL     1      30.235  44.756  55.989  1.00  0.00     0.000 A 
HETATM   34  C   UNL     1      29.113  45.371  55.437  1.00  0.00     0.001 A 
HETATM   35  C   UNL     1      28.484  44.807  54.326  1.00  0.00     0.013 A 
ENDBRANCH  26  30
ENDBRANCH   2  22
TORSDOF 4
ENDMDL
MODEL 5
REMARK VINA RESULT:      -8.5      1.449      1.903
REMARK  4 active torsions:
REMARK  status: ('A' for Active; 'I' for Inactive)
REMARK    1  A    between atoms: C_5  and  N_6 
REMARK       I    between atoms: N_6  and  C_7 
REMARK    2  A    between atoms: C_7  and  C_8 
REMARK    3  A    between atoms: C_12  and  C_13 
REMARK    4  A    between atoms: N_24  and  C_25 
ROOT
HETATM    1  N   UNL     1      21.093  48.481  47.794  1.00  0.00    -0.348 N 
HETATM    2  C   UNL     1      21.048  49.840  47.612  1.00  0.00     0.257 C 
HETATM    3  O   UNL     1      22.021  50.481  47.220  1.00  0.00    -0.267 OA
HETATM    4  H   UNL     1      20.245  47.989  48.075  1.00  0.00     0.163 HD
ENDROOT
BRANCH   1   5
HETATM    5  C   UNL     1      22.291  47.727  47.500  1.00  0.00     0.122 C 
HETATM    6  C   UNL     1      21.996  46.302  46.978  1.00  0.00     0.039 C 
HETATM    7  C   UNL     1      21.718  45.235  48.080  1.00  0.00    -0.040 C 
HETATM    8  C   UNL     1      21.602  43.856  47.398  1.00  0.00     0.015 C 
HETATM    9  C   UNL     1      20.382  45.514  48.799  1.00  0.00     0.015 C 
HETATM   10  C   UNL     1      22.873  45.175  49.129  1.00  0.00     0.069 C 
HETATM   11  C   UNL     1      23.404  46.533  49.460  1.00  0.00     0.047 A 
HETATM   12  C   UNL     1      23.149  47.672  48.712  1.00  0.00     0.008 A 
HETATM   13  N   UNL     1      24.375  46.881  50.398  1.00  0.00    -0.238 N 
HETATM   14  C   UNL     1      23.942  48.668  49.287  1.00  0.00     0.150 A 
HETATM   15  N   UNL     1      24.690  48.206  50.282  1.00  0.00    -0.179 NA
BRANCH  13  16
HETATM   16  C   UNL     1      25.087  46.093  51.356  1.00  0.00     0.058 A 
HETATM   17  C   UNL     1      25.485  44.792  50.992  1.00  0.00     0.031 A 
HETATM   18  C   UNL     1      26.154  43.965  51.897  1.00  0.00     0.002 A 
HETATM   19  C   UNL     1      26.456  44.433  53.172  1.00  0.00     0.000 A 
HETATM   20  C   UNL     1      26.094  45.726  53.537  1.00  0.00     0.002 A 
HETATM   21  C   UNL     1      25.412  46.553  52.635  1.00  0.00     0.031 A 
ENDBRANCH  13  16
ENDBRANCH   1   5
BRANCH   2  22
HETATM   22  C   UNL     1      19.756  50.511  47.929  1.00  0.00     0.100 A 
HETATM   23  C   UNL     1      18.410  49.960  47.582  1.00  0.00     0.261 A 
HETATM   24  O   UNL     1      18.276  48.894  46.986  1.00  0.00    -0.267 OA
HETATM   25  N   UNL     1      17.321  50.711  47.965  1.00  0.00    -0.322 N 
HETATM   26  C   UNL     1      17.405  51.906  48.636  1.00  0.00     0.045 A 
HETATM   27  H   UNL     1      16.409  50.332  47.738  1.00  0.00     0.169 HD
HETATM   28  C   UNL     1      18.608  52.411  48.945  1.00  0.00     0.031 A 
HETATM   29  C   UNL     1      19.807  51.692  48.577  1.00  0.00     0.025 A 
BRANCH  26  30
HETATM   30  C   UNL     1      16.170  52.606  48.997  1.00  0.00    -0.009 A 
HETATM   31  C   UNL     1      15.293  53.052  48.001  1.00  0.00     0.013 A 
HETATM   32  C   UNL     1      14.134  53.750  48.345  1.00  0.00     0.001 A 
HETATM   33  C   UNL     1      13.845  54.005  49.685  1.00  0.00     0.000 A 
HETATM   34  C   UNL     1      14.711  53.561  50.683  1.00  0.00     0.001 A 
HETATM   35  C   UNL     1      15.872  52.865  50.341  1.00  0.00     0.013 A 
ENDBRANCH  26  30
ENDBRANCH   2  22
TORSDOF 4
ENDMDL
MODEL 6
REMARK VINA RESULT:      -8.5     12.870     16.739
REMARK  4 active torsions:
REMARK  status: ('A' for Active; 'I' for Inactive)
REMARK    1  A    between atoms: C_5  and  N_6 
REMARK       I    between atoms: N_6  and  C_7 
REMARK    2  A    between atoms: C_7  and  C_8 
REMARK    3  A    between atoms: C_12  and  C_13 
REMARK    4  A    between atoms: N_24  and  C_25 
ROOT
HETATM    1  N   UNL     1      32.939  50.621  40.068  1.00  0.00    -0.348 N 
HETATM    2  C   UNL     1      34.097  51.316  39.836  1.00  0.00     0.257 C 
HETATM    3  O   UNL     1      34.258  52.003  38.829  1.00  0.00    -0.267 OA
HETATM    4  H   UNL     1      32.836  50.104  40.942  1.00  0.00     0.163 HD
ENDROOT
BRANCH   1   5
HETATM    5  C   UNL     1      31.829  50.687  39.144  1.00  0.00     0.122 C 
HETATM    6  C   UNL     1      31.074  52.036  39.201  1.00  0.00     0.039 C 
HETATM    7  C   UNL     1      30.007  52.152  40.331  1.00  0.00    -0.040 C 
HETATM    8  C   UNL     1      29.250  53.484  40.145  1.00  0.00     0.015 C 
HETATM    9  C   UNL     1      30.673  52.186  41.722  1.00  0.00     0.015 C 
HETATM   10  C   UNL     1      28.974  50.982  40.274  1.00  0.00     0.069 C 
HETATM   11  C   UNL     1      29.621  49.679  39.929  1.00  0.00     0.047 A 
HETATM   12  C   UNL     1      30.899  49.558  39.407  1.00  0.00     0.008 A 
HETATM   13  N   UNL     1      29.040  48.413  39.860  1.00  0.00    -0.238 N 
HETATM   14  C   UNL     1      31.041  48.201  39.107  1.00  0.00     0.150 A 
HETATM   15  N   UNL     1      29.934  47.510  39.356  1.00  0.00    -0.179 NA
BRANCH  13  16
HETATM   16  C   UNL     1      27.715  47.965  40.158  1.00  0.00     0.058 A 
HETATM   17  C   UNL     1      27.560  46.823  40.967  1.00  0.00     0.031 A 
HETATM   18  C   UNL     1      26.291  46.320  41.265  1.00  0.00     0.002 A 
HETATM   19  C   UNL     1      25.157  46.963  40.778  1.00  0.00     0.000 A 
HETATM   20  C   UNL     1      25.294  48.110  40.001  1.00  0.00     0.002 A 
HETATM   21  C   UNL     1      26.566  48.609  39.691  1.00  0.00     0.031 A 
ENDBRANCH  13  16
ENDBRANCH   1   5
BRANCH   2  22
HETATM   22  C   UNL     1      35.168  51.190  40.865  1.00  0.00     0.100 A 
HETATM   23  C   UNL     1      34.956  51.387  42.332  1.00  0.00     0.261 A 
HETATM   24  O   UNL     1      33.860  51.685  42.798  1.00  0.00    -0.267 OA
HETATM   25  N   UNL     1      36.059  51.216  43.139  1.00  0.00    -0.322 N 
HETATM   26  C   UNL     1      37.307  50.879  42.679  1.00  0.00     0.045 A 
HETATM   27  H   UNL     1      35.913  51.340  44.134  1.00  0.00     0.169 HD
HETATM   28  C   UNL     1      37.508  50.707  41.364  1.00  0.00     0.031 A 
HETATM   29  C   UNL     1      36.407  50.871  40.442  1.00  0.00     0.025 A 
BRANCH  26  30
HETATM   30  C   UNL     1      38.399  50.716  43.642  1.00  0.00    -0.009 A 
HETATM   31  C   UNL     1      38.889  51.821  44.348  1.00  0.00     0.013 A 
HETATM   32  C   UNL     1      39.953  51.671  45.239  1.00  0.00     0.001 A 
HETATM   33  C   UNL     1      40.533  50.417  45.431  1.00  0.00     0.000 A 
HETATM   34  C   UNL     1      40.048  49.311  44.734  1.00  0.00     0.001 A 
HETATM   35  C   UNL     1      38.986  49.460  43.841  1.00  0.00     0.013 A 
ENDBRANCH  26  30
ENDBRANCH   2  22
TORSDOF 4
ENDMDL
MODEL 7
REMARK VINA RESULT:      -8.2     22.407     26.090
REMARK  4 active torsions:
REMARK  status: ('A' for Active; 'I' for Inactive)
REMARK    1  A    between atoms: C_5  and  N_6 
REMARK       I    between atoms: N_6  and  C_7 
REMARK    2  A    between atoms: C_7  and  C_8 
REMARK    3  A    between atoms: C_12  and  C_13 
REMARK    4  A    between atoms: N_24  and  C_25 
ROOT
HETATM    1  N   UNL     1      40.813  43.136  64.404  1.00  0.00    -0.348 N 
HETATM    2  C   UNL     1      40.197  42.032  63.873  1.00  0.00     0.257 C 
HETATM    3  O   UNL     1      39.564  42.077  62.819  1.00  0.00    -0.267 OA
HETATM    4  H   UNL     1      41.365  43.036  65.256  1.00  0.00     0.163 HD
ENDROOT
BRANCH   1   5
HETATM    5  C   UNL     1      40.773  44.412  63.725  1.00  0.00     0.122 C 
HETATM    6  C   UNL     1      42.126  45.160  63.765  1.00  0.00     0.039 C 
HETATM    7  C   UNL     1      42.397  45.976  65.065  1.00  0.00    -0.040 C 
HETATM    8  C   UNL     1      43.702  46.775  64.870  1.00  0.00     0.015 C 
HETATM    9  C   UNL     1      42.600  45.040  66.275  1.00  0.00     0.015 C 
HETATM   10  C   UNL     1      41.240  46.980  65.369  1.00  0.00     0.069 C 
HETATM   11  C   UNL     1      39.896  46.397  65.067  1.00  0.00     0.047 A 
HETATM   12  C   UNL     1      39.696  45.251  64.314  1.00  0.00     0.008 A 
HETATM   13  N   UNL     1      38.639  46.960  65.279  1.00  0.00    -0.238 N 
HETATM   14  C   UNL     1      38.311  45.152  64.166  1.00  0.00     0.150 A 
HETATM   15  N   UNL     1      37.669  46.174  64.722  1.00  0.00    -0.179 NA
BRANCH  13  16
HETATM   16  C   UNL     1      38.246  48.189  65.896  1.00  0.00     0.058 A 
HETATM   17  C   UNL     1      38.515  49.395  65.220  1.00  0.00     0.031 A 
HETATM   18  C   UNL     1      38.184  50.627  65.790  1.00  0.00     0.002 A 
HETATM   19  C   UNL     1      37.560  50.673  67.032  1.00  0.00     0.000 A 
HETATM   20  C   UNL     1      37.263  49.488  67.700  1.00  0.00     0.002 A 
HETATM   21  C   UNL     1      37.605  48.252  67.137  1.00  0.00     0.031 A 
ENDBRANCH  13  16
ENDBRANCH   1   5
BRANCH   2  22
HETATM   22  C   UNL     1      40.318  40.765  64.648  1.00  0.00     0.100 A 
HETATM   23  C   UNL     1      41.459  40.437  65.558  1.00  0.00     0.261 A 
HETATM   24  O   UNL     1      42.402  41.207  65.723  1.00  0.00    -0.267 OA
HETATM   25  N   UNL     1      41.399  39.223  66.206  1.00  0.00    -0.322 N 
HETATM   26  C   UNL     1      40.371  38.325  66.066  1.00  0.00     0.045 A 
HETATM   27  H   UNL     1      42.167  39.007  66.830  1.00  0.00     0.169 HD
HETATM   28  C   UNL     1      39.348  38.606  65.246  1.00  0.00     0.031 A 
HETATM   29  C   UNL     1      39.330  39.857  64.522  1.00  0.00     0.025 A 
BRANCH  26  30
HETATM   30  C   UNL     1      40.419  37.069  66.819  1.00  0.00    -0.009 A 
HETATM   31  C   UNL     1      40.344  35.841  66.150  1.00  0.00     0.013 A 
HETATM   32  C   UNL     1      40.354  34.645  66.871  1.00  0.00     0.001 A 
HETATM   33  C   UNL     1      40.440  34.670  68.263  1.00  0.00     0.000 A 
HETATM   34  C   UNL     1      40.518  35.888  68.936  1.00  0.00     0.001 A 
HETATM   35  C   UNL     1      40.506  37.085  68.216  1.00  0.00     0.013 A 
ENDBRANCH  26  30
ENDBRANCH   2  22
TORSDOF 4
ENDMDL
MODEL 8
REMARK VINA RESULT:      -8.0      5.038      7.389
REMARK  4 active torsions:
REMARK  status: ('A' for Active; 'I' for Inactive)
REMARK    1  A    between atoms: C_5  and  N_6 
REMARK       I    between atoms: N_6  and  C_7 
REMARK    2  A    between atoms: C_7  and  C_8 
REMARK    3  A    between atoms: C_12  and  C_13 
REMARK    4  A    between atoms: N_24  and  C_25 
ROOT
HETATM    1  N   UNL     1      18.820  47.313  47.835  1.00  0.00    -0.348 N 
HETATM    2  C   UNL     1      18.297  46.053  47.699  1.00  0.00     0.257 C 
HETATM    3  O   UNL     1      18.424  45.193  48.569  1.00  0.00    -0.267 OA
HETATM    4  H   UNL     1      18.647  48.005  47.105  1.00  0.00     0.163 HD
ENDROOT
BRANCH   1   5
HETATM    5  C   UNL     1      19.528  47.703  49.034  1.00  0.00     0.122 C 
HETATM    6  C   UNL     1      19.191  49.141  49.494  1.00  0.00     0.039 C 
HETATM    7  C   UNL     1      19.989  50.272  48.778  1.00  0.00    -0.040 C 
HETATM    8  C   UNL     1      19.646  51.612  49.462  1.00  0.00     0.015 C 
HETATM    9  C   UNL     1      19.578  50.388  47.295  1.00  0.00     0.015 C 
HETATM   10  C   UNL     1      21.531  50.043  48.877  1.00  0.00     0.069 C 
HETATM   11  C   UNL     1      21.896  48.601  48.726  1.00  0.00     0.047 A 
HETATM   12  C   UNL     1      20.991  47.556  48.813  1.00  0.00     0.008 A 
HETATM   13  N   UNL     1      23.166  48.028  48.685  1.00  0.00    -0.238 N 
HETATM   14  C   UNL     1      21.769  46.397  48.756  1.00  0.00     0.150 A 
HETATM   15  N   UNL     1      23.069  46.664  48.696  1.00  0.00    -0.179 NA
BRANCH  13  16
HETATM   16  C   UNL     1      24.469  48.617  48.695  1.00  0.00     0.058 A 
HETATM   17  C   UNL     1      25.473  48.010  49.474  1.00  0.00     0.031 A 
HETATM   18  C   UNL     1      26.755  48.560  49.549  1.00  0.00     0.002 A 
HETATM   19  C   UNL     1      27.061  49.710  48.829  1.00  0.00     0.000 A 
HETATM   20  C   UNL     1      26.086  50.305  48.032  1.00  0.00     0.002 A 
HETATM   21  C   UNL     1      24.796  49.763  47.966  1.00  0.00     0.031 A 
ENDBRANCH  13  16
ENDBRANCH   1   5
BRANCH   2  22
HETATM   22  C   UNL     1      17.571  45.766  46.430  1.00  0.00     0.100 A 
HETATM   23  C   UNL     1      16.916  46.807  45.579  1.00  0.00     0.261 A 
HETATM   24  O   UNL     1      16.923  47.997  45.883  1.00  0.00    -0.267 OA
HETATM   25  N   UNL     1      16.300  46.362  44.430  1.00  0.00    -0.322 N 
HETATM   26  C   UNL     1      16.263  45.048  44.034  1.00  0.00     0.045 A 
HETATM   27  H   UNL     1      15.866  47.068  43.848  1.00  0.00     0.169 HD
HETATM   28  C   UNL     1      16.841  44.107  44.795  1.00  0.00     0.031 A 
HETATM   29  C   UNL     1      17.506  44.484  46.022  1.00  0.00     0.025 A 
BRANCH  26  30
HETATM   30  C   UNL     1      15.584  44.702  42.783  1.00  0.00    -0.009 A 
HETATM   31  C   UNL     1      15.676  43.405  42.264  1.00  0.00     0.013 A 
HETATM   32  C   UNL     1      15.059  43.086  41.053  1.00  0.00     0.001 A 
HETATM   33  C   UNL     1      14.345  44.060  40.355  1.00  0.00     0.000 A 
HETATM   34  C   UNL     1      14.246  45.353  40.867  1.00  0.00     0.001 A 
HETATM   35  C   UNL     1      14.864  45.674  42.077  1.00  0.00     0.013 A 
ENDBRANCH  26  30
ENDBRANCH   2  22
TORSDOF 4
ENDMDL
MODEL 9
REMARK VINA RESULT:      -7.8      6.637     11.222
REMARK  4 active torsions:
REMARK  status: ('A' for Active; 'I' for Inactive)
REMARK    1  A    between atoms: C_5  and  N_6 
REMARK       I    between atoms: N_6  and  C_7 
REMARK    2  A    between atoms: C_7  and  C_8 
REMARK    3  A    between atoms: C_12  and  C_13 
REMARK    4  A    between atoms: N_24  and  C_25 
ROOT
HETATM    1  N   UNL     1      25.017  41.819  47.539  1.00  0.00    -0.348 N 
HETATM    2  C   UNL     1      26.315  41.424  47.734  1.00  0.00     0.257 C 
HETATM    3  O   UNL     1      26.939  40.782  46.890  1.00  0.00    -0.267 OA
HETATM    4  H   UNL     1      24.558  42.391  48.249  1.00  0.00     0.163 HD
ENDROOT
BRANCH   1   5
HETATM    5  C   UNL     1      24.322  41.522  46.306  1.00  0.00     0.122 C 
HETATM    6  C   UNL     1      23.561  42.739  45.731  1.00  0.00     0.039 C 
HETATM    7  C   UNL     1      22.151  42.991  46.345  1.00  0.00    -0.040 C 
HETATM    8  C   UNL     1      21.478  44.134  45.555  1.00  0.00     0.015 C 
HETATM    9  C   UNL     1      22.258  43.443  47.816  1.00  0.00     0.015 C 
HETATM   10  C   UNL     1      21.245  41.722  46.252  1.00  0.00     0.069 C 
HETATM   11  C   UNL     1      22.010  40.465  46.517  1.00  0.00     0.047 A 
HETATM   12  C   UNL     1      23.393  40.382  46.525  1.00  0.00     0.008 A 
HETATM   13  N   UNL     1      21.531  39.159  46.595  1.00  0.00    -0.238 N 
HETATM   14  C   UNL     1      23.674  39.022  46.671  1.00  0.00     0.150 A 
HETATM   15  N   UNL     1      22.573  38.279  46.697  1.00  0.00    -0.179 NA
BRANCH  13  16
HETATM   16  C   UNL     1      20.202  38.634  46.525  1.00  0.00     0.058 A 
HETATM   17  C   UNL     1      19.564  38.263  47.724  1.00  0.00     0.031 A 
HETATM   18  C   UNL     1      18.279  37.714  47.714  1.00  0.00     0.002 A 
HETATM   19  C   UNL     1      17.604  37.550  46.510  1.00  0.00     0.000 A 
HETATM   20  C   UNL     1      18.211  37.939  45.319  1.00  0.00     0.002 A 
HETATM   21  C   UNL     1      19.504  38.477  45.325  1.00  0.00     0.031 A 
ENDBRANCH  13  16
ENDBRANCH   1   5
BRANCH   2  22
HETATM   22  C   UNL     1      26.938  41.801  49.034  1.00  0.00     0.100 A 
HETATM   23  C   UNL     1      27.834  40.909  49.831  1.00  0.00     0.261 A 
HETATM   24  O   UNL     1      28.117  39.771  49.462  1.00  0.00    -0.267 OA
HETATM   25  N   UNL     1      28.332  41.428  51.006  1.00  0.00    -0.322 N 
HETATM   26  C   UNL     1      28.057  42.692  51.467  1.00  0.00     0.045 A 
HETATM   27  H   UNL     1      28.948  40.827  51.539  1.00  0.00     0.169 HD
HETATM   28  C   UNL     1      27.248  43.496  50.763  1.00  0.00     0.031 A 
HETATM   29  C   UNL     1      26.677  43.031  49.519  1.00  0.00     0.025 A 
BRANCH  26  30
HETATM   30  C   UNL     1      28.657  43.132  52.729  1.00  0.00    -0.009 A 
HETATM   31  C   UNL     1      28.025  44.106  53.510  1.00  0.00     0.013 A 
HETATM   32  C   UNL     1      28.615  44.551  54.694  1.00  0.00     0.001 A 
HETATM   33  C   UNL     1      29.839  44.025  55.105  1.00  0.00     0.000 A 
HETATM   34  C   UNL     1      30.474  43.052  54.335  1.00  0.00     0.001 A 
HETATM   35  C   UNL     1      29.886  42.607  53.149  1.00  0.00     0.013 A 
ENDBRANCH  26  30
ENDBRANCH   2  22
TORSDOF 4
ENDMDL
MODEL 10
REMARK VINA RESULT:      -7.4     21.793     24.833
REMARK  4 active torsions:
REMARK  status: ('A' for Active; 'I' for Inactive)
REMARK    1  A    between atoms: C_5  and  N_6 
REMARK       I    between atoms: N_6  and  C_7 
REMARK    2  A    between atoms: C_7  and  C_8 
REMARK    3  A    between atoms: C_12  and  C_13 
REMARK    4  A    between atoms: N_24  and  C_25 
ROOT
HETATM    1  N   UNL     1      37.854  46.329  65.149  1.00  0.00    -0.348 N 
HETATM    2  C   UNL     1      37.605  45.344  64.229  1.00  0.00     0.257 C 
HETATM    3  O   UNL     1      36.770  45.477  63.336  1.00  0.00    -0.267 OA
HETATM    4  H   UNL     1      38.591  46.188  65.842  1.00  0.00     0.163 HD
ENDROOT
BRANCH   1   5
HETATM    5  C   UNL     1      37.161  47.597  65.094  1.00  0.00     0.122 C 
HETATM    6  C   UNL     1      38.093  48.781  64.745  1.00  0.00     0.039 C 
HETATM    7  C   UNL     1      38.883  49.382  65.946  1.00  0.00    -0.040 C 
HETATM    8  C   UNL     1      39.631  50.637  65.453  1.00  0.00     0.015 C 
HETATM    9  C   UNL     1      39.939  48.386  66.470  1.00  0.00     0.015 C 
HETATM   10  C   UNL     1      37.931  49.797  67.113  1.00  0.00     0.069 C 
HETATM   11  C   UNL     1      36.820  48.816  67.309  1.00  0.00     0.047 A 
HETATM   12  C   UNL     1      36.472  47.840  66.388  1.00  0.00     0.008 A 
HETATM   13  N   UNL     1      35.830  48.810  68.290  1.00  0.00    -0.238 N 
HETATM   14  C   UNL     1      35.314  47.253  66.903  1.00  0.00     0.150 A 
HETATM   15  N   UNL     1      34.911  47.833  68.028  1.00  0.00    -0.179 NA
BRANCH  13  16
HETATM   16  C   UNL     1      35.615  49.661  69.419  1.00  0.00     0.058 A 
HETATM   17  C   UNL     1      36.694  49.903  70.291  1.00  0.00     0.031 A 
HETATM   18  C   UNL     1      36.534  50.700  71.428  1.00  0.00     0.002 A 
HETATM   19  C   UNL     1      35.302  51.284  71.699  1.00  0.00     0.000 A 
HETATM   20  C   UNL     1      34.233  51.077  70.830  1.00  0.00     0.002 A 
HETATM   21  C   UNL     1      34.387  50.269  69.697  1.00  0.00     0.031 A 
ENDBRANCH  13  16
ENDBRANCH   1   5
BRANCH   2  22
HETATM   22  C   UNL     1      38.390  44.086  64.371  1.00  0.00     0.100 A 
HETATM   23  C   UNL     1      38.806  43.493  65.679  1.00  0.00     0.261 A 
HETATM   24  O   UNL     1      38.530  44.023  66.752  1.00  0.00    -0.267 OA
HETATM   25  N   UNL     1      39.518  42.315  65.621  1.00  0.00    -0.322 N 
HETATM   26  C   UNL     1      39.852  41.673  64.455  1.00  0.00     0.045 A 
HETATM   27  H   UNL     1      39.791  41.909  66.508  1.00  0.00     0.169 HD
HETATM   28  C   UNL     1      39.490  42.201  63.277  1.00  0.00     0.031 A 
HETATM   29  C   UNL     1      38.744  43.438  63.243  1.00  0.00     0.025 A 
BRANCH  26  30
HETATM   30  C   UNL     1      40.605  40.418  64.527  1.00  0.00    -0.009 A 
HETATM   31  C   UNL     1      41.800  40.351  65.252  1.00  0.00     0.013 A 
HETATM   32  C   UNL     1      42.536  39.165  65.290  1.00  0.00     0.001 A 
HETATM   33  C   UNL     1      42.079  38.039  64.606  1.00  0.00     0.000 A 
HETATM   34  C   UNL     1      40.888  38.096  63.884  1.00  0.00     0.001 A 
HETATM   35  C   UNL     1      40.153  39.282  63.843  1.00  0.00     0.013 A 
ENDBRANCH  26  30
ENDBRANCH   2  22
TORSDOF 4
ENDMDL
