MODEL 1
REMARK VINA RESULT:     -11.6      0.000      0.000
REMARK  4 active torsions:
REMARK  status: ('A' for Active; 'I' for Inactive)
REMARK    1  A    between atoms: N_4  and  C_5 
REMARK    2  A    between atoms: C_16  and  N_17 
REMARK       I    between atoms: N_17  and  C_18 
REMARK    3  A    between atoms: C_18  and  C_19 
REMARK       I    between atoms: C_19  and  N_20 
REMARK    4  A    between atoms: N_20  and  C_21 
ROOT
HETATM    1  N   UNL     1      22.382  46.074  49.065  1.00  0.00    -0.303 N 
HETATM    2  C   UNL     1      23.123  47.171  48.668  1.00  0.00     0.315 C 
HETATM    3  O   UNL     1      22.871  47.958  47.762  1.00  0.00    -0.262 OA
HETATM    4  H   UNL     1      22.526  45.758  50.021  1.00  0.00     0.171 HD
ENDROOT
BRANCH   1   5
HETATM    5  C   UNL     1      21.284  45.651  48.340  1.00  0.00     0.152 C 
HETATM    6  N   UNL     1      20.026  46.251  48.315  1.00  0.00    -0.045 N 
HETATM    7  N   UNL     1      19.112  45.451  47.669  1.00  0.00    -0.156 NA
HETATM    8  C   UNL     1      19.856  44.494  47.100  1.00  0.00     0.055 C 
HETATM    9  C   UNL     1      19.222  43.459  46.246  1.00  0.00     0.072 C 
HETATM   10  C   UNL     1      21.220  44.606  47.445  1.00  0.00     0.079 C 
BRANCH   6  11
HETATM   11  C   UNL     1      19.641  47.567  48.659  1.00  0.00     0.732 A 
HETATM   12  N   UNL     1      19.543  48.547  47.817  1.00  0.00    -0.067 NA
HETATM   13  C   UNL     1      19.122  49.756  48.323  1.00  0.00     0.065 A 
HETATM   14  C   UNL     1      18.759  49.955  49.603  1.00  0.00     0.036 A 
HETATM   15  C   UNL     1      19.071  50.881  47.314  1.00  0.00     0.060 C 
HETATM   16  C   UNL     1      18.298  51.269  50.161  1.00  0.00     0.046 C 
HETATM   17  C   UNL     1      18.826  48.799  50.529  1.00  0.00     0.268 A 
HETATM   18  C   UNL     1      18.585  52.445  49.225  1.00  0.00     0.005 C 
HETATM   19  C   UNL     1      18.259  52.091  47.780  1.00  0.00     0.006 C 
HETATM   20  O   UNL     1      18.452  48.872  51.695  1.00  0.00    -0.267 OA
HETATM   21  N   UNL     1      19.319  47.655  49.986  1.00  0.00    -0.152 N 
HETATM   22  H   UNL     1      19.362  46.816  50.555  1.00  0.00     0.188 HD
ENDBRANCH   6  11
ENDBRANCH   1   5
BRANCH   2  23
HETATM   23  C   UNL     1      24.353  47.420  49.564  1.00  0.00     0.310 C 
HETATM   24  N   UNL     1      24.968  46.258  49.971  1.00  0.00    -0.348 N 
HETATM   25  H   UNL     1      24.482  45.412  49.679  1.00  0.00     0.163 HD
HETATM   26  O   UNL     1      24.672  48.564  49.848  1.00  0.00    -0.262 OA
BRANCH  24  27
HETATM   27  C   UNL     1      25.941  46.174  51.059  1.00  0.00     0.084 C 
HETATM   28  C   UNL     1      25.435  47.062  52.224  1.00  0.00     0.025 C 
HETATM   29  C   UNL     1      26.507  47.390  53.272  1.00  0.00     0.002 C 
HETATM   30  C   UNL     1      26.248  46.714  54.625  1.00  0.00     0.000 C 
HETATM   31  C   UNL     1      27.503  46.639  55.509  1.00  0.00     0.000 C 
HETATM   32  C   UNL     1      28.110  45.228  55.558  1.00  0.00     0.000 C 
HETATM   33  C   UNL     1      28.702  44.774  54.223  1.00  0.00     0.000 C 
HETATM   34  C   UNL     1      28.634  43.257  54.049  1.00  0.00     0.000 C 
HETATM   35  C   UNL     1      29.039  42.790  52.647  1.00  0.00     0.000 C 
HETATM   36  C   UNL     1      27.911  42.800  51.600  1.00  0.00     0.000 C 
HETATM   37  C   UNL     1      27.562  44.178  51.018  1.00  0.00     0.002 C 
HETATM   38  C   UNL     1      26.200  44.711  51.498  1.00  0.00     0.025 C 
ENDBRANCH  24  27
ENDBRANCH   2  23
TORSDOF 4
ENDMDL
MODEL 2
REMARK VINA RESULT:     -11.2      1.724      4.889
REMARK  4 active torsions:
REMARK  status: ('A' for Active; 'I' for Inactive)
REMARK    1  A    between atoms: N_4  and  C_5 
REMARK    2  A    between atoms: C_16  and  N_17 
REMARK       I    between atoms: N_17  and  C_18 
REMARK    3  A    between atoms: C_18  and  C_19 
REMARK       I    between atoms: C_19  and  N_20 
REMARK    4  A    between atoms: N_20  and  C_21 
ROOT
HETATM    1  N   UNL     1      22.875  48.506  49.644  1.00  0.00    -0.303 N 
HETATM    2  C   UNL     1      24.155  48.674  49.150  1.00  0.00     0.315 C 
HETATM    3  O   UNL     1      24.543  49.509  48.340  1.00  0.00    -0.262 OA
HETATM    4  H   UNL     1      22.799  48.034  50.541  1.00  0.00     0.171 HD
ENDROOT
BRANCH   1   5
HETATM    5  C   UNL     1      21.810  49.222  49.130  1.00  0.00     0.152 C 
HETATM    6  N   UNL     1      20.990  48.841  48.068  1.00  0.00    -0.045 N 
HETATM    7  N   UNL     1      20.177  49.880  47.678  1.00  0.00    -0.156 NA
HETATM    8  C   UNL     1      20.327  50.797  48.642  1.00  0.00     0.055 C 
HETATM    9  C   UNL     1      19.546  52.058  48.606  1.00  0.00     0.072 C 
HETATM   10  C   UNL     1      21.295  50.411  49.595  1.00  0.00     0.079 C 
BRANCH   6  11
HETATM   11  C   UNL     1      20.756  47.561  47.517  1.00  0.00     0.732 A 
HETATM   12  N   UNL     1      21.584  46.931  46.745  1.00  0.00    -0.067 NA
HETATM   13  C   UNL     1      21.206  45.676  46.327  1.00  0.00     0.065 A 
HETATM   14  C   UNL     1      20.075  45.058  46.714  1.00  0.00     0.036 A 
HETATM   15  C   UNL     1      22.180  45.001  45.387  1.00  0.00     0.060 C 
HETATM   16  C   UNL     1      19.656  43.690  46.263  1.00  0.00     0.046 C 
HETATM   17  C   UNL     1      19.175  45.782  47.646  1.00  0.00     0.268 A 
HETATM   18  C   UNL     1      20.466  43.185  45.067  1.00  0.00     0.005 C 
HETATM   19  C   UNL     1      21.948  43.497  45.235  1.00  0.00     0.006 C 
HETATM   20  O   UNL     1      18.159  45.271  48.103  1.00  0.00    -0.267 OA
HETATM   21  N   UNL     1      19.569  47.043  47.962  1.00  0.00    -0.152 N 
HETATM   22  H   UNL     1      19.018  47.583  48.620  1.00  0.00     0.188 HD
ENDBRANCH   6  11
ENDBRANCH   1   5
BRANCH   2  23
HETATM   23  C   UNL     1      25.178  47.720  49.798  1.00  0.00     0.310 C 
HETATM   24  N   UNL     1      24.614  46.873  50.724  1.00  0.00    -0.348 N 
HETATM   25  H   UNL     1      23.624  47.049  50.893  1.00  0.00     0.163 HD
HETATM   26  O   UNL     1      26.354  47.786  49.476  1.00  0.00    -0.262 OA
BRANCH  24  27
HETATM   27  C   UNL     1      25.370  46.097  51.706  1.00  0.00     0.084 C 
HETATM   28  C   UNL     1      26.064  44.929  50.960  1.00  0.00     0.025 C 
HETATM   29  C   UNL     1      26.573  43.813  51.884  1.00  0.00     0.002 C 
HETATM   30  C   UNL     1      28.104  43.737  51.944  1.00  0.00     0.000 C 
HETATM   31  C   UNL     1      28.620  42.976  53.176  1.00  0.00     0.000 C 
HETATM   32  C   UNL     1      29.188  43.913  54.255  1.00  0.00     0.000 C 
HETATM   33  C   UNL     1      28.126  44.794  54.915  1.00  0.00     0.000 C 
HETATM   34  C   UNL     1      28.701  46.127  55.394  1.00  0.00     0.000 C 
HETATM   35  C   UNL     1      27.630  47.107  55.883  1.00  0.00     0.000 C 
HETATM   36  C   UNL     1      26.978  47.967  54.785  1.00  0.00     0.000 C 
HETATM   37  C   UNL     1      25.912  47.257  53.936  1.00  0.00     0.002 C 
HETATM   38  C   UNL     1      26.374  46.976  52.495  1.00  0.00     0.025 C 
ENDBRANCH  24  27
ENDBRANCH   2  23
TORSDOF 4
ENDMDL
MODEL 3
REMARK VINA RESULT:     -11.2      2.280      3.615
REMARK  4 active torsions:
REMARK  status: ('A' for Active; 'I' for Inactive)
REMARK    1  A    between atoms: N_4  and  C_5 
REMARK    2  A    between atoms: C_16  and  N_17 
REMARK       I    between atoms: N_17  and  C_18 
REMARK    3  A    between atoms: C_18  and  C_19 
REMARK       I    between atoms: C_19  and  N_20 
REMARK    4  A    between atoms: N_20  and  C_21 
ROOT
HETATM    1  N   UNL     1      23.692  44.137  48.621  1.00  0.00    -0.303 N 
HETATM    2  C   UNL     1      23.681  43.617  49.903  1.00  0.00     0.315 C 
HETATM    3  O   UNL     1      22.772  43.012  50.459  1.00  0.00    -0.262 OA
HETATM    4  H   UNL     1      24.607  44.276  48.202  1.00  0.00     0.171 HD
ENDROOT
BRANCH   1   5
HETATM    5  C   UNL     1      22.549  44.147  47.844  1.00  0.00     0.152 C 
HETATM    6  N   UNL     1      21.582  45.150  47.806  1.00  0.00    -0.045 N 
HETATM    7  N   UNL     1      20.476  44.740  47.097  1.00  0.00    -0.156 NA
HETATM    8  C   UNL     1      20.864  43.601  46.511  1.00  0.00     0.055 C 
HETATM    9  C   UNL     1      19.947  42.879  45.594  1.00  0.00     0.072 C 
HETATM   10  C   UNL     1      22.164  43.217  46.904  1.00  0.00     0.079 C 
BRANCH   6  11
HETATM   11  C   UNL     1      21.666  46.507  48.193  1.00  0.00     0.732 A 
HETATM   12  N   UNL     1      22.669  47.285  47.931  1.00  0.00    -0.067 NA
HETATM   13  C   UNL     1      22.566  48.589  48.357  1.00  0.00     0.065 A 
HETATM   14  C   UNL     1      21.481  49.103  48.966  1.00  0.00     0.036 A 
HETATM   15  C   UNL     1      23.780  49.445  48.074  1.00  0.00     0.060 C 
HETATM   16  C   UNL     1      21.362  50.524  49.432  1.00  0.00     0.046 C 
HETATM   17  C   UNL     1      20.326  48.202  49.199  1.00  0.00     0.268 A 
HETATM   18  C   UNL     1      22.704  51.258  49.450  1.00  0.00     0.005 C 
HETATM   19  C   UNL     1      23.518  50.947  48.200  1.00  0.00     0.006 C 
HETATM   20  O   UNL     1      19.273  48.601  49.685  1.00  0.00    -0.267 OA
HETATM   21  N   UNL     1      20.519  46.911  48.822  1.00  0.00    -0.152 N 
HETATM   22  H   UNL     1      19.758  46.248  48.923  1.00  0.00     0.188 HD
ENDBRANCH   6  11
ENDBRANCH   1   5
BRANCH   2  23
HETATM   23  C   UNL     1      25.032  43.783  50.628  1.00  0.00     0.310 C 
HETATM   24  N   UNL     1      25.062  43.171  51.860  1.00  0.00    -0.348 N 
HETATM   25  H   UNL     1      24.171  42.762  52.137  1.00  0.00     0.163 HD
HETATM   26  O   UNL     1      25.928  44.422  50.097  1.00  0.00    -0.262 OA
BRANCH  24  27
HETATM   27  C   UNL     1      26.073  43.424  52.885  1.00  0.00     0.084 C 
HETATM   28  C   UNL     1      27.248  42.441  52.652  1.00  0.00     0.025 C 
HETATM   29  C   UNL     1      28.200  42.309  53.849  1.00  0.00     0.002 C 
HETATM   30  C   UNL     1      29.587  42.906  53.579  1.00  0.00     0.000 C 
HETATM   31  C   UNL     1      30.373  43.206  54.866  1.00  0.00     0.000 C 
HETATM   32  C   UNL     1      30.414  44.706  55.199  1.00  0.00     0.000 C 
HETATM   33  C   UNL     1      29.049  45.282  55.584  1.00  0.00     0.000 C 
HETATM   34  C   UNL     1      28.924  46.760  55.218  1.00  0.00     0.000 C 
HETATM   35  C   UNL     1      27.508  47.313  55.412  1.00  0.00     0.000 C 
HETATM   36  C   UNL     1      26.553  47.103  54.223  1.00  0.00     0.000 C 
HETATM   37  C   UNL     1      25.962  45.692  54.093  1.00  0.00     0.002 C 
HETATM   38  C   UNL     1      26.531  44.904  52.899  1.00  0.00     0.025 C 
ENDBRANCH  24  27
ENDBRANCH   2  23
TORSDOF 4
ENDMDL
MODEL 4
REMARK VINA RESULT:     -11.0      2.191      2.696
REMARK  4 active torsions:
REMARK  status: ('A' for Active; 'I' for Inactive)
REMARK    1  A    between atoms: N_4  and  C_5 
REMARK    2  A    between atoms: C_16  and  N_17 
REMARK       I    between atoms: N_17  and  C_18 
REMARK    3  A    between atoms: C_18  and  C_19 
REMARK       I    between atoms: C_19  and  N_20 
REMARK    4  A    between atoms: N_20  and  C_21 
ROOT
HETATM    1  N   UNL     1      23.608  44.184  48.230  1.00  0.00    -0.303 N 
HETATM    2  C   UNL     1      23.660  43.965  49.594  1.00  0.00     0.315 C 
HETATM    3  O   UNL     1      22.739  43.644  50.337  1.00  0.00    -0.262 OA
HETATM    4  H   UNL     1      24.486  44.084  47.727  1.00  0.00     0.171 HD
ENDROOT
BRANCH   1   5
HETATM    5  C   UNL     1      22.404  44.200  47.553  1.00  0.00     0.152 C 
HETATM    6  N   UNL     1      21.412  45.177  47.648  1.00  0.00    -0.045 N 
HETATM    7  N   UNL     1      20.261  44.771  47.014  1.00  0.00    -0.156 NA
HETATM    8  C   UNL     1      20.624  43.675  46.339  1.00  0.00     0.055 C 
HETATM    9  C   UNL     1      19.650  42.974  45.466  1.00  0.00     0.072 C 
HETATM   10  C   UNL     1      21.962  43.309  46.601  1.00  0.00     0.079 C 
BRANCH   6  11
HETATM   11  C   UNL     1      21.497  46.514  48.098  1.00  0.00     0.732 A 
HETATM   12  N   UNL     1      22.458  47.331  47.799  1.00  0.00    -0.067 NA
HETATM   13  C   UNL     1      22.360  48.609  48.299  1.00  0.00     0.065 A 
HETATM   14  C   UNL     1      21.316  49.063  49.017  1.00  0.00     0.036 A 
HETATM   15  C   UNL     1      23.528  49.510  47.966  1.00  0.00     0.060 C 
HETATM   16  C   UNL     1      21.203  50.455  49.563  1.00  0.00     0.046 C 
HETATM   17  C   UNL     1      20.204  48.121  49.293  1.00  0.00     0.268 A 
HETATM   18  C   UNL     1      22.525  51.223  49.514  1.00  0.00     0.005 C 
HETATM   19  C   UNL     1      23.243  50.996  48.189  1.00  0.00     0.006 C 
HETATM   20  O   UNL     1      19.185  48.467  49.880  1.00  0.00    -0.267 OA
HETATM   21  N   UNL     1      20.395  46.856  48.835  1.00  0.00    -0.152 N 
HETATM   22  H   UNL     1      19.660  46.168  48.961  1.00  0.00     0.188 HD
ENDBRANCH   6  11
ENDBRANCH   1   5
BRANCH   2  23
HETATM   23  C   UNL     1      25.088  44.074  50.165  1.00  0.00     0.310 C 
HETATM   24  N   UNL     1      25.114  44.180  51.537  1.00  0.00    -0.348 N 
HETATM   25  H   UNL     1      24.190  44.241  51.962  1.00  0.00     0.163 HD
HETATM   26  O   UNL     1      26.044  44.073  49.405  1.00  0.00    -0.262 OA
BRANCH  24  27
HETATM   27  C   UNL     1      26.277  44.609  52.312  1.00  0.00     0.084 C 
HETATM   28  C   UNL     1      25.791  45.611  53.390  1.00  0.00     0.025 C 
HETATM   29  C   UNL     1      26.917  46.439  54.025  1.00  0.00     0.002 C 
HETATM   30  C   UNL     1      27.165  46.081  55.496  1.00  0.00     0.000 C 
HETATM   31  C   UNL     1      28.545  46.535  56.001  1.00  0.00     0.000 C 
HETATM   32  C   UNL     1      29.539  45.371  56.136  1.00  0.00     0.000 C 
HETATM   33  C   UNL     1      29.939  44.753  54.795  1.00  0.00     0.000 C 
HETATM   34  C   UNL     1      30.287  43.271  54.925  1.00  0.00     0.000 C 
HETATM   35  C   UNL     1      30.503  42.579  53.575  1.00  0.00     0.000 C 
HETATM   36  C   UNL     1      29.226  42.054  52.895  1.00  0.00     0.000 C 
HETATM   37  C   UNL     1      28.368  43.116  52.191  1.00  0.00     0.002 C 
HETATM   38  C   UNL     1      27.045  43.408  52.922  1.00  0.00     0.025 C 
ENDBRANCH  24  27
ENDBRANCH   2  23
TORSDOF 4
ENDMDL
MODEL 5
REMARK VINA RESULT:     -10.8      1.793      3.225
REMARK  4 active torsions:
REMARK  status: ('A' for Active; 'I' for Inactive)
REMARK    1  A    between atoms: N_4  and  C_5 
REMARK    2  A    between atoms: C_16  and  N_17 
REMARK       I    between atoms: N_17  and  C_18 
REMARK    3  A    between atoms: C_18  and  C_19 
REMARK       I    between atoms: C_19  and  N_20 
REMARK    4  A    between atoms: N_20  and  C_21 
ROOT
HETATM    1  N   UNL     1      21.754  44.291  48.750  1.00  0.00    -0.303 N 
HETATM    2  C   UNL     1      23.080  44.643  48.924  1.00  0.00     0.315 C 
HETATM    3  O   UNL     1      23.807  45.237  48.135  1.00  0.00    -0.262 OA
HETATM    4  H   UNL     1      21.215  44.141  49.600  1.00  0.00     0.171 HD
ENDROOT
BRANCH   1   5
HETATM    5  C   UNL     1      21.121  44.463  47.534  1.00  0.00     0.152 C 
HETATM    6  N   UNL     1      20.413  45.591  47.120  1.00  0.00    -0.045 N 
HETATM    7  N   UNL     1      19.730  45.341  45.952  1.00  0.00    -0.156 NA
HETATM    8  C   UNL     1      20.208  44.163  45.536  1.00  0.00     0.055 C 
HETATM    9  C   UNL     1      19.752  43.579  44.250  1.00  0.00     0.072 C 
HETATM   10  C   UNL     1      21.115  43.601  46.461  1.00  0.00     0.079 C 
BRANCH   6  11
HETATM   11  C   UNL     1      20.466  46.921  47.597  1.00  0.00     0.732 A 
HETATM   12  N   UNL     1      19.510  47.507  48.247  1.00  0.00    -0.067 NA
HETATM   13  C   UNL     1      19.748  48.796  48.665  1.00  0.00     0.065 A 
HETATM   14  C   UNL     1      20.913  49.446  48.489  1.00  0.00     0.036 A 
HETATM   15  C   UNL     1      18.587  49.456  49.375  1.00  0.00     0.060 C 
HETATM   16  C   UNL     1      21.180  50.850  48.942  1.00  0.00     0.046 C 
HETATM   17  C   UNL     1      22.008  48.727  47.792  1.00  0.00     0.268 A 
HETATM   18  C   UNL     1      19.905  51.600  49.334  1.00  0.00     0.005 C 
HETATM   19  C   UNL     1      18.976  50.713  50.154  1.00  0.00     0.006 C 
HETATM   20  O   UNL     1      23.123  49.216  47.647  1.00  0.00    -0.267 OA
HETATM   21  N   UNL     1      21.686  47.487  47.341  1.00  0.00    -0.152 N 
HETATM   22  H   UNL     1      22.397  46.926  46.884  1.00  0.00     0.188 HD
ENDBRANCH   6  11
ENDBRANCH   1   5
BRANCH   2  23
HETATM   23  C   UNL     1      23.616  44.290  50.326  1.00  0.00     0.310 C 
HETATM   24  N   UNL     1      24.716  45.033  50.686  1.00  0.00    -0.348 N 
HETATM   25  H   UNL     1      25.052  45.653  49.951  1.00  0.00     0.163 HD
HETATM   26  O   UNL     1      23.068  43.414  50.978  1.00  0.00    -0.262 OA
BRANCH  24  27
HETATM   27  C   UNL     1      25.609  44.705  51.796  1.00  0.00     0.084 C 
HETATM   28  C   UNL     1      26.564  43.579  51.325  1.00  0.00     0.025 C 
HETATM   29  C   UNL     1      27.294  42.860  52.468  1.00  0.00     0.002 C 
HETATM   30  C   UNL     1      28.801  43.147  52.490  1.00  0.00     0.000 C 
HETATM   31  C   UNL     1      29.452  42.839  53.848  1.00  0.00     0.000 C 
HETATM   32  C   UNL     1      29.771  44.108  54.653  1.00  0.00     0.000 C 
HETATM   33  C   UNL     1      28.525  44.860  55.123  1.00  0.00     0.000 C 
HETATM   34  C   UNL     1      28.773  46.363  55.252  1.00  0.00     0.000 C 
HETATM   35  C   UNL     1      27.497  47.165  55.532  1.00  0.00     0.000 C 
HETATM   36  C   UNL     1      26.689  47.568  54.286  1.00  0.00     0.000 C 
HETATM   37  C   UNL     1      25.829  46.455  53.668  1.00  0.00     0.002 C 
HETATM   38  C   UNL     1      26.371  45.949  52.318  1.00  0.00     0.025 C 
ENDBRANCH  24  27
ENDBRANCH   2  23
TORSDOF 4
ENDMDL
MODEL 6
REMARK VINA RESULT:     -10.6      2.910      9.654
REMARK  4 active torsions:
REMARK  status: ('A' for Active; 'I' for Inactive)
REMARK    1  A    between atoms: N_4  and  C_5 
REMARK    2  A    between atoms: C_16  and  N_17 
REMARK       I    between atoms: N_17  and  C_18 
REMARK    3  A    between atoms: C_18  and  C_19 
REMARK       I    between atoms: C_19  and  N_20 
REMARK    4  A    between atoms: N_20  and  C_21 
ROOT
HETATM    1  N   UNL     1      25.146  44.266  49.457  1.00  0.00    -0.303 N 
HETATM    2  C   UNL     1      23.907  44.643  49.942  1.00  0.00     0.315 C 
HETATM    3  O   UNL     1      23.232  44.078  50.795  1.00  0.00    -0.262 OA
HETATM    4  H   UNL     1      25.709  45.005  49.044  1.00  0.00     0.171 HD
ENDROOT
BRANCH   1   5
HETATM    5  C   UNL     1      25.715  43.058  49.811  1.00  0.00     0.152 C 
HETATM    6  N   UNL     1      26.685  42.855  50.792  1.00  0.00    -0.045 N 
HETATM    7  N   UNL     1      27.186  41.575  50.731  1.00  0.00    -0.156 NA
HETATM    8  C   UNL     1      26.364  40.939  49.888  1.00  0.00     0.055 C 
HETATM    9  C   UNL     1      26.545  39.493  49.610  1.00  0.00     0.072 C 
HETATM   10  C   UNL     1      25.400  41.807  49.329  1.00  0.00     0.079 C 
BRANCH   6  11
HETATM   11  C   UNL     1      27.047  43.666  51.893  1.00  0.00     0.732 A 
HETATM   12  N   UNL     1      26.537  44.830  52.146  1.00  0.00    -0.067 NA
HETATM   13  C   UNL     1      26.984  45.465  53.282  1.00  0.00     0.065 A 
HETATM   14  C   UNL     1      27.858  44.931  54.154  1.00  0.00     0.036 A 
HETATM   15  C   UNL     1      26.398  46.841  53.509  1.00  0.00     0.060 C 
HETATM   16  C   UNL     1      28.348  45.617  55.394  1.00  0.00     0.046 C 
HETATM   17  C   UNL     1      28.379  43.572  53.866  1.00  0.00     0.268 A 
HETATM   18  C   UNL     1      28.020  47.111  55.416  1.00  0.00     0.005 C 
HETATM   19  C   UNL     1      26.598  47.369  54.931  1.00  0.00     0.006 C 
HETATM   20  O   UNL     1      29.127  42.981  54.638  1.00  0.00    -0.267 OA
HETATM   21  N   UNL     1      27.956  43.030  52.694  1.00  0.00    -0.152 N 
HETATM   22  H   UNL     1      28.248  42.090  52.450  1.00  0.00     0.188 HD
ENDBRANCH   6  11
ENDBRANCH   1   5
BRANCH   2  23
HETATM   23  C   UNL     1      23.417  45.983  49.357  1.00  0.00     0.310 C 
HETATM   24  N   UNL     1      22.090  45.959  48.991  1.00  0.00    -0.348 N 
HETATM   25  H   UNL     1      21.652  45.045  49.096  1.00  0.00     0.163 HD
HETATM   26  O   UNL     1      24.197  46.917  49.251  1.00  0.00    -0.262 OA
BRANCH  24  27
HETATM   27  C   UNL     1      21.450  46.956  48.135  1.00  0.00     0.084 C 
HETATM   28  C   UNL     1      20.413  46.226  47.244  1.00  0.00     0.025 C 
HETATM   29  C   UNL     1      19.937  47.048  46.038  1.00  0.00     0.002 C 
HETATM   30  C   UNL     1      18.470  47.482  46.150  1.00  0.00     0.000 C 
HETATM   31  C   UNL     1      18.119  48.659  45.226  1.00  0.00     0.000 C 
HETATM   32  C   UNL     1      17.981  49.988  45.986  1.00  0.00     0.000 C 
HETATM   33  C   UNL     1      19.301  50.495  46.569  1.00  0.00     0.000 C 
HETATM   34  C   UNL     1      19.092  51.321  47.837  1.00  0.00     0.000 C 
HETATM   35  C   UNL     1      20.400  51.678  48.550  1.00  0.00     0.000 C 
HETATM   36  C   UNL     1      20.929  50.611  49.524  1.00  0.00     0.000 C 
HETATM   37  C   UNL     1      21.635  49.413  48.872  1.00  0.00     0.002 C 
HETATM   38  C   UNL     1      20.820  48.110  48.955  1.00  0.00     0.025 C 
ENDBRANCH  24  27
ENDBRANCH   2  23
TORSDOF 4
ENDMDL
MODEL 7
REMARK VINA RESULT:     -10.5      3.033      9.271
REMARK  4 active torsions:
REMARK  status: ('A' for Active; 'I' for Inactive)
REMARK    1  A    between atoms: N_4  and  C_5 
REMARK    2  A    between atoms: C_16  and  N_17 
REMARK       I    between atoms: N_17  and  C_18 
REMARK    3  A    between atoms: C_18  and  C_19 
REMARK       I    between atoms: C_19  and  N_20 
REMARK    4  A    between atoms: N_20  and  C_21 
ROOT
HETATM    1  N   UNL     1      24.561  42.944  50.387  1.00  0.00    -0.303 N 
HETATM    2  C   UNL     1      24.137  43.359  49.138  1.00  0.00     0.315 C 
HETATM    3  O   UNL     1      24.578  43.018  48.045  1.00  0.00    -0.262 OA
HETATM    4  H   UNL     1      23.884  43.029  51.141  1.00  0.00     0.171 HD
ENDROOT
BRANCH   1   5
HETATM    5  C   UNL     1      25.690  42.160  50.536  1.00  0.00     0.152 C 
HETATM    6  N   UNL     1      26.879  42.532  51.163  1.00  0.00    -0.045 N 
HETATM    7  N   UNL     1      27.865  41.598  50.938  1.00  0.00    -0.156 NA
HETATM    8  C   UNL     1      27.219  40.562  50.390  1.00  0.00     0.055 C 
HETATM    9  C   UNL     1      27.949  39.312  50.060  1.00  0.00     0.072 C 
HETATM   10  C   UNL     1      25.854  40.844  50.168  1.00  0.00     0.079 C 
BRANCH   6  11
HETATM   11  C   UNL     1      27.128  43.560  52.100  1.00  0.00     0.732 A 
HETATM   12  N   UNL     1      26.454  44.664  52.176  1.00  0.00    -0.067 NA
HETATM   13  C   UNL     1      26.814  45.540  53.174  1.00  0.00     0.065 A 
HETATM   14  C   UNL     1      27.767  45.292  54.091  1.00  0.00     0.036 A 
HETATM   15  C   UNL     1      26.034  46.835  53.191  1.00  0.00     0.060 C 
HETATM   16  C   UNL     1      28.164  46.241  55.183  1.00  0.00     0.046 C 
HETATM   17  C   UNL     1      28.481  43.994  54.014  1.00  0.00     0.268 A 
HETATM   18  C   UNL     1      27.618  47.654  54.968  1.00  0.00     0.005 C 
HETATM   19  C   UNL     1      26.169  47.618  54.498  1.00  0.00     0.006 C 
HETATM   20  O   UNL     1      29.316  43.656  54.846  1.00  0.00    -0.267 OA
HETATM   21  N   UNL     1      28.130  43.207  52.963  1.00  0.00    -0.152 N 
HETATM   22  H   UNL     1      28.555  42.290  52.868  1.00  0.00     0.188 HD
ENDBRANCH   6  11
ENDBRANCH   1   5
BRANCH   2  23
HETATM   23  C   UNL     1      22.913  44.294  49.200  1.00  0.00     0.310 C 
HETATM   24  N   UNL     1      23.123  45.500  48.572  1.00  0.00    -0.348 N 
HETATM   25  H   UNL     1      24.072  45.622  48.222  1.00  0.00     0.163 HD
HETATM   26  O   UNL     1      21.903  43.929  49.782  1.00  0.00    -0.262 OA
BRANCH  24  27
HETATM   27  C   UNL     1      22.276  46.680  48.741  1.00  0.00     0.084 C 
HETATM   28  C   UNL     1      23.183  47.934  48.671  1.00  0.00     0.025 C 
HETATM   29  C   UNL     1      22.524  49.212  49.208  1.00  0.00     0.002 C 
HETATM   30  C   UNL     1      22.234  50.243  48.110  1.00  0.00     0.000 C 
HETATM   31  C   UNL     1      21.185  51.287  48.527  1.00  0.00     0.000 C 
HETATM   32  C   UNL     1      19.815  51.042  47.875  1.00  0.00     0.000 C 
HETATM   33  C   UNL     1      19.126  49.767  48.364  1.00  0.00     0.000 C 
HETATM   34  C   UNL     1      18.217  49.158  47.298  1.00  0.00     0.000 C 
HETATM   35  C   UNL     1      17.667  47.782  47.686  1.00  0.00     0.000 C 
HETATM   36  C   UNL     1      18.584  46.591  47.355  1.00  0.00     0.000 C 
HETATM   37  C   UNL     1      19.757  46.372  48.321  1.00  0.00     0.002 C 
HETATM   38  C   UNL     1      21.123  46.723  47.705  1.00  0.00     0.025 C 
ENDBRANCH  24  27
ENDBRANCH   2  23
TORSDOF 4
ENDMDL
MODEL 8
REMARK VINA RESULT:      -9.9      2.070      5.282
REMARK  4 active torsions:
REMARK  status: ('A' for Active; 'I' for Inactive)
REMARK    1  A    between atoms: N_4  and  C_5 
REMARK    2  A    between atoms: C_16  and  N_17 
REMARK       I    between atoms: N_17  and  C_18 
REMARK    3  A    between atoms: C_18  and  C_19 
REMARK       I    between atoms: C_19  and  N_20 
REMARK    4  A    between atoms: N_20  and  C_21 
ROOT
HETATM    1  N   UNL     1      22.805  47.780  49.863  1.00  0.00    -0.303 N 
HETATM    2  C   UNL     1      24.171  47.995  49.875  1.00  0.00     0.315 C 
HETATM    3  O   UNL     1      24.785  48.941  49.396  1.00  0.00    -0.262 OA
HETATM    4  H   UNL     1      22.441  47.168  50.589  1.00  0.00     0.171 HD
ENDROOT
BRANCH   1   5
HETATM    5  C   UNL     1      21.959  48.597  49.137  1.00  0.00     0.152 C 
HETATM    6  N   UNL     1      21.362  48.293  47.914  1.00  0.00    -0.045 N 
HETATM    7  N   UNL     1      20.764  49.406  47.369  1.00  0.00    -0.156 NA
HETATM    8  C   UNL     1      20.788  50.310  48.356  1.00  0.00     0.055 C 
HETATM    9  C   UNL     1      20.165  51.644  48.168  1.00  0.00     0.072 C 
HETATM   10  C   UNL     1      21.475  49.835  49.495  1.00  0.00     0.079 C 
BRANCH   6  11
HETATM   11  C   UNL     1      21.128  47.039  47.304  1.00  0.00     0.732 A 
HETATM   12  N   UNL     1      21.854  46.537  46.355  1.00  0.00    -0.067 NA
HETATM   13  C   UNL     1      21.500  45.287  45.903  1.00  0.00     0.065 A 
HETATM   14  C   UNL     1      20.500  44.550  46.420  1.00  0.00     0.036 A 
HETATM   15  C   UNL     1      22.344  44.764  44.762  1.00  0.00     0.060 C 
HETATM   16  C   UNL     1      20.109  43.187  45.932  1.00  0.00     0.046 C 
HETATM   17  C   UNL     1      19.724  45.128  47.544  1.00  0.00     0.268 A 
HETATM   18  C   UNL     1      20.735  42.837  44.581  1.00  0.00     0.005 C 
HETATM   19  C   UNL     1      22.198  43.260  44.526  1.00  0.00     0.006 C 
HETATM   20  O   UNL     1      18.841  44.502  48.120  1.00  0.00    -0.267 OA
HETATM   21  N   UNL     1      20.076  46.393  47.895  1.00  0.00    -0.152 N 
HETATM   22  H   UNL     1      19.609  46.837  48.678  1.00  0.00     0.188 HD
ENDBRANCH   6  11
ENDBRANCH   1   5
BRANCH   2  23
HETATM   23  C   UNL     1      24.939  46.922  50.672  1.00  0.00     0.310 C 
HETATM   24  N   UNL     1      25.322  45.848  49.902  1.00  0.00    -0.348 N 
HETATM   25  H   UNL     1      24.983  45.889  48.942  1.00  0.00     0.163 HD
HETATM   26  O   UNL     1      25.132  47.080  51.868  1.00  0.00    -0.262 OA
BRANCH  24  27
HETATM   27  C   UNL     1      25.774  44.564  50.436  1.00  0.00     0.084 C 
HETATM   28  C   UNL     1      25.798  43.543  49.271  1.00  0.00     0.025 C 
HETATM   29  C   UNL     1      25.873  42.078  49.727  1.00  0.00     0.002 C 
HETATM   30  C   UNL     1      27.214  41.414  49.387  1.00  0.00     0.000 C 
HETATM   31  C   UNL     1      27.487  40.150  50.220  1.00  0.00     0.000 C 
HETATM   32  C   UNL     1      28.526  40.384  51.328  1.00  0.00     0.000 C 
HETATM   33  C   UNL     1      28.038  41.326  52.431  1.00  0.00     0.000 C 
HETATM   34  C   UNL     1      29.187  42.099  53.077  1.00  0.00     0.000 C 
HETATM   35  C   UNL     1      28.714  43.187  54.046  1.00  0.00     0.000 C 
HETATM   36  C   UNL     1      28.379  44.542  53.399  1.00  0.00     0.000 C 
HETATM   37  C   UNL     1      27.020  44.616  52.685  1.00  0.00     0.002 C 
HETATM   38  C   UNL     1      27.143  44.681  51.152  1.00  0.00     0.025 C 
ENDBRANCH  24  27
ENDBRANCH   2  23
TORSDOF 4
ENDMDL
MODEL 9
REMARK VINA RESULT:      -9.8      6.221      9.304
REMARK  4 active torsions:
REMARK  status: ('A' for Active; 'I' for Inactive)
REMARK    1  A    between atoms: N_4  and  C_5 
REMARK    2  A    between atoms: C_16  and  N_17 
REMARK       I    between atoms: N_17  and  C_18 
REMARK    3  A    between atoms: C_18  and  C_19 
REMARK       I    between atoms: C_19  and  N_20 
REMARK    4  A    between atoms: N_20  and  C_21 
ROOT
HETATM    1  N   UNL     1      24.910  41.738  48.338  1.00  0.00    -0.303 N 
HETATM    2  C   UNL     1      25.590  41.367  49.484  1.00  0.00     0.315 C 
HETATM    3  O   UNL     1      25.575  40.277  50.044  1.00  0.00    -0.262 OA
HETATM    4  H   UNL     1      25.299  42.521  47.820  1.00  0.00     0.171 HD
ENDROOT
BRANCH   1   5
HETATM    5  C   UNL     1      23.976  40.901  47.758  1.00  0.00     0.152 C 
HETATM    6  N   UNL     1      24.234  39.877  46.847  1.00  0.00    -0.045 N 
HETATM    7  N   UNL     1      23.065  39.394  46.307  1.00  0.00    -0.156 NA
HETATM    8  C   UNL     1      22.102  39.948  47.054  1.00  0.00     0.055 C 
HETATM    9  C   UNL     1      20.677  39.610  46.813  1.00  0.00     0.072 C 
HETATM   10  C   UNL     1      22.623  40.853  48.004  1.00  0.00     0.079 C 
BRANCH   6  11
HETATM   11  C   UNL     1      25.435  39.180  46.582  1.00  0.00     0.732 A 
HETATM   12  N   UNL     1      26.091  39.247  45.466  1.00  0.00    -0.067 NA
HETATM   13  C   UNL     1      27.261  38.526  45.394  1.00  0.00     0.065 A 
HETATM   14  C   UNL     1      27.779  37.819  46.416  1.00  0.00     0.036 A 
HETATM   15  C   UNL     1      27.966  38.594  44.058  1.00  0.00     0.060 C 
HETATM   16  C   UNL     1      29.054  37.033  46.345  1.00  0.00     0.046 C 
HETATM   17  C   UNL     1      27.034  37.810  47.698  1.00  0.00     0.268 A 
HETATM   18  C   UNL     1      29.552  36.836  44.912  1.00  0.00     0.005 C 
HETATM   19  C   UNL     1      29.419  38.120  44.102  1.00  0.00     0.006 C 
HETATM   20  O   UNL     1      27.464  37.250  48.701  1.00  0.00    -0.267 OA
HETATM   21  N   UNL     1      25.852  38.480  47.681  1.00  0.00    -0.152 N 
HETATM   22  H   UNL     1      25.306  38.542  48.534  1.00  0.00     0.188 HD
ENDBRANCH   6  11
ENDBRANCH   1   5
BRANCH   2  23
HETATM   23  C   UNL     1      26.519  42.476  50.016  1.00  0.00     0.310 C 
HETATM   24  N   UNL     1      26.537  42.553  51.389  1.00  0.00    -0.348 N 
HETATM   25  H   UNL     1      25.885  41.916  51.845  1.00  0.00     0.163 HD
HETATM   26  O   UNL     1      27.130  43.182  49.228  1.00  0.00    -0.262 OA
BRANCH  24  27
HETATM   27  C   UNL     1      27.064  43.686  52.149  1.00  0.00     0.084 C 
HETATM   28  C   UNL     1      25.911  44.700  52.356  1.00  0.00     0.025 C 
HETATM   29  C   UNL     1      26.379  46.097  52.788  1.00  0.00     0.002 C 
HETATM   30  C   UNL     1      25.983  46.442  54.230  1.00  0.00     0.000 C 
HETATM   31  C   UNL     1      26.816  47.590  54.824  1.00  0.00     0.000 C 
HETATM   32  C   UNL     1      27.869  47.098  55.829  1.00  0.00     0.000 C 
HETATM   33  C   UNL     1      28.983  46.270  55.187  1.00  0.00     0.000 C 
HETATM   34  C   UNL     1      29.564  45.238  56.154  1.00  0.00     0.000 C 
HETATM   35  C   UNL     1      30.542  44.267  55.486  1.00  0.00     0.000 C 
HETATM   36  C   UNL     1      29.896  43.040  54.819  1.00  0.00     0.000 C 
HETATM   37  C   UNL     1      29.249  43.298  53.449  1.00  0.00     0.002 C 
HETATM   38  C   UNL     1      27.711  43.241  53.485  1.00  0.00     0.025 C 
ENDBRANCH  24  27
ENDBRANCH   2  23
TORSDOF 4
ENDMDL
MODEL 10
REMARK VINA RESULT:      -9.8      5.221      8.568
REMARK  4 active torsions:
REMARK  status: ('A' for Active; 'I' for Inactive)
REMARK    1  A    between atoms: N_4  and  C_5 
REMARK    2  A    between atoms: C_16  and  N_17 
REMARK       I    between atoms: N_17  and  C_18 
REMARK    3  A    between atoms: C_18  and  C_19 
REMARK       I    between atoms: C_19  and  N_20 
REMARK    4  A    between atoms: N_20  and  C_21 
ROOT
HETATM    1  N   UNL     1      24.356  43.348  48.465  1.00  0.00    -0.303 N 
HETATM    2  C   UNL     1      23.799  42.973  49.674  1.00  0.00     0.315 C 
HETATM    3  O   UNL     1      22.914  42.147  49.868  1.00  0.00    -0.262 OA
HETATM    4  H   UNL     1      25.287  43.752  48.507  1.00  0.00     0.171 HD
ENDROOT
BRANCH   1   5
HETATM    5  C   UNL     1      23.834  42.897  47.267  1.00  0.00     0.152 C 
HETATM    6  N   UNL     1      24.376  41.908  46.447  1.00  0.00    -0.045 N 
HETATM    7  N   UNL     1      23.728  41.865  45.234  1.00  0.00    -0.156 NA
HETATM    8  C   UNL     1      22.656  42.648  45.405  1.00  0.00     0.055 C 
HETATM    9  C   UNL     1      21.659  42.804  44.317  1.00  0.00     0.072 C 
HETATM   10  C   UNL     1      22.650  43.271  46.672  1.00  0.00     0.079 C 
BRANCH   6  11
HETATM   11  C   UNL     1      25.299  40.881  46.752  1.00  0.00     0.732 A 
HETATM   12  N   UNL     1      26.393  41.053  47.425  1.00  0.00    -0.067 NA
HETATM   13  C   UNL     1      27.157  39.933  47.658  1.00  0.00     0.065 A 
HETATM   14  C   UNL     1      26.808  38.688  47.284  1.00  0.00     0.036 A 
HETATM   15  C   UNL     1      28.448  40.190  48.403  1.00  0.00     0.060 C 
HETATM   16  C   UNL     1      27.636  37.462  47.536  1.00  0.00     0.046 C 
HETATM   17  C   UNL     1      25.522  38.516  46.567  1.00  0.00     0.268 A 
HETATM   18  C   UNL     1      29.066  37.789  47.968  1.00  0.00     0.005 C 
HETATM   19  C   UNL     1      29.088  38.927  48.981  1.00  0.00     0.006 C 
HETATM   20  O   UNL     1      25.093  37.412  46.248  1.00  0.00    -0.267 OA
HETATM   21  N   UNL     1      24.851  39.668  46.304  1.00  0.00    -0.152 N 
HETATM   22  H   UNL     1      23.948  39.621  45.845  1.00  0.00     0.188 HD
ENDBRANCH   6  11
ENDBRANCH   1   5
BRANCH   2  23
HETATM   23  C   UNL     1      24.474  43.654  50.881  1.00  0.00     0.310 C 
HETATM   24  N   UNL     1      25.765  43.226  51.090  1.00  0.00    -0.348 N 
HETATM   25  H   UNL     1      26.056  42.478  50.462  1.00  0.00     0.163 HD
HETATM   26  O   UNL     1      23.849  44.469  51.542  1.00  0.00    -0.262 OA
BRANCH  24  27
HETATM   27  C   UNL     1      26.524  43.452  52.319  1.00  0.00     0.084 C 
HETATM   28  C   UNL     1      27.703  42.446  52.346  1.00  0.00     0.025 C 
HETATM   29  C   UNL     1      28.358  42.289  53.725  1.00  0.00     0.002 C 
HETATM   30  C   UNL     1      29.782  42.858  53.779  1.00  0.00     0.000 C 
HETATM   31  C   UNL     1      30.264  43.135  55.212  1.00  0.00     0.000 C 
HETATM   32  C   UNL     1      30.258  44.632  55.560  1.00  0.00     0.000 C 
HETATM   33  C   UNL     1      28.854  45.235  55.634  1.00  0.00     0.000 C 
HETATM   34  C   UNL     1      28.843  46.717  55.263  1.00  0.00     0.000 C 
HETATM   35  C   UNL     1      27.431  47.299  55.139  1.00  0.00     0.000 C 
HETATM   36  C   UNL     1      26.764  47.115  53.764  1.00  0.00     0.000 C 
HETATM   37  C   UNL     1      26.189  45.717  53.491  1.00  0.00     0.002 C 
HETATM   38  C   UNL     1      26.997  44.923  52.449  1.00  0.00     0.025 C 
ENDBRANCH  24  27
ENDBRANCH   2  23
TORSDOF 4
ENDMDL
