MODEL 1
REMARK VINA RESULT:      -8.9      0.000      0.000
REMARK  9 active torsions:
REMARK  status: ('A' for Active; 'I' for Inactive)
REMARK    1  A    between atoms: C_2  and  C_3 
REMARK    2  A    between atoms: C_3  and  O_4 
REMARK    3  A    between atoms: O_4  and  C_5 
REMARK    4  A    between atoms: C_8  and  C_9 
REMARK    5  A    between atoms: N_10  and  N_11 
REMARK       I    between atoms: N_11  and  C_12 
REMARK    6  A    between atoms: C_12  and  C_13 
REMARK    7  A    between atoms: C_17  and  C_18 
REMARK    8  A    between atoms: C_21  and  O_22 
REMARK    9  A    between atoms: O_22  and  C_23 
ROOT
HETATM    1  N   UNL     1      24.864  47.535  50.711  1.00  0.00    -0.242 N 
HETATM    2  C   UNL     1      25.237  48.297  49.615  1.00  0.00     0.289 C 
HETATM    3  O   UNL     1      26.388  48.394  49.198  1.00  0.00    -0.264 OA
HETATM    4  H   UNL     1      23.905  47.526  51.033  1.00  0.00     0.192 HD
ENDROOT
BRANCH   2   5
HETATM    5  C   UNL     1      24.157  49.009  48.977  1.00  0.00     0.121 A 
HETATM    6  N   UNL     1      24.366  49.718  47.827  1.00  0.00    -0.272 N 
HETATM    7  H   UNL     1      25.244  49.811  47.323  1.00  0.00     0.189 HD
HETATM    8  N   UNL     1      23.278  50.351  47.365  1.00  0.00    -0.174 NA
HETATM    9  C   UNL     1      22.301  50.015  48.221  1.00  0.00     0.089 A 
HETATM   10  C   UNL     1      22.815  49.177  49.252  1.00  0.00     0.071 A 
BRANCH   9  11
HETATM   11  C   UNL     1      20.929  50.503  48.051  1.00  0.00    -0.005 A 
HETATM   12  C   UNL     1      20.475  51.643  48.726  1.00  0.00     0.016 A 
HETATM   13  C   UNL     1      19.167  52.104  48.539  1.00  0.00     0.037 A 
HETATM   14  C   UNL     1      18.293  51.442  47.674  1.00  0.00     0.068 A 
HETATM   15  C   UNL     1      18.732  50.298  47.009  1.00  0.00     0.037 A 
HETATM   16  C   UNL     1      20.039  49.833  47.200  1.00  0.00     0.016 A 
BRANCH  14  17
HETATM   17  O   UNL     1      17.051  52.005  47.575  1.00  0.00    -0.352 OA
BRANCH  17  18
HETATM   18  C   UNL     1      15.985  51.334  48.245  1.00  0.00     0.171 C 
HETATM   19  C   UNL     1      15.520  52.219  49.387  1.00  0.00     0.034 C 
ENDBRANCH  17  18
ENDBRANCH  14  17
ENDBRANCH   9  11
ENDBRANCH   2   5
BRANCH   1  20
HETATM   20  N   UNL     1      25.804  46.817  51.390  1.00  0.00    -0.184 NA
HETATM   21  C   UNL     1      25.949  47.107  52.642  1.00  0.00     0.150 C 
BRANCH  21  22
HETATM   22  C   UNL     1      26.931  46.396  53.485  1.00  0.00    -0.017 A 
HETATM   23  C   UNL     1      27.175  45.034  53.296  1.00  0.00     0.016 A 
HETATM   24  C   UNL     1      28.106  44.369  54.102  1.00  0.00     0.037 A 
HETATM   25  C   UNL     1      28.795  45.064  55.097  1.00  0.00     0.068 A 
HETATM   26  C   UNL     1      28.544  46.429  55.279  1.00  0.00     0.037 A 
HETATM   27  C   UNL     1      27.614  47.099  54.478  1.00  0.00     0.016 A 
BRANCH  25  28
HETATM   28  O   UNL     1      29.727  44.535  55.947  1.00  0.00    -0.351 OA
BRANCH  28  29
HETATM   29  C   UNL     1      30.268  45.409  56.938  1.00  0.00     0.175 C 
BRANCH  29  30
HETATM   30  C   UNL     1      31.102  44.569  57.901  1.00  0.00     0.022 C 
HETATM   31  C   UNL     1      31.662  43.329  57.227  1.00  0.00     0.007 C 
ENDBRANCH  29  30
ENDBRANCH  28  29
ENDBRANCH  25  28
ENDBRANCH  21  22
ENDBRANCH   1  20
TORSDOF 9
ENDMDL
MODEL 2
REMARK VINA RESULT:      -8.4      1.906     12.693
REMARK  9 active torsions:
REMARK  status: ('A' for Active; 'I' for Inactive)
REMARK    1  A    between atoms: C_2  and  C_3 
REMARK    2  A    between atoms: C_3  and  O_4 
REMARK    3  A    between atoms: O_4  and  C_5 
REMARK    4  A    between atoms: C_8  and  C_9 
REMARK    5  A    between atoms: N_10  and  N_11 
REMARK       I    between atoms: N_11  and  C_12 
REMARK    6  A    between atoms: C_12  and  C_13 
REMARK    7  A    between atoms: C_17  and  C_18 
REMARK    8  A    between atoms: C_21  and  O_22 
REMARK    9  A    between atoms: O_22  and  C_23 
ROOT
HETATM    1  N   UNL     1      22.860  47.665  49.582  1.00  0.00    -0.242 N 
HETATM    2  C   UNL     1      24.196  47.901  49.864  1.00  0.00     0.289 C 
HETATM    3  O   UNL     1      24.822  48.884  49.476  1.00  0.00    -0.264 OA
HETATM    4  H   UNL     1      22.408  46.816  49.895  1.00  0.00     0.192 HD
ENDROOT
BRANCH   2   5
HETATM    5  C   UNL     1      24.838  46.882  50.656  1.00  0.00     0.121 A 
HETATM    6  N   UNL     1      24.218  45.689  50.902  1.00  0.00    -0.272 N 
HETATM    7  H   UNL     1      23.300  45.403  50.571  1.00  0.00     0.189 HD
HETATM    8  N   UNL     1      24.922  44.850  51.675  1.00  0.00    -0.174 NA
HETATM    9  C   UNL     1      26.072  45.498  51.919  1.00  0.00     0.089 A 
HETATM   10  C   UNL     1      26.055  46.781  51.300  1.00  0.00     0.071 A 
BRANCH   9  11
HETATM   11  C   UNL     1      27.133  44.900  52.733  1.00  0.00    -0.005 A 
HETATM   12  C   UNL     1      27.399  45.356  54.029  1.00  0.00     0.016 A 
HETATM   13  C   UNL     1      28.406  44.762  54.798  1.00  0.00     0.037 A 
HETATM   14  C   UNL     1      29.159  43.701  54.292  1.00  0.00     0.068 A 
HETATM   15  C   UNL     1      28.912  43.249  52.997  1.00  0.00     0.037 A 
HETATM   16  C   UNL     1      27.908  43.847  52.225  1.00  0.00     0.016 A 
BRANCH  14  17
HETATM   17  O   UNL     1      30.101  43.207  55.151  1.00  0.00    -0.352 OA
BRANCH  17  18
HETATM   18  C   UNL     1      30.834  44.158  55.921  1.00  0.00     0.171 C 
HETATM   19  C   UNL     1      31.606  43.401  56.987  1.00  0.00     0.034 C 
ENDBRANCH  17  18
ENDBRANCH  14  17
ENDBRANCH   9  11
ENDBRANCH   2   5
BRANCH   1  20
HETATM   20  N   UNL     1      22.152  48.565  48.842  1.00  0.00    -0.184 NA
HETATM   21  C   UNL     1      21.014  48.938  49.332  1.00  0.00     0.150 C 
BRANCH  21  22
HETATM   22  C   UNL     1      20.158  49.912  48.627  1.00  0.00    -0.017 A 
HETATM   23  C   UNL     1      20.031  51.220  49.101  1.00  0.00     0.016 A 
HETATM   24  C   UNL     1      19.214  52.135  48.427  1.00  0.00     0.037 A 
HETATM   25  C   UNL     1      18.525  51.745  47.279  1.00  0.00     0.068 A 
HETATM   26  C   UNL     1      18.658  50.433  46.810  1.00  0.00     0.037 A 
HETATM   27  C   UNL     1      19.471  49.513  47.480  1.00  0.00     0.016 A 
BRANCH  25  28
HETATM   28  O   UNL     1      17.700  52.539  46.530  1.00  0.00    -0.351 OA
BRANCH  28  29
HETATM   29  C   UNL     1      17.373  52.076  45.219  1.00  0.00     0.175 C 
BRANCH  29  30
HETATM   30  C   UNL     1      16.813  53.256  44.429  1.00  0.00     0.022 C 
HETATM   31  C   UNL     1      17.075  53.112  42.940  1.00  0.00     0.007 C 
ENDBRANCH  29  30
ENDBRANCH  28  29
ENDBRANCH  25  28
ENDBRANCH  21  22
ENDBRANCH   1  20
TORSDOF 9
ENDMDL
MODEL 3
REMARK VINA RESULT:      -8.4      2.051     12.225
REMARK  9 active torsions:
REMARK  status: ('A' for Active; 'I' for Inactive)
REMARK    1  A    between atoms: C_2  and  C_3 
REMARK    2  A    between atoms: C_3  and  O_4 
REMARK    3  A    between atoms: O_4  and  C_5 
REMARK    4  A    between atoms: C_8  and  C_9 
REMARK    5  A    between atoms: N_10  and  N_11 
REMARK       I    between atoms: N_11  and  C_12 
REMARK    6  A    between atoms: C_12  and  C_13 
REMARK    7  A    between atoms: C_17  and  C_18 
REMARK    8  A    between atoms: C_21  and  O_22 
REMARK    9  A    between atoms: O_22  and  C_23 
ROOT
HETATM    1  N   UNL     1      23.837  46.993  49.680  1.00  0.00    -0.242 N 
HETATM    2  C   UNL     1      24.031  45.638  49.457  1.00  0.00     0.289 C 
HETATM    3  O   UNL     1      23.253  44.921  48.834  1.00  0.00    -0.264 OA
HETATM    4  H   UNL     1      24.494  47.524  50.237  1.00  0.00     0.192 HD
ENDROOT
BRANCH   2   5
HETATM    5  C   UNL     1      25.236  45.096  50.034  1.00  0.00     0.121 A 
HETATM    6  N   UNL     1      26.178  44.488  49.252  1.00  0.00    -0.272 N 
HETATM    7  H   UNL     1      26.141  44.365  48.244  1.00  0.00     0.189 HD
HETATM    8  N   UNL     1      27.230  44.007  49.930  1.00  0.00    -0.174 NA
HETATM    9  C   UNL     1      26.994  44.344  51.207  1.00  0.00     0.089 A 
HETATM   10  C   UNL     1      25.747  45.025  51.315  1.00  0.00     0.071 A 
BRANCH   9  11
HETATM   11  C   UNL     1      27.935  44.004  52.278  1.00  0.00    -0.005 A 
HETATM   12  C   UNL     1      27.809  44.556  53.558  1.00  0.00     0.016 A 
HETATM   13  C   UNL     1      28.707  44.207  54.573  1.00  0.00     0.037 A 
HETATM   14  C   UNL     1      29.739  43.299  54.332  1.00  0.00     0.068 A 
HETATM   15  C   UNL     1      29.882  42.755  53.057  1.00  0.00     0.037 A 
HETATM   16  C   UNL     1      28.987  43.108  52.039  1.00  0.00     0.016 A 
BRANCH  14  17
HETATM   17  O   UNL     1      30.536  43.038  55.412  1.00  0.00    -0.352 OA
BRANCH  17  18
HETATM   18  C   UNL     1      31.157  44.158  56.040  1.00  0.00     0.171 C 
HETATM   19  C   UNL     1      31.426  43.792  57.488  1.00  0.00     0.034 C 
ENDBRANCH  17  18
ENDBRANCH  14  17
ENDBRANCH   9  11
ENDBRANCH   2   5
BRANCH   1  20
HETATM   20  N   UNL     1      22.731  47.612  49.177  1.00  0.00    -0.184 NA
HETATM   21  C   UNL     1      22.720  48.904  49.247  1.00  0.00     0.150 C 
BRANCH  21  22
HETATM   22  C   UNL     1      21.580  49.690  48.732  1.00  0.00    -0.017 A 
HETATM   23  C   UNL     1      20.713  49.143  47.783  1.00  0.00     0.016 A 
HETATM   24  C   UNL     1      19.637  49.897  47.299  1.00  0.00     0.037 A 
HETATM   25  C   UNL     1      19.427  51.196  47.763  1.00  0.00     0.068 A 
HETATM   26  C   UNL     1      20.301  51.735  48.714  1.00  0.00     0.037 A 
HETATM   27  C   UNL     1      21.379  50.988  49.201  1.00  0.00     0.016 A 
BRANCH  25  28
HETATM   28  O   UNL     1      18.418  52.033  47.375  1.00  0.00    -0.351 OA
BRANCH  28  29
HETATM   29  C   UNL     1      17.086  51.527  47.467  1.00  0.00     0.175 C 
BRANCH  29  30
HETATM   30  C   UNL     1      16.699  51.485  48.943  1.00  0.00     0.022 C 
HETATM   31  C   UNL     1      16.769  52.861  49.582  1.00  0.00     0.007 C 
ENDBRANCH  29  30
ENDBRANCH  28  29
ENDBRANCH  25  28
ENDBRANCH  21  22
ENDBRANCH   1  20
TORSDOF 9
ENDMDL
MODEL 4
REMARK VINA RESULT:      -8.3      1.053      1.674
REMARK  9 active torsions:
REMARK  status: ('A' for Active; 'I' for Inactive)
REMARK    1  A    between atoms: C_2  and  C_3 
REMARK    2  A    between atoms: C_3  and  O_4 
REMARK    3  A    between atoms: O_4  and  C_5 
REMARK    4  A    between atoms: C_8  and  C_9 
REMARK    5  A    between atoms: N_10  and  N_11 
REMARK       I    between atoms: N_11  and  C_12 
REMARK    6  A    between atoms: C_12  and  C_13 
REMARK    7  A    between atoms: C_17  and  C_18 
REMARK    8  A    between atoms: C_21  and  O_22 
REMARK    9  A    between atoms: O_22  and  C_23 
ROOT
HETATM    1  N   UNL     1      24.643  47.161  50.758  1.00  0.00    -0.242 N 
HETATM    2  C   UNL     1      24.785  48.174  49.822  1.00  0.00     0.289 C 
HETATM    3  O   UNL     1      25.847  48.735  49.566  1.00  0.00    -0.264 OA
HETATM    4  H   UNL     1      23.734  46.763  50.955  1.00  0.00     0.192 HD
ENDROOT
BRANCH   2   5
HETATM    5  C   UNL     1      23.567  48.555  49.152  1.00  0.00     0.121 A 
HETATM    6  N   UNL     1      23.089  47.829  48.096  1.00  0.00    -0.272 N 
HETATM    7  H   UNL     1      23.506  46.993  47.697  1.00  0.00     0.189 HD
HETATM    8  N   UNL     1      21.964  48.318  47.556  1.00  0.00    -0.174 NA
HETATM    9  C   UNL     1      21.663  49.388  48.308  1.00  0.00     0.089 A 
HETATM   10  C   UNL     1      22.650  49.574  49.319  1.00  0.00     0.071 A 
BRANCH   9  11
HETATM   11  C   UNL     1      20.474  50.204  48.044  1.00  0.00    -0.005 A 
HETATM   12  C   UNL     1      19.426  49.723  47.251  1.00  0.00     0.016 A 
HETATM   13  C   UNL     1      18.291  50.510  47.022  1.00  0.00     0.037 A 
HETATM   14  C   UNL     1      18.179  51.783  47.584  1.00  0.00     0.068 A 
HETATM   15  C   UNL     1      19.225  52.276  48.363  1.00  0.00     0.037 A 
HETATM   16  C   UNL     1      20.363  51.491  48.588  1.00  0.00     0.016 A 
BRANCH  14  17
HETATM   17  O   UNL     1      17.016  52.438  47.291  1.00  0.00    -0.352 OA
BRANCH  17  18
HETATM   18  C   UNL     1      16.483  52.250  45.981  1.00  0.00     0.171 C 
HETATM   19  C   UNL     1      15.214  53.075  45.870  1.00  0.00     0.034 C 
ENDBRANCH  17  18
ENDBRANCH  14  17
ENDBRANCH   9  11
ENDBRANCH   2   5
BRANCH   1  20
HETATM   20  N   UNL     1      25.731  46.718  51.451  1.00  0.00    -0.184 NA
HETATM   21  C   UNL     1      25.622  46.711  52.740  1.00  0.00     0.150 C 
BRANCH  21  22
HETATM   22  C   UNL     1      26.731  46.249  53.600  1.00  0.00    -0.017 A 
HETATM   23  C   UNL     1      27.278  47.095  54.568  1.00  0.00     0.016 A 
HETATM   24  C   UNL     1      28.330  46.649  55.376  1.00  0.00     0.037 A 
HETATM   25  C   UNL     1      28.836  45.358  55.218  1.00  0.00     0.068 A 
HETATM   26  C   UNL     1      28.281  44.518  54.246  1.00  0.00     0.037 A 
HETATM   27  C   UNL     1      27.231  44.957  53.434  1.00  0.00     0.016 A 
BRANCH  25  28
HETATM   28  O   UNL     1      29.855  44.802  55.941  1.00  0.00    -0.351 OA
BRANCH  28  29
HETATM   29  C   UNL     1      30.428  45.604  56.974  1.00  0.00     0.175 C 
BRANCH  29  30
HETATM   30  C   UNL     1      31.103  44.671  57.975  1.00  0.00     0.022 C 
HETATM   31  C   UNL     1      31.752  43.483  57.287  1.00  0.00     0.007 C 
ENDBRANCH  29  30
ENDBRANCH  28  29
ENDBRANCH  25  28
ENDBRANCH  21  22
ENDBRANCH   1  20
TORSDOF 9
ENDMDL
MODEL 5
REMARK VINA RESULT:      -7.7      2.267      3.087
REMARK  9 active torsions:
REMARK  status: ('A' for Active; 'I' for Inactive)
REMARK    1  A    between atoms: C_2  and  C_3 
REMARK    2  A    between atoms: C_3  and  O_4 
REMARK    3  A    between atoms: O_4  and  C_5 
REMARK    4  A    between atoms: C_8  and  C_9 
REMARK    5  A    between atoms: N_10  and  N_11 
REMARK       I    between atoms: N_11  and  C_12 
REMARK    6  A    between atoms: C_12  and  C_13 
REMARK    7  A    between atoms: C_17  and  C_18 
REMARK    8  A    between atoms: C_21  and  O_22 
REMARK    9  A    between atoms: O_22  and  C_23 
ROOT
HETATM    1  N   UNL     1      23.873  47.914  50.130  1.00  0.00    -0.242 N 
HETATM    2  C   UNL     1      22.912  47.760  49.143  1.00  0.00     0.289 C 
HETATM    3  O   UNL     1      22.884  46.827  48.344  1.00  0.00    -0.264 OA
HETATM    4  H   UNL     1      23.868  48.726  50.734  1.00  0.00     0.192 HD
ENDROOT
BRANCH   2   5
HETATM    5  C   UNL     1      21.918  48.804  49.096  1.00  0.00     0.121 A 
HETATM    6  N   UNL     1      22.276  50.105  48.879  1.00  0.00    -0.272 N 
HETATM    7  H   UNL     1      23.217  50.458  48.729  1.00  0.00     0.189 HD
HETATM    8  N   UNL     1      21.250  50.967  48.889  1.00  0.00    -0.174 NA
HETATM    9  C   UNL     1      20.165  50.202  49.083  1.00  0.00     0.089 A 
HETATM   10  C   UNL     1      20.544  48.836  49.223  1.00  0.00     0.071 A 
BRANCH   9  11
HETATM   11  C   UNL     1      18.819  50.779  49.144  1.00  0.00    -0.005 A 
HETATM   12  C   UNL     1      17.714  50.101  48.616  1.00  0.00     0.016 A 
HETATM   13  C   UNL     1      16.434  50.659  48.698  1.00  0.00     0.037 A 
HETATM   14  C   UNL     1      16.232  51.897  49.312  1.00  0.00     0.068 A 
HETATM   15  C   UNL     1      17.328  52.587  49.826  1.00  0.00     0.037 A 
HETATM   16  C   UNL     1      18.611  52.031  49.740  1.00  0.00     0.016 A 
BRANCH  14  17
HETATM   17  O   UNL     1      14.932  52.320  49.333  1.00  0.00    -0.352 OA
BRANCH  17  18
HETATM   18  C   UNL     1      14.710  53.711  49.558  1.00  0.00     0.171 C 
HETATM   19  C   UNL     1      13.989  53.862  50.885  1.00  0.00     0.034 C 
ENDBRANCH  17  18
ENDBRANCH  14  17
ENDBRANCH   9  11
ENDBRANCH   2   5
BRANCH   1  20
HETATM   20  N   UNL     1      24.860  46.984  50.268  1.00  0.00    -0.184 NA
HETATM   21  C   UNL     1      24.759  46.191  51.286  1.00  0.00     0.150 C 
BRANCH  21  22
HETATM   22  C   UNL     1      25.764  45.139  51.541  1.00  0.00    -0.017 A 
HETATM   23  C   UNL     1      26.523  44.613  50.493  1.00  0.00     0.016 A 
HETATM   24  C   UNL     1      27.470  43.615  50.744  1.00  0.00     0.037 A 
HETATM   25  C   UNL     1      27.660  43.140  52.043  1.00  0.00     0.068 A 
HETATM   26  C   UNL     1      26.896  43.674  53.087  1.00  0.00     0.037 A 
HETATM   27  C   UNL     1      25.946  44.671  52.842  1.00  0.00     0.016 A 
BRANCH  25  28
HETATM   28  O   UNL     1      28.550  42.174  52.421  1.00  0.00    -0.351 OA
BRANCH  28  29
HETATM   29  C   UNL     1      28.983  42.190  53.782  1.00  0.00     0.175 C 
BRANCH  29  30
HETATM   30  C   UNL     1      30.308  42.944  53.846  1.00  0.00     0.022 C 
HETATM   31  C   UNL     1      30.635  43.389  55.261  1.00  0.00     0.007 C 
ENDBRANCH  29  30
ENDBRANCH  28  29
ENDBRANCH  25  28
ENDBRANCH  21  22
ENDBRANCH   1  20
TORSDOF 9
ENDMDL
MODEL 6
REMARK VINA RESULT:      -7.4     19.647     22.852
REMARK  9 active torsions:
REMARK  status: ('A' for Active; 'I' for Inactive)
REMARK    1  A    between atoms: C_2  and  C_3 
REMARK    2  A    between atoms: C_3  and  O_4 
REMARK    3  A    between atoms: O_4  and  C_5 
REMARK    4  A    between atoms: C_8  and  C_9 
REMARK    5  A    between atoms: N_10  and  N_11 
REMARK       I    between atoms: N_11  and  C_12 
REMARK    6  A    between atoms: C_12  and  C_13 
REMARK    7  A    between atoms: C_17  and  C_18 
REMARK    8  A    between atoms: C_21  and  O_22 
REMARK    9  A    between atoms: O_22  and  C_23 
ROOT
HETATM    1  N   UNL     1      38.480  46.833  64.951  1.00  0.00    -0.242 N 
HETATM    2  C   UNL     1      37.477  46.153  64.277  1.00  0.00     0.289 C 
HETATM    3  O   UNL     1      36.417  46.660  63.920  1.00  0.00    -0.264 OA
HETATM    4  H   UNL     1      39.315  46.351  65.256  1.00  0.00     0.192 HD
ENDROOT
BRANCH   2   5
HETATM    5  C   UNL     1      37.753  44.761  64.024  1.00  0.00     0.121 A 
HETATM    6  N   UNL     1      36.871  43.986  63.323  1.00  0.00    -0.272 N 
HETATM    7  H   UNL     1      35.986  44.285  62.924  1.00  0.00     0.189 HD
HETATM    8  N   UNL     1      37.247  42.706  63.190  1.00  0.00    -0.174 NA
HETATM    9  C   UNL     1      38.445  42.640  63.793  1.00  0.00     0.089 A 
HETATM   10  C   UNL     1      38.795  43.910  64.335  1.00  0.00     0.071 A 
BRANCH   9  11
HETATM   11  C   UNL     1      39.207  41.389  63.852  1.00  0.00    -0.005 A 
HETATM   12  C   UNL     1      40.017  41.084  64.953  1.00  0.00     0.016 A 
HETATM   13  C   UNL     1      40.725  39.878  65.000  1.00  0.00     0.037 A 
HETATM   14  C   UNL     1      40.633  38.955  63.956  1.00  0.00     0.068 A 
HETATM   15  C   UNL     1      39.841  39.256  62.850  1.00  0.00     0.037 A 
HETATM   16  C   UNL     1      39.137  40.465  62.800  1.00  0.00     0.016 A 
BRANCH  14  17
HETATM   17  O   UNL     1      41.366  37.815  64.136  1.00  0.00    -0.352 OA
BRANCH  17  18
HETATM   18  C   UNL     1      41.667  37.447  65.480  1.00  0.00     0.171 C 
HETATM   19  C   UNL     1      40.711  36.341  65.888  1.00  0.00     0.034 C 
ENDBRANCH  17  18
ENDBRANCH  14  17
ENDBRANCH   9  11
ENDBRANCH   2   5
BRANCH   1  20
HETATM   20  N   UNL     1      38.327  48.156  65.242  1.00  0.00    -0.184 NA
HETATM   21  C   UNL     1      37.904  48.434  66.432  1.00  0.00     0.150 C 
BRANCH  21  22
HETATM   22  C   UNL     1      37.702  49.830  66.868  1.00  0.00    -0.017 A 
HETATM   23  C   UNL     1      37.265  50.113  68.164  1.00  0.00     0.016 A 
HETATM   24  C   UNL     1      37.074  51.440  68.567  1.00  0.00     0.037 A 
HETATM   25  C   UNL     1      37.320  52.485  67.675  1.00  0.00     0.068 A 
HETATM   26  C   UNL     1      37.759  52.192  66.379  1.00  0.00     0.037 A 
HETATM   27  C   UNL     1      37.950  50.868  65.970  1.00  0.00     0.016 A 
BRANCH  25  28
HETATM   28  O   UNL     1      37.176  53.818  67.943  1.00  0.00    -0.351 OA
BRANCH  28  29
HETATM   29  C   UNL     1      37.507  54.728  66.894  1.00  0.00     0.175 C 
BRANCH  29  30
HETATM   30  C   UNL     1      36.977  56.106  67.280  1.00  0.00     0.022 C 
HETATM   31  C   UNL     1      35.828  56.538  66.386  1.00  0.00     0.007 C 
ENDBRANCH  29  30
ENDBRANCH  28  29
ENDBRANCH  25  28
ENDBRANCH  21  22
ENDBRANCH   1  20
TORSDOF 9
ENDMDL
MODEL 7
REMARK VINA RESULT:      -7.3      2.562      3.081
REMARK  9 active torsions:
REMARK  status: ('A' for Active; 'I' for Inactive)
REMARK    1  A    between atoms: C_2  and  C_3 
REMARK    2  A    between atoms: C_3  and  O_4 
REMARK    3  A    between atoms: O_4  and  C_5 
REMARK    4  A    between atoms: C_8  and  C_9 
REMARK    5  A    between atoms: N_10  and  N_11 
REMARK       I    between atoms: N_11  and  C_12 
REMARK    6  A    between atoms: C_12  and  C_13 
REMARK    7  A    between atoms: C_17  and  C_18 
REMARK    8  A    between atoms: C_21  and  O_22 
REMARK    9  A    between atoms: O_22  and  C_23 
ROOT
HETATM    1  N   UNL     1      24.325  46.556  50.635  1.00  0.00    -0.242 N 
HETATM    2  C   UNL     1      24.290  47.719  49.880  1.00  0.00     0.289 C 
HETATM    3  O   UNL     1      25.207  48.534  49.823  1.00  0.00    -0.264 OA
HETATM    4  H   UNL     1      23.522  45.943  50.675  1.00  0.00     0.192 HD
ENDROOT
BRANCH   2   5
HETATM    5  C   UNL     1      23.065  47.932  49.151  1.00  0.00     0.121 A 
HETATM    6  N   UNL     1      22.247  48.987  49.445  1.00  0.00    -0.272 N 
HETATM    7  H   UNL     1      22.404  49.695  50.158  1.00  0.00     0.189 HD
HETATM    8  N   UNL     1      21.131  49.042  48.706  1.00  0.00    -0.174 NA
HETATM    9  C   UNL     1      21.231  48.004  47.862  1.00  0.00     0.089 A 
HETATM   10  C   UNL     1      22.431  47.278  48.114  1.00  0.00     0.071 A 
BRANCH   9  11
HETATM   11  C   UNL     1      20.196  47.722  46.863  1.00  0.00    -0.005 A 
HETATM   12  C   UNL     1      19.166  48.635  46.607  1.00  0.00     0.016 A 
HETATM   13  C   UNL     1      18.195  48.356  45.639  1.00  0.00     0.037 A 
HETATM   14  C   UNL     1      18.238  47.169  44.906  1.00  0.00     0.068 A 
HETATM   15  C   UNL     1      19.251  46.247  45.164  1.00  0.00     0.037 A 
HETATM   16  C   UNL     1      20.219  46.523  46.137  1.00  0.00     0.016 A 
BRANCH  14  17
HETATM   17  O   UNL     1      17.237  47.029  43.985  1.00  0.00    -0.352 OA
BRANCH  17  18
HETATM   18  C   UNL     1      16.242  48.050  43.953  1.00  0.00     0.171 C 
HETATM   19  C   UNL     1      15.111  47.574  43.060  1.00  0.00     0.034 C 
ENDBRANCH  17  18
ENDBRANCH  14  17
ENDBRANCH   9  11
ENDBRANCH   2   5
BRANCH   1  20
HETATM   20  N   UNL     1      25.437  46.252  51.363  1.00  0.00    -0.184 NA
HETATM   21  C   UNL     1      25.411  46.588  52.612  1.00  0.00     0.150 C 
BRANCH  21  22
HETATM   22  C   UNL     1      26.553  46.308  53.505  1.00  0.00    -0.017 A 
HETATM   23  C   UNL     1      27.091  45.021  53.588  1.00  0.00     0.016 A 
HETATM   24  C   UNL     1      28.172  44.766  54.439  1.00  0.00     0.037 A 
HETATM   25  C   UNL     1      28.716  45.795  55.208  1.00  0.00     0.068 A 
HETATM   26  C   UNL     1      28.171  47.081  55.119  1.00  0.00     0.037 A 
HETATM   27  C   UNL     1      27.090  47.343  54.271  1.00  0.00     0.016 A 
BRANCH  25  28
HETATM   28  O   UNL     1      29.769  45.679  56.074  1.00  0.00    -0.351 OA
BRANCH  28  29
HETATM   29  C   UNL     1      30.618  44.543  55.911  1.00  0.00     0.175 C 
BRANCH  29  30
HETATM   30  C   UNL     1      31.320  44.285  57.241  1.00  0.00     0.022 C 
HETATM   31  C   UNL     1      31.994  42.924  57.267  1.00  0.00     0.007 C 
ENDBRANCH  29  30
ENDBRANCH  28  29
ENDBRANCH  25  28
ENDBRANCH  21  22
ENDBRANCH   1  20
TORSDOF 9
ENDMDL
MODEL 8
REMARK VINA RESULT:      -7.3      2.062      2.743
REMARK  9 active torsions:
REMARK  status: ('A' for Active; 'I' for Inactive)
REMARK    1  A    between atoms: C_2  and  C_3 
REMARK    2  A    between atoms: C_3  and  O_4 
REMARK    3  A    between atoms: O_4  and  C_5 
REMARK    4  A    between atoms: C_8  and  C_9 
REMARK    5  A    between atoms: N_10  and  N_11 
REMARK       I    between atoms: N_11  and  C_12 
REMARK    6  A    between atoms: C_12  and  C_13 
REMARK    7  A    between atoms: C_17  and  C_18 
REMARK    8  A    between atoms: C_21  and  O_22 
REMARK    9  A    between atoms: O_22  and  C_23 
ROOT
HETATM    1  N   UNL     1      24.086  48.037  50.110  1.00  0.00    -0.242 N 
HETATM    2  C   UNL     1      23.106  47.661  49.203  1.00  0.00     0.289 C 
HETATM    3  O   UNL     1      23.079  46.578  48.623  1.00  0.00    -0.264 OA
HETATM    4  H   UNL     1      24.077  48.959  50.526  1.00  0.00     0.192 HD
ENDROOT
BRANCH   2   5
HETATM    5  C   UNL     1      22.091  48.655  48.960  1.00  0.00     0.121 A 
HETATM    6  N   UNL     1      21.818  49.622  49.887  1.00  0.00    -0.272 N 
HETATM    7  H   UNL     1      22.274  49.744  50.787  1.00  0.00     0.189 HD
HETATM    8  N   UNL     1      20.832  50.459  49.536  1.00  0.00    -0.174 NA
HETATM    9  C   UNL     1      20.463  50.055  48.311  1.00  0.00     0.089 A 
HETATM   10  C   UNL     1      21.227  48.919  47.916  1.00  0.00     0.071 A 
BRANCH   9  11
HETATM   11  C   UNL     1      19.401  50.735  47.565  1.00  0.00    -0.005 A 
HETATM   12  C   UNL     1      19.130  50.412  46.230  1.00  0.00     0.016 A 
HETATM   13  C   UNL     1      18.102  51.061  45.537  1.00  0.00     0.037 A 
HETATM   14  C   UNL     1      17.323  52.036  46.164  1.00  0.00     0.068 A 
HETATM   15  C   UNL     1      17.595  52.375  47.488  1.00  0.00     0.037 A 
HETATM   16  C   UNL     1      18.628  51.730  48.180  1.00  0.00     0.016 A 
BRANCH  14  17
HETATM   17  O   UNL     1      16.346  52.580  45.377  1.00  0.00    -0.352 OA
BRANCH  17  18
HETATM   18  C   UNL     1      15.209  53.123  46.045  1.00  0.00     0.171 C 
HETATM   19  C   UNL     1      14.570  54.146  45.123  1.00  0.00     0.034 C 
ENDBRANCH  17  18
ENDBRANCH  14  17
ENDBRANCH   9  11
ENDBRANCH   2   5
BRANCH   1  20
HETATM   20  N   UNL     1      25.094  47.173  50.418  1.00  0.00    -0.184 NA
HETATM   21  C   UNL     1      25.131  46.751  51.640  1.00  0.00     0.150 C 
BRANCH  21  22
HETATM   22  C   UNL     1      26.172  45.808  52.095  1.00  0.00    -0.017 A 
HETATM   23  C   UNL     1      26.602  45.812  53.424  1.00  0.00     0.016 A 
HETATM   24  C   UNL     1      27.592  44.917  53.844  1.00  0.00     0.037 A 
HETATM   25  C   UNL     1      28.153  44.016  52.938  1.00  0.00     0.068 A 
HETATM   26  C   UNL     1      27.715  44.018  51.609  1.00  0.00     0.037 A 
HETATM   27  C   UNL     1      26.728  44.911  51.181  1.00  0.00     0.016 A 
BRANCH  25  28
HETATM   28  O   UNL     1      29.121  43.092  53.220  1.00  0.00    -0.351 OA
BRANCH  28  29
HETATM   29  C   UNL     1      29.340  42.784  54.597  1.00  0.00     0.175 C 
BRANCH  29  30
HETATM   30  C   UNL     1      30.706  43.337  54.992  1.00  0.00     0.022 C 
HETATM   31  C   UNL     1      30.593  44.397  56.075  1.00  0.00     0.007 C 
ENDBRANCH  29  30
ENDBRANCH  28  29
ENDBRANCH  25  28
ENDBRANCH  21  22
ENDBRANCH   1  20
TORSDOF 9
ENDMDL
MODEL 9
REMARK VINA RESULT:      -7.3      2.374     12.548
REMARK  9 active torsions:
REMARK  status: ('A' for Active; 'I' for Inactive)
REMARK    1  A    between atoms: C_2  and  C_3 
REMARK    2  A    between atoms: C_3  and  O_4 
REMARK    3  A    between atoms: O_4  and  C_5 
REMARK    4  A    between atoms: C_8  and  C_9 
REMARK    5  A    between atoms: N_10  and  N_11 
REMARK       I    between atoms: N_11  and  C_12 
REMARK    6  A    between atoms: C_12  and  C_13 
REMARK    7  A    between atoms: C_17  and  C_18 
REMARK    8  A    between atoms: C_21  and  O_22 
REMARK    9  A    between atoms: O_22  and  C_23 
ROOT
HETATM    1  N   UNL     1      22.026  48.011  49.314  1.00  0.00    -0.242 N 
HETATM    2  C   UNL     1      22.635  47.056  48.514  1.00  0.00     0.289 C 
HETATM    3  O   UNL     1      22.383  46.889  47.324  1.00  0.00    -0.264 OA
HETATM    4  H   UNL     1      22.246  48.075  50.300  1.00  0.00     0.192 HD
ENDROOT
BRANCH   2   5
HETATM    5  C   UNL     1      23.606  46.231  49.187  1.00  0.00     0.121 A 
HETATM    6  N   UNL     1      23.993  45.030  48.661  1.00  0.00    -0.272 N 
HETATM    7  H   UNL     1      23.668  44.616  47.792  1.00  0.00     0.189 HD
HETATM    8  N   UNL     1      24.880  44.360  49.410  1.00  0.00    -0.174 NA
HETATM    9  C   UNL     1      25.119  45.167  50.456  1.00  0.00     0.089 A 
HETATM   10  C   UNL     1      24.333  46.350  50.355  1.00  0.00     0.071 A 
BRANCH   9  11
HETATM   11  C   UNL     1      26.061  44.793  51.515  1.00  0.00    -0.005 A 
HETATM   12  C   UNL     1      25.759  45.010  52.864  1.00  0.00     0.016 A 
HETATM   13  C   UNL     1      26.663  44.632  53.863  1.00  0.00     0.037 A 
HETATM   14  C   UNL     1      27.878  44.027  53.535  1.00  0.00     0.068 A 
HETATM   15  C   UNL     1      28.194  43.822  52.194  1.00  0.00     0.037 A 
HETATM   16  C   UNL     1      27.292  44.204  51.194  1.00  0.00     0.016 A 
BRANCH  14  17
HETATM   17  O   UNL     1      28.661  43.699  54.607  1.00  0.00    -0.352 OA
BRANCH  17  18
HETATM   18  C   UNL     1      29.925  43.101  54.323  1.00  0.00     0.171 C 
HETATM   19  C   UNL     1      30.841  43.360  55.505  1.00  0.00     0.034 C 
ENDBRANCH  17  18
ENDBRANCH  14  17
ENDBRANCH   9  11
ENDBRANCH   2   5
BRANCH   1  20
HETATM   20  N   UNL     1      21.093  48.850  48.781  1.00  0.00    -0.184 NA
HETATM   21  C   UNL     1      20.209  49.316  49.602  1.00  0.00     0.150 C 
BRANCH  21  22
HETATM   22  C   UNL     1      19.149  50.238  49.146  1.00  0.00    -0.017 A 
HETATM   23  C   UNL     1      19.470  51.519  48.690  1.00  0.00     0.016 A 
HETATM   24  C   UNL     1      18.458  52.386  48.263  1.00  0.00     0.037 A 
HETATM   25  C   UNL     1      17.125  51.974  48.289  1.00  0.00     0.068 A 
HETATM   26  C   UNL     1      16.813  50.689  48.746  1.00  0.00     0.037 A 
HETATM   27  C   UNL     1      17.819  49.818  49.177  1.00  0.00     0.016 A 
BRANCH  25  28
HETATM   28  O   UNL     1      16.047  52.719  47.899  1.00  0.00    -0.351 OA
BRANCH  28  29
HETATM   29  C   UNL     1      15.487  52.426  46.619  1.00  0.00     0.175 C 
BRANCH  29  30
HETATM   30  C   UNL     1      14.592  53.595  46.217  1.00  0.00     0.022 C 
HETATM   31  C   UNL     1      14.001  54.294  47.429  1.00  0.00     0.007 C 
ENDBRANCH  29  30
ENDBRANCH  28  29
ENDBRANCH  25  28
ENDBRANCH  21  22
ENDBRANCH   1  20
TORSDOF 9
ENDMDL
MODEL 10
REMARK VINA RESULT:      -7.3     13.723     18.468
REMARK  9 active torsions:
REMARK  status: ('A' for Active; 'I' for Inactive)
REMARK    1  A    between atoms: C_2  and  C_3 
REMARK    2  A    between atoms: C_3  and  O_4 
REMARK    3  A    between atoms: O_4  and  C_5 
REMARK    4  A    between atoms: C_8  and  C_9 
REMARK    5  A    between atoms: N_10  and  N_11 
REMARK       I    between atoms: N_11  and  C_12 
REMARK    6  A    between atoms: C_12  and  C_13 
REMARK    7  A    between atoms: C_17  and  C_18 
REMARK    8  A    between atoms: C_21  and  O_22 
REMARK    9  A    between atoms: O_22  and  C_23 
ROOT
HETATM    1  N   UNL     1      34.848  52.086  44.196  1.00  0.00    -0.242 N 
HETATM    2  C   UNL     1      35.995  52.412  43.488  1.00  0.00     0.289 C 
HETATM    3  O   UNL     1      36.007  52.745  42.306  1.00  0.00    -0.264 OA
HETATM    4  H   UNL     1      34.905  51.778  45.157  1.00  0.00     0.192 HD
ENDROOT
BRANCH   2   5
HETATM    5  C   UNL     1      37.219  52.319  44.242  1.00  0.00     0.121 A 
HETATM    6  N   UNL     1      37.945  51.160  44.264  1.00  0.00    -0.272 N 
HETATM    7  H   UNL     1      37.721  50.296  43.779  1.00  0.00     0.189 HD
HETATM    8  N   UNL     1      39.044  51.213  45.030  1.00  0.00    -0.174 NA
HETATM    9  C   UNL     1      39.069  52.468  45.502  1.00  0.00     0.089 A 
HETATM   10  C   UNL     1      37.935  53.194  45.035  1.00  0.00     0.071 A 
BRANCH   9  11
HETATM   11  C   UNL     1      40.142  52.936  46.385  1.00  0.00    -0.005 A 
HETATM   12  C   UNL     1      41.483  52.642  46.115  1.00  0.00     0.016 A 
HETATM   13  C   UNL     1      42.496  53.111  46.959  1.00  0.00     0.037 A 
HETATM   14  C   UNL     1      42.190  53.885  48.081  1.00  0.00     0.068 A 
HETATM   15  C   UNL     1      40.856  54.169  48.366  1.00  0.00     0.037 A 
HETATM   16  C   UNL     1      39.842  53.696  47.524  1.00  0.00     0.016 A 
BRANCH  14  17
HETATM   17  O   UNL     1      43.273  54.286  48.812  1.00  0.00    -0.352 OA
BRANCH  17  18
HETATM   18  C   UNL     1      44.553  54.148  48.197  1.00  0.00     0.171 C 
HETATM   19  C   UNL     1      45.202  55.520  48.157  1.00  0.00     0.034 C 
ENDBRANCH  17  18
ENDBRANCH  14  17
ENDBRANCH   9  11
ENDBRANCH   2   5
BRANCH   1  20
HETATM   20  N   UNL     1      33.632  52.142  43.581  1.00  0.00    -0.184 NA
HETATM   21  C   UNL     1      33.047  51.007  43.370  1.00  0.00     0.150 C 
BRANCH  21  22
HETATM   22  C   UNL     1      31.724  50.937  42.717  1.00  0.00    -0.017 A 
HETATM   23  C   UNL     1      31.127  49.702  42.453  1.00  0.00     0.016 A 
HETATM   24  C   UNL     1      29.875  49.646  41.831  1.00  0.00     0.037 A 
HETATM   25  C   UNL     1      29.218  50.823  41.472  1.00  0.00     0.068 A 
HETATM   26  C   UNL     1      29.823  52.056  41.741  1.00  0.00     0.037 A 
HETATM   27  C   UNL     1      31.075  52.119  42.360  1.00  0.00     0.016 A 
BRANCH  25  28
HETATM   28  O   UNL     1      27.996  50.906  40.864  1.00  0.00    -0.351 OA
BRANCH  28  29
HETATM   29  C   UNL     1      27.927  50.512  39.494  1.00  0.00     0.175 C 
BRANCH  29  30
HETATM   30  C   UNL     1      27.990  51.774  38.637  1.00  0.00     0.022 C 
HETATM   31  C   UNL     1      29.356  51.951  37.996  1.00  0.00     0.007 C 
ENDBRANCH  29  30
ENDBRANCH  28  29
ENDBRANCH  25  28
ENDBRANCH  21  22
ENDBRANCH   1  20
TORSDOF 9
ENDMDL
