MODEL 1
REMARK VINA RESULT:      -8.4      0.000      0.000
REMARK  6 active torsions:
REMARK  status: ('A' for Active; 'I' for Inactive)
REMARK    1  A    between atoms: O_2  and  C_3 
REMARK    2  A    between atoms: C_3  and  C_4 
REMARK    3  A    between atoms: C_4  and  N_5 
REMARK       I    between atoms: N_5  and  C_6 
REMARK    4  A    between atoms: C_6  and  C_7 
REMARK    5  A    between atoms: C_12  and  C_13 
REMARK    6  A    between atoms: C_22  and  C_23 
ROOT
HETATM    1  C   UNL     1      25.097  45.627  50.658  1.00  0.00     0.148 A 
HETATM    2  N   UNL     1      24.674  44.798  51.641  1.00  0.00    -0.165 NA
HETATM    3  N   UNL     1      25.816  44.304  52.150  1.00  0.00    -0.240 N 
HETATM    4  C   UNL     1      26.942  44.720  51.496  1.00  0.00     0.123 A 
HETATM    5  N   UNL     1      28.168  44.267  51.828  1.00  0.00    -0.366 N 
HETATM    6  C   UNL     1      28.395  43.367  52.952  1.00  0.00     0.118 C 
HETATM    7  C   UNL     1      27.125  42.551  53.264  1.00  0.00     0.066 C 
HETATM    8  C   UNL     1      25.815  43.362  53.250  1.00  0.00     0.221 C 
HETATM    9  C   UNL     1      26.514  45.600  50.538  1.00  0.00     0.088 A 
HETATM   10  H   UNL     1      29.005  44.642  51.383  1.00  0.00     0.161 HD
ENDROOT
BRANCH   1  11
HETATM   11  C   UNL     1      24.168  46.429  49.847  1.00  0.00     0.272 C 
HETATM   12  N   UNL     1      24.035  47.726  50.284  1.00  0.00    -0.354 N 
HETATM   13  H   UNL     1      24.691  48.017  51.007  1.00  0.00     0.162 HD
HETATM   14  O   UNL     1      23.579  45.976  48.870  1.00  0.00    -0.266 OA
BRANCH  12  15
HETATM   15  C   UNL     1      23.363  48.746  49.507  1.00  0.00     0.149 C 
BRANCH  15  16
HETATM   16  C   UNL     1      24.312  49.414  48.515  1.00  0.00     0.186 C 
BRANCH  16  17
HETATM   17  O   UNL     1      25.498  49.826  49.202  1.00  0.00    -0.394 OA
HETATM   18  C   UNL     1      26.669  49.472  48.477  1.00  0.00     0.201 C 
ENDBRANCH  16  17
ENDBRANCH  15  16
ENDBRANCH  12  15
ENDBRANCH   1  11
BRANCH   8  19
HETATM   19  C   UNL     1      25.525  44.073  54.552  1.00  0.00     0.409 C 
HETATM   20  F   UNL     1      26.207  43.536  55.590  1.00  0.00    -0.169 F 
HETATM   21  F   UNL     1      25.923  45.369  54.469  1.00  0.00    -0.169 F 
HETATM   22  F   UNL     1      24.222  44.084  54.887  1.00  0.00    -0.169 F 
ENDBRANCH   8  19
BRANCH   6  23
HETATM   23  C   UNL     1      29.023  44.070  54.146  1.00  0.00    -0.034 A 
HETATM   24  C   UNL     1      29.978  43.457  54.978  1.00  0.00     0.034 A 
HETATM   25  C   UNL     1      30.520  44.129  56.082  1.00  0.00     0.056 A 
HETATM   26 CL   UNL     1      31.693  43.294  57.036  1.00  0.00    -0.083 Cl
HETATM   27  C   UNL     1      30.102  45.428  56.378  1.00  0.00     0.055 A 
HETATM   28 CL   UNL     1      30.713  46.318  57.727  1.00  0.00    -0.083 Cl
HETATM   29  C   UNL     1      29.149  46.048  55.568  1.00  0.00     0.026 A 
HETATM   30  C   UNL     1      28.616  45.376  54.464  1.00  0.00     0.011 A 
ENDBRANCH   6  23
TORSDOF 6
ENDMDL
MODEL 2
REMARK VINA RESULT:      -8.0      8.290     12.455
REMARK  6 active torsions:
REMARK  status: ('A' for Active; 'I' for Inactive)
REMARK    1  A    between atoms: O_2  and  C_3 
REMARK    2  A    between atoms: C_3  and  C_4 
REMARK    3  A    between atoms: C_4  and  N_5 
REMARK       I    between atoms: N_5  and  C_6 
REMARK    4  A    between atoms: C_6  and  C_7 
REMARK    5  A    between atoms: C_12  and  C_13 
REMARK    6  A    between atoms: C_22  and  C_23 
ROOT
HETATM    1  C   UNL     1      21.759  50.003  49.261  1.00  0.00     0.148 A 
HETATM    2  N   UNL     1      20.639  49.424  49.753  1.00  0.00    -0.165 NA
HETATM    3  N   UNL     1      19.663  50.282  49.410  1.00  0.00    -0.240 N 
HETATM    4  C   UNL     1      20.111  51.413  48.786  1.00  0.00     0.123 A 
HETATM    5  N   UNL     1      19.276  52.413  48.437  1.00  0.00    -0.366 N 
HETATM    6  C   UNL     1      17.833  52.332  48.623  1.00  0.00     0.118 C 
HETATM    7  C   UNL     1      17.482  51.353  49.761  1.00  0.00     0.066 C 
HETATM    8  C   UNL     1      18.277  50.034  49.747  1.00  0.00     0.221 C 
HETATM    9  C   UNL     1      21.464  51.254  48.650  1.00  0.00     0.088 A 
HETATM   10  H   UNL     1      19.611  53.216  47.907  1.00  0.00     0.161 HD
ENDROOT
BRANCH   1  11
HETATM   11  C   UNL     1      23.086  49.377  49.370  1.00  0.00     0.272 C 
HETATM   12  N   UNL     1      23.039  48.041  49.693  1.00  0.00    -0.354 N 
HETATM   13  H   UNL     1      22.115  47.615  49.672  1.00  0.00     0.162 HD
HETATM   14  O   UNL     1      24.128  49.996  49.179  1.00  0.00    -0.266 OA
BRANCH  12  15
HETATM   15  C   UNL     1      24.201  47.180  49.624  1.00  0.00     0.149 C 
BRANCH  15  16
HETATM   16  C   UNL     1      24.864  47.020  50.989  1.00  0.00     0.186 C 
BRANCH  16  17
HETATM   17  O   UNL     1      26.093  47.754  51.006  1.00  0.00    -0.394 OA
HETATM   18  C   UNL     1      26.697  47.787  49.718  1.00  0.00     0.201 C 
ENDBRANCH  16  17
ENDBRANCH  15  16
ENDBRANCH  12  15
ENDBRANCH   1  11
BRANCH   8  19
HETATM   19  C   UNL     1      17.693  48.981  48.832  1.00  0.00     0.409 C 
HETATM   20  F   UNL     1      18.320  48.939  47.635  1.00  0.00    -0.169 F 
HETATM   21  F   UNL     1      17.851  47.750  49.385  1.00  0.00    -0.169 F 
HETATM   22  F   UNL     1      16.377  49.137  48.594  1.00  0.00    -0.169 F 
ENDBRANCH   8  19
BRANCH   6  23
HETATM   23  C   UNL     1      17.087  52.101  47.318  1.00  0.00    -0.034 A 
HETATM   24  C   UNL     1      17.742  51.857  46.096  1.00  0.00     0.034 A 
HETATM   25  C   UNL     1      17.022  51.670  44.909  1.00  0.00     0.056 A 
HETATM   26 CL   UNL     1      17.918  51.367  43.464  1.00  0.00    -0.083 Cl
HETATM   27  C   UNL     1      15.627  51.736  44.925  1.00  0.00     0.055 A 
HETATM   28 CL   UNL     1      14.669  51.529  43.502  1.00  0.00    -0.083 Cl
HETATM   29  C   UNL     1      14.961  51.986  46.126  1.00  0.00     0.026 A 
HETATM   30  C   UNL     1      15.684  52.166  47.310  1.00  0.00     0.011 A 
ENDBRANCH   6  23
TORSDOF 6
ENDMDL
MODEL 3
REMARK VINA RESULT:      -7.9      7.622     11.687
REMARK  6 active torsions:
REMARK  status: ('A' for Active; 'I' for Inactive)
REMARK    1  A    between atoms: O_2  and  C_3 
REMARK    2  A    between atoms: C_3  and  C_4 
REMARK    3  A    between atoms: C_4  and  N_5 
REMARK       I    between atoms: N_5  and  C_6 
REMARK    4  A    between atoms: C_6  and  C_7 
REMARK    5  A    between atoms: C_12  and  C_13 
REMARK    6  A    between atoms: C_22  and  C_23 
ROOT
HETATM    1  C   UNL     1      22.928  50.007  48.651  1.00  0.00     0.148 A 
HETATM    2  N   UNL     1      22.096  49.098  49.212  1.00  0.00    -0.165 NA
HETATM    3  N   UNL     1      20.918  49.742  49.271  1.00  0.00    -0.240 N 
HETATM    4  C   UNL     1      20.971  51.039  48.843  1.00  0.00     0.123 A 
HETATM    5  N   UNL     1      19.898  51.854  48.901  1.00  0.00    -0.366 N 
HETATM    6  C   UNL     1      18.588  51.396  49.346  1.00  0.00     0.118 C 
HETATM    7  C   UNL     1      18.723  50.178  50.281  1.00  0.00     0.066 C 
HETATM    8  C   UNL     1      19.731  49.112  49.812  1.00  0.00     0.221 C 
HETATM    9  C   UNL     1      22.254  51.237  48.409  1.00  0.00     0.088 A 
HETATM   10  H   UNL     1      19.931  52.795  48.509  1.00  0.00     0.161 HD
ENDROOT
BRANCH   1  11
HETATM   11  C   UNL     1      24.337  49.710  48.351  1.00  0.00     0.272 C 
HETATM   12  N   UNL     1      24.971  48.997  49.341  1.00  0.00    -0.354 N 
HETATM   13  H   UNL     1      24.369  48.636  50.079  1.00  0.00     0.162 HD
HETATM   14  O   UNL     1      24.881  50.063  47.310  1.00  0.00    -0.266 OA
BRANCH  12  15
HETATM   15  C   UNL     1      26.277  48.399  49.157  1.00  0.00     0.149 C 
BRANCH  15  16
HETATM   16  C   UNL     1      26.516  47.257  50.142  1.00  0.00     0.186 C 
BRANCH  16  17
HETATM   17  O   UNL     1      26.022  47.636  51.431  1.00  0.00    -0.394 OA
HETATM   18  C   UNL     1      25.428  46.533  52.105  1.00  0.00     0.201 C 
ENDBRANCH  16  17
ENDBRANCH  15  16
ENDBRANCH  12  15
ENDBRANCH   1  11
BRANCH   8  19
HETATM   19  C   UNL     1      19.159  48.127  48.818  1.00  0.00     0.409 C 
HETATM   20  F   UNL     1      19.725  46.904  48.928  1.00  0.00    -0.169 F 
HETATM   21  F   UNL     1      17.832  47.952  49.053  1.00  0.00    -0.169 F 
HETATM   22  F   UNL     1      19.281  48.516  47.535  1.00  0.00    -0.169 F 
ENDBRANCH   8  19
BRANCH   6  23
HETATM   23  C   UNL     1      17.607  51.226  48.197  1.00  0.00    -0.034 A 
HETATM   24  C   UNL     1      17.894  51.629  46.879  1.00  0.00     0.034 A 
HETATM   25  C   UNL     1      16.957  51.475  45.850  1.00  0.00     0.056 A 
HETATM   26 CL   UNL     1      17.411  51.992  44.265  1.00  0.00    -0.083 Cl
HETATM   27  C   UNL     1      15.705  50.923  46.127  1.00  0.00     0.055 A 
HETATM   28 CL   UNL     1      14.492  50.711  44.916  1.00  0.00    -0.083 Cl
HETATM   29  C   UNL     1      15.399  50.526  47.430  1.00  0.00     0.026 A 
HETATM   30  C   UNL     1      16.340  50.675  48.454  1.00  0.00     0.011 A 
ENDBRANCH   6  23
TORSDOF 6
ENDMDL
MODEL 4
REMARK VINA RESULT:      -7.9      4.840      6.346
REMARK  6 active torsions:
REMARK  status: ('A' for Active; 'I' for Inactive)
REMARK    1  A    between atoms: O_2  and  C_3 
REMARK    2  A    between atoms: C_3  and  C_4 
REMARK    3  A    between atoms: C_4  and  N_5 
REMARK       I    between atoms: N_5  and  C_6 
REMARK    4  A    between atoms: C_6  and  C_7 
REMARK    5  A    between atoms: C_12  and  C_13 
REMARK    6  A    between atoms: C_22  and  C_23 
ROOT
HETATM    1  C   UNL     1      27.494  41.338  48.736  1.00  0.00     0.148 A 
HETATM    2  N   UNL     1      26.909  42.558  48.725  1.00  0.00    -0.165 NA
HETATM    3  N   UNL     1      26.624  42.783  50.019  1.00  0.00    -0.240 N 
HETATM    4  C   UNL     1      26.932  41.739  50.846  1.00  0.00     0.123 A 
HETATM    5  N   UNL     1      26.648  41.766  52.164  1.00  0.00    -0.366 N 
HETATM    6  C   UNL     1      26.068  42.931  52.819  1.00  0.00     0.118 C 
HETATM    7  C   UNL     1      25.280  43.790  51.810  1.00  0.00     0.066 C 
HETATM    8  C   UNL     1      25.983  44.006  50.457  1.00  0.00     0.221 C 
HETATM    9  C   UNL     1      27.522  40.794  50.050  1.00  0.00     0.088 A 
HETATM   10  H   UNL     1      26.951  41.013  52.782  1.00  0.00     0.161 HD
ENDROOT
BRANCH   1  11
HETATM   11  C   UNL     1      28.015  40.700  47.517  1.00  0.00     0.272 C 
HETATM   12  N   UNL     1      27.870  39.333  47.506  1.00  0.00    -0.354 N 
HETATM   13  H   UNL     1      27.299  38.944  48.254  1.00  0.00     0.162 HD
HETATM   14  O   UNL     1      28.521  41.339  46.599  1.00  0.00    -0.266 OA
BRANCH  12  15
HETATM   15  C   UNL     1      28.097  38.534  46.320  1.00  0.00     0.149 C 
BRANCH  15  16
HETATM   16  C   UNL     1      28.697  37.173  46.666  1.00  0.00     0.186 C 
BRANCH  16  17
HETATM   17  O   UNL     1      29.596  36.777  45.624  1.00  0.00    -0.394 OA
HETATM   18  C   UNL     1      29.267  37.398  44.388  1.00  0.00     0.201 C 
ENDBRANCH  16  17
ENDBRANCH  15  16
ENDBRANCH  12  15
ENDBRANCH   1  11
BRANCH   8  19
HETATM   19  C   UNL     1      26.975  45.148  50.462  1.00  0.00     0.409 C 
HETATM   20  F   UNL     1      26.631  46.118  51.339  1.00  0.00    -0.169 F 
HETATM   21  F   UNL     1      28.195  44.698  50.854  1.00  0.00    -0.169 F 
HETATM   22  F   UNL     1      27.140  45.730  49.259  1.00  0.00    -0.169 F 
ENDBRANCH   8  19
BRANCH   6  23
HETATM   23  C   UNL     1      27.078  43.690  53.665  1.00  0.00    -0.034 A 
HETATM   24  C   UNL     1      28.368  43.197  53.942  1.00  0.00     0.034 A 
HETATM   25  C   UNL     1      29.265  43.915  54.743  1.00  0.00     0.056 A 
HETATM   26 CL   UNL     1      30.827  43.229  55.014  1.00  0.00    -0.083 Cl
HETATM   27  C   UNL     1      28.879  45.139  55.293  1.00  0.00     0.055 A 
HETATM   28 CL   UNL     1      29.923  46.077  56.300  1.00  0.00    -0.083 Cl
HETATM   29  C   UNL     1      27.601  45.639  55.036  1.00  0.00     0.026 A 
HETATM   30  C   UNL     1      26.710  44.922  54.231  1.00  0.00     0.011 A 
ENDBRANCH   6  23
TORSDOF 6
ENDMDL
MODEL 5
REMARK VINA RESULT:      -7.9     14.091     15.872
REMARK  6 active torsions:
REMARK  status: ('A' for Active; 'I' for Inactive)
REMARK    1  A    between atoms: O_2  and  C_3 
REMARK    2  A    between atoms: C_3  and  C_4 
REMARK    3  A    between atoms: C_4  and  N_5 
REMARK       I    between atoms: N_5  and  C_6 
REMARK    4  A    between atoms: C_6  and  C_7 
REMARK    5  A    between atoms: C_12  and  C_13 
REMARK    6  A    between atoms: C_22  and  C_23 
ROOT
HETATM    1  C   UNL     1      33.259  52.393  39.506  1.00  0.00     0.148 A 
HETATM    2  N   UNL     1      32.313  52.974  40.279  1.00  0.00    -0.165 NA
HETATM    3  N   UNL     1      31.159  52.512  39.766  1.00  0.00    -0.240 N 
HETATM    4  C   UNL     1      31.318  51.723  38.662  1.00  0.00     0.123 A 
HETATM    5  N   UNL     1      30.264  51.233  37.977  1.00  0.00    -0.366 N 
HETATM    6  C   UNL     1      28.886  51.438  38.405  1.00  0.00     0.118 C 
HETATM    7  C   UNL     1      28.764  52.713  39.263  1.00  0.00     0.066 C 
HETATM    8  C   UNL     1      29.874  52.892  40.316  1.00  0.00     0.221 C 
HETATM    9  C   UNL     1      32.670  51.603  38.479  1.00  0.00     0.088 A 
HETATM   10  H   UNL     1      30.397  50.585  37.201  1.00  0.00     0.161 HD
ENDROOT
BRANCH   1  11
HETATM   11  C   UNL     1      34.699  52.586  39.739  1.00  0.00     0.272 C 
HETATM   12  N   UNL     1      35.122  52.136  40.968  1.00  0.00    -0.354 N 
HETATM   13  H   UNL     1      34.439  51.599  41.500  1.00  0.00     0.162 HD
HETATM   14  O   UNL     1      35.444  53.093  38.907  1.00  0.00    -0.266 OA
BRANCH  12  15
HETATM   15  C   UNL     1      36.523  52.012  41.314  1.00  0.00     0.149 C 
BRANCH  15  16
HETATM   16  C   UNL     1      36.997  53.189  42.164  1.00  0.00     0.186 C 
BRANCH  16  17
HETATM   17  O   UNL     1      36.263  53.208  43.393  1.00  0.00    -0.394 OA
HETATM   18  C   UNL     1      36.975  52.553  44.435  1.00  0.00     0.201 C 
ENDBRANCH  16  17
ENDBRANCH  15  16
ENDBRANCH  12  15
ENDBRANCH   1  11
BRANCH   8  19
HETATM   19  C   UNL     1      29.614  52.150  41.608  1.00  0.00     0.409 C 
HETATM   20  F   UNL     1      30.082  52.821  42.685  1.00  0.00    -0.169 F 
HETATM   21  F   UNL     1      28.276  52.013  41.799  1.00  0.00    -0.169 F 
HETATM   22  F   UNL     1      30.143  50.913  41.640  1.00  0.00    -0.169 F 
ENDBRANCH   8  19
BRANCH   6  23
HETATM   23  C   UNL     1      28.270  50.188  39.012  1.00  0.00    -0.034 A 
HETATM   24  C   UNL     1      28.980  48.983  39.166  1.00  0.00     0.034 A 
HETATM   25  C   UNL     1      28.372  47.844  39.710  1.00  0.00     0.056 A 
HETATM   26 CL   UNL     1      29.332  46.416  39.866  1.00  0.00    -0.083 Cl
HETATM   27  C   UNL     1      27.032  47.891  40.100  1.00  0.00     0.055 A 
HETATM   28 CL   UNL     1      26.208  46.527  40.767  1.00  0.00    -0.083 Cl
HETATM   29  C   UNL     1      26.309  49.076  39.946  1.00  0.00     0.026 A 
HETATM   30  C   UNL     1      26.922  50.212  39.408  1.00  0.00     0.011 A 
ENDBRANCH   6  23
TORSDOF 6
ENDMDL
MODEL 6
REMARK VINA RESULT:      -7.8     13.612     15.595
REMARK  6 active torsions:
REMARK  status: ('A' for Active; 'I' for Inactive)
REMARK    1  A    between atoms: O_2  and  C_3 
REMARK    2  A    between atoms: C_3  and  C_4 
REMARK    3  A    between atoms: C_4  and  N_5 
REMARK       I    between atoms: N_5  and  C_6 
REMARK    4  A    between atoms: C_6  and  C_7 
REMARK    5  A    between atoms: C_12  and  C_13 
REMARK    6  A    between atoms: C_22  and  C_23 
ROOT
HETATM    1  C   UNL     1      33.172  51.350  42.350  1.00  0.00     0.148 A 
HETATM    2  N   UNL     1      32.566  52.260  41.553  1.00  0.00    -0.165 NA
HETATM    3  N   UNL     1      31.951  51.508  40.624  1.00  0.00    -0.240 N 
HETATM    4  C   UNL     1      32.192  50.168  40.746  1.00  0.00     0.123 A 
HETATM    5  N   UNL     1      31.712  49.273  39.857  1.00  0.00    -0.366 N 
HETATM    6  C   UNL     1      30.841  49.654  38.753  1.00  0.00     0.118 C 
HETATM    7  C   UNL     1      31.058  51.131  38.368  1.00  0.00     0.066 C 
HETATM    8  C   UNL     1      31.166  52.100  39.561  1.00  0.00     0.221 C 
HETATM    9  C   UNL     1      32.960  50.027  41.870  1.00  0.00     0.088 A 
HETATM   10  H   UNL     1      31.837  48.272  40.001  1.00  0.00     0.161 HD
ENDROOT
BRANCH   1  11
HETATM   11  C   UNL     1      33.940  51.732  43.545  1.00  0.00     0.272 C 
HETATM   12  N   UNL     1      35.274  51.953  43.294  1.00  0.00    -0.354 N 
HETATM   13  H   UNL     1      35.540  51.973  42.312  1.00  0.00     0.162 HD
HETATM   14  O   UNL     1      33.426  51.849  44.653  1.00  0.00    -0.266 OA
BRANCH  12  15
HETATM   15  C   UNL     1      36.160  52.559  44.266  1.00  0.00     0.149 C 
BRANCH  15  16
HETATM   16  C   UNL     1      37.186  53.471  43.598  1.00  0.00     0.186 C 
BRANCH  16  17
HETATM   17  O   UNL     1      36.721  53.826  42.292  1.00  0.00    -0.394 OA
HETATM   18  C   UNL     1      37.447  54.929  41.763  1.00  0.00     0.201 C 
ENDBRANCH  16  17
ENDBRANCH  15  16
ENDBRANCH  12  15
ENDBRANCH   1  11
BRANCH   8  19
HETATM   19  C   UNL     1      29.828  52.566  40.090  1.00  0.00     0.409 C 
HETATM   20  F   UNL     1      29.914  53.763  40.713  1.00  0.00    -0.169 F 
HETATM   21  F   UNL     1      28.959  52.736  39.060  1.00  0.00    -0.169 F 
HETATM   22  F   UNL     1      29.253  51.704  40.949  1.00  0.00    -0.169 F 
ENDBRANCH   8  19
BRANCH   6  23
HETATM   23  C   UNL     1      29.393  49.251  38.985  1.00  0.00    -0.034 A 
HETATM   24  C   UNL     1      29.015  48.258  39.909  1.00  0.00     0.034 A 
HETATM   25  C   UNL     1      27.672  47.898  40.081  1.00  0.00     0.056 A 
HETATM   26 CL   UNL     1      27.310  46.676  41.246  1.00  0.00    -0.083 Cl
HETATM   27  C   UNL     1      26.682  48.522  39.318  1.00  0.00     0.055 A 
HETATM   28 CL   UNL     1      25.007  48.126  39.463  1.00  0.00    -0.083 Cl
HETATM   29  C   UNL     1      27.040  49.503  38.391  1.00  0.00     0.026 A 
HETATM   30  C   UNL     1      28.382  49.863  38.227  1.00  0.00     0.011 A 
ENDBRANCH   6  23
TORSDOF 6
ENDMDL
MODEL 7
REMARK VINA RESULT:      -7.5     16.463     18.829
REMARK  6 active torsions:
REMARK  status: ('A' for Active; 'I' for Inactive)
REMARK    1  A    between atoms: O_2  and  C_3 
REMARK    2  A    between atoms: C_3  and  C_4 
REMARK    3  A    between atoms: C_4  and  N_5 
REMARK       I    between atoms: N_5  and  C_6 
REMARK    4  A    between atoms: C_6  and  C_7 
REMARK    5  A    between atoms: C_12  and  C_13 
REMARK    6  A    between atoms: C_22  and  C_23 
ROOT
HETATM    1  C   UNL     1      39.883  40.069  64.750  1.00  0.00     0.148 A 
HETATM    2  N   UNL     1      40.623  41.136  64.369  1.00  0.00    -0.165 NA
HETATM    3  N   UNL     1      39.705  42.023  63.946  1.00  0.00    -0.240 N 
HETATM    4  C   UNL     1      38.423  41.550  63.971  1.00  0.00     0.123 A 
HETATM    5  N   UNL     1      37.385  42.280  63.514  1.00  0.00    -0.366 N 
HETATM    6  C   UNL     1      37.537  43.648  63.037  1.00  0.00     0.118 C 
HETATM    7  C   UNL     1      38.974  43.897  62.539  1.00  0.00     0.066 C 
HETATM    8  C   UNL     1      40.081  43.330  63.448  1.00  0.00     0.221 C 
HETATM    9  C   UNL     1      38.498  40.294  64.511  1.00  0.00     0.088 A 
HETATM   10  H   UNL     1      36.426  41.945  63.607  1.00  0.00     0.161 HD
ENDROOT
BRANCH   1  11
HETATM   11  C   UNL     1      40.482  38.858  65.330  1.00  0.00     0.272 C 
HETATM   12  N   UNL     1      41.218  38.123  64.430  1.00  0.00    -0.354 N 
HETATM   13  H   UNL     1      41.383  38.568  63.529  1.00  0.00     0.162 HD
HETATM   14  O   UNL     1      40.341  38.547  66.509  1.00  0.00    -0.266 OA
BRANCH  12  15
HETATM   15  C   UNL     1      42.079  37.031  64.834  1.00  0.00     0.149 C 
BRANCH  15  16
HETATM   16  C   UNL     1      43.530  37.484  64.976  1.00  0.00     0.186 C 
BRANCH  16  17
HETATM   17  O   UNL     1      43.662  38.812  64.459  1.00  0.00    -0.394 OA
HETATM   18  C   UNL     1      44.337  39.664  65.377  1.00  0.00     0.201 C 
ENDBRANCH  16  17
ENDBRANCH  15  16
ENDBRANCH  12  15
ENDBRANCH   1  11
BRANCH   8  19
HETATM   19  C   UNL     1      40.454  44.242  64.595  1.00  0.00     0.409 C 
HETATM   20  F   UNL     1      41.747  44.095  64.964  1.00  0.00    -0.169 F 
HETATM   21  F   UNL     1      40.315  45.540  64.216  1.00  0.00    -0.169 F 
HETATM   22  F   UNL     1      39.698  44.072  65.695  1.00  0.00    -0.169 F 
ENDBRANCH   8  19
BRANCH   6  23
HETATM   23  C   UNL     1      37.006  44.675  64.026  1.00  0.00    -0.034 A 
HETATM   24  C   UNL     1      37.189  46.060  63.861  1.00  0.00     0.034 A 
HETATM   25  C   UNL     1      36.704  46.976  64.805  1.00  0.00     0.056 A 
HETATM   26 CL   UNL     1      36.971  48.656  64.507  1.00  0.00    -0.083 Cl
HETATM   27  C   UNL     1      36.034  46.514  65.940  1.00  0.00     0.055 A 
HETATM   28 CL   UNL     1      35.418  47.577  67.154  1.00  0.00    -0.083 Cl
HETATM   29  C   UNL     1      35.852  45.142  66.123  1.00  0.00     0.026 A 
HETATM   30  C   UNL     1      36.332  44.232  65.176  1.00  0.00     0.011 A 
ENDBRANCH   6  23
TORSDOF 6
ENDMDL
MODEL 8
REMARK VINA RESULT:      -7.5     13.148     14.211
REMARK  6 active torsions:
REMARK  status: ('A' for Active; 'I' for Inactive)
REMARK    1  A    between atoms: O_2  and  C_3 
REMARK    2  A    between atoms: C_3  and  C_4 
REMARK    3  A    between atoms: C_4  and  N_5 
REMARK       I    between atoms: N_5  and  C_6 
REMARK    4  A    between atoms: C_6  and  C_7 
REMARK    5  A    between atoms: C_12  and  C_13 
REMARK    6  A    between atoms: C_22  and  C_23 
ROOT
HETATM    1  C   UNL     1      26.912  49.470  38.646  1.00  0.00     0.148 A 
HETATM    2  N   UNL     1      27.969  48.629  38.575  1.00  0.00    -0.165 NA
HETATM    3  N   UNL     1      29.027  49.432  38.783  1.00  0.00    -0.240 N 
HETATM    4  C   UNL     1      28.704  50.754  38.911  1.00  0.00     0.123 A 
HETATM    5  N   UNL     1      29.647  51.708  39.053  1.00  0.00    -0.366 N 
HETATM    6  C   UNL     1      31.067  51.399  39.159  1.00  0.00     0.118 C 
HETATM    7  C   UNL     1      31.385  50.049  38.485  1.00  0.00     0.066 C 
HETATM    8  C   UNL     1      30.382  48.921  38.793  1.00  0.00     0.221 C 
HETATM    9  C   UNL     1      27.337  50.813  38.853  1.00  0.00     0.088 A 
HETATM   10  H   UNL     1      29.389  52.680  39.222  1.00  0.00     0.161 HD
ENDROOT
BRANCH   1  11
HETATM   11  C   UNL     1      25.522  49.006  38.519  1.00  0.00     0.272 C 
HETATM   12  N   UNL     1      24.701  49.443  39.532  1.00  0.00    -0.354 N 
HETATM   13  H   UNL     1      25.102  50.142  40.154  1.00  0.00     0.162 HD
HETATM   14  O   UNL     1      25.141  48.303  37.588  1.00  0.00    -0.266 OA
BRANCH  12  15
HETATM   15  C   UNL     1      23.260  49.303  39.483  1.00  0.00     0.149 C 
BRANCH  15  16
HETATM   16  C   UNL     1      22.622  50.365  38.591  1.00  0.00     0.186 C 
BRANCH  16  17
HETATM   17  O   UNL     1      21.994  51.355  39.412  1.00  0.00    -0.394 OA
HETATM   18  C   UNL     1      21.460  50.783  40.600  1.00  0.00     0.201 C 
ENDBRANCH  16  17
ENDBRANCH  15  16
ENDBRANCH  12  15
ENDBRANCH   1  11
BRANCH   8  19
HETATM   19  C   UNL     1      30.661  48.196  40.090  1.00  0.00     0.409 C 
HETATM   20  F   UNL     1      31.973  48.224  40.419  1.00  0.00    -0.169 F 
HETATM   21  F   UNL     1      30.002  48.805  41.110  1.00  0.00    -0.169 F 
HETATM   22  F   UNL     1      30.273  46.907  40.087  1.00  0.00    -0.169 F 
ENDBRANCH   8  19
BRANCH   6  23
HETATM   23  C   UNL     1      31.595  51.556  40.576  1.00  0.00    -0.034 A 
HETATM   24  C   UNL     1      32.913  51.224  40.943  1.00  0.00     0.034 A 
HETATM   25  C   UNL     1      33.357  51.362  42.264  1.00  0.00     0.056 A 
HETATM   26 CL   UNL     1      34.996  50.937  42.609  1.00  0.00    -0.083 Cl
HETATM   27  C   UNL     1      32.482  51.827  43.247  1.00  0.00     0.055 A 
HETATM   28 CL   UNL     1      32.951  52.014  44.899  1.00  0.00    -0.083 Cl
HETATM   29  C   UNL     1      31.168  52.153  42.903  1.00  0.00     0.026 A 
HETATM   30  C   UNL     1      30.730  52.020  41.581  1.00  0.00     0.011 A 
ENDBRANCH   6  23
TORSDOF 6
ENDMDL
MODEL 9
REMARK VINA RESULT:      -7.5     14.547     16.472
REMARK  6 active torsions:
REMARK  status: ('A' for Active; 'I' for Inactive)
REMARK    1  A    between atoms: O_2  and  C_3 
REMARK    2  A    between atoms: C_3  and  C_4 
REMARK    3  A    between atoms: C_4  and  N_5 
REMARK       I    between atoms: N_5  and  C_6 
REMARK    4  A    between atoms: C_6  and  C_7 
REMARK    5  A    between atoms: C_12  and  C_13 
REMARK    6  A    between atoms: C_22  and  C_23 
ROOT
HETATM    1  C   UNL     1      33.277  51.971  40.183  1.00  0.00     0.148 A 
HETATM    2  N   UNL     1      32.268  52.635  40.793  1.00  0.00    -0.165 NA
HETATM    3  N   UNL     1      31.214  52.415  39.988  1.00  0.00    -0.240 N 
HETATM    4  C   UNL     1      31.514  51.705  38.860  1.00  0.00     0.123 A 
HETATM    5  N   UNL     1      30.592  51.454  37.908  1.00  0.00    -0.366 N 
HETATM    6  C   UNL     1      29.196  51.850  38.044  1.00  0.00     0.118 C 
HETATM    7  C   UNL     1      29.059  53.052  38.999  1.00  0.00     0.066 C 
HETATM    8  C   UNL     1      29.903  52.957  40.283  1.00  0.00     0.221 C 
HETATM    9  C   UNL     1      32.840  51.378  38.966  1.00  0.00     0.088 A 
HETATM   10  H   UNL     1      30.811  50.860  37.108  1.00  0.00     0.161 HD
ENDROOT
BRANCH   1  11
HETATM   11  C   UNL     1      34.633  51.903  40.749  1.00  0.00     0.272 C 
HETATM   12  N   UNL     1      35.468  52.899  40.298  1.00  0.00    -0.354 N 
HETATM   13  H   UNL     1      35.021  53.637  39.757  1.00  0.00     0.162 HD
HETATM   14  O   UNL     1      34.974  51.040  41.552  1.00  0.00    -0.266 OA
BRANCH  12  15
HETATM   15  C   UNL     1      36.762  53.161  40.893  1.00  0.00     0.149 C 
BRANCH  15  16
HETATM   16  C   UNL     1      37.299  54.532  40.488  1.00  0.00     0.186 C 
BRANCH  16  17
HETATM   17  O   UNL     1      36.274  55.514  40.678  1.00  0.00    -0.394 OA
HETATM   18  C   UNL     1      36.226  56.431  39.592  1.00  0.00     0.201 C 
ENDBRANCH  16  17
ENDBRANCH  15  16
ENDBRANCH  12  15
ENDBRANCH   1  11
BRANCH   8  19
HETATM   19  C   UNL     1      29.243  52.164  41.389  1.00  0.00     0.409 C 
HETATM   20  F   UNL     1      27.898  52.121  41.254  1.00  0.00    -0.169 F 
HETATM   21  F   UNL     1      29.668  50.874  41.349  1.00  0.00    -0.169 F 
HETATM   22  F   UNL     1      29.510  52.626  42.624  1.00  0.00    -0.169 F 
ENDBRANCH   8  19
BRANCH   6  23
HETATM   23  C   UNL     1      28.282  50.673  38.347  1.00  0.00    -0.034 A 
HETATM   24  C   UNL     1      26.878  50.765  38.309  1.00  0.00     0.034 A 
HETATM   25  C   UNL     1      26.068  49.664  38.615  1.00  0.00     0.056 A 
HETATM   26 CL   UNL     1      24.356  49.877  38.529  1.00  0.00    -0.083 Cl
HETATM   27  C   UNL     1      26.654  48.449  38.978  1.00  0.00     0.055 A 
HETATM   28 CL   UNL     1      25.724  47.051  39.381  1.00  0.00    -0.083 Cl
HETATM   29  C   UNL     1      28.045  48.343  39.030  1.00  0.00     0.026 A 
HETATM   30  C   UNL     1      28.850  49.443  38.717  1.00  0.00     0.011 A 
ENDBRANCH   6  23
TORSDOF 6
ENDMDL
MODEL 10
REMARK VINA RESULT:      -7.4     13.409     14.654
REMARK  6 active torsions:
REMARK  status: ('A' for Active; 'I' for Inactive)
REMARK    1  A    between atoms: O_2  and  C_3 
REMARK    2  A    between atoms: C_3  and  C_4 
REMARK    3  A    between atoms: C_4  and  N_5 
REMARK       I    between atoms: N_5  and  C_6 
REMARK    4  A    between atoms: C_6  and  C_7 
REMARK    5  A    between atoms: C_12  and  C_13 
REMARK    6  A    between atoms: C_22  and  C_23 
ROOT
HETATM    1  C   UNL     1      29.369  48.325  39.446  1.00  0.00     0.148 A 
HETATM    2  N   UNL     1      29.433  49.674  39.353  1.00  0.00    -0.165 NA
HETATM    3  N   UNL     1      30.169  50.029  40.420  1.00  0.00    -0.240 N 
HETATM    4  C   UNL     1      30.518  48.983  41.228  1.00  0.00     0.123 A 
HETATM    5  N   UNL     1      31.196  49.167  42.380  1.00  0.00    -0.366 N 
HETATM    6  C   UNL     1      31.674  50.475  42.809  1.00  0.00     0.118 C 
HETATM    7  C   UNL     1      30.820  51.600  42.192  1.00  0.00     0.066 C 
HETATM    8  C   UNL     1      30.489  51.414  40.699  1.00  0.00     0.221 C 
HETATM    9  C   UNL     1      30.037  47.859  40.613  1.00  0.00     0.088 A 
HETATM   10  H   UNL     1      31.514  48.373  42.934  1.00  0.00     0.161 HD
ENDROOT
BRANCH   1  11
HETATM   11  C   UNL     1      28.683  47.496  38.443  1.00  0.00     0.272 C 
HETATM   12  N   UNL     1      29.428  46.422  38.016  1.00  0.00    -0.354 N 
HETATM   13  H   UNL     1      30.284  46.243  38.538  1.00  0.00     0.162 HD
HETATM   14  O   UNL     1      27.551  47.743  38.041  1.00  0.00    -0.266 OA
BRANCH  12  15
HETATM   15  C   UNL     1      28.868  45.352  37.216  1.00  0.00     0.149 C 
BRANCH  15  16
HETATM   16  C   UNL     1      29.616  44.039  37.431  1.00  0.00     0.186 C 
BRANCH  16  17
HETATM   17  O   UNL     1      29.616  43.720  38.826  1.00  0.00    -0.394 OA
HETATM   18  C   UNL     1      28.386  43.126  39.224  1.00  0.00     0.201 C 
ENDBRANCH  16  17
ENDBRANCH  15  16
ENDBRANCH  12  15
ENDBRANCH   1  11
BRANCH   8  19
HETATM   19  C   UNL     1      31.576  51.901  39.768  1.00  0.00     0.409 C 
HETATM   20  F   UNL     1      31.073  52.474  38.651  1.00  0.00    -0.169 F 
HETATM   21  F   UNL     1      32.316  52.860  40.385  1.00  0.00    -0.169 F 
HETATM   22  F   UNL     1      32.431  50.937  39.378  1.00  0.00    -0.169 F 
ENDBRANCH   8  19
BRANCH   6  23
HETATM   23  C   UNL     1      33.177  50.633  42.637  1.00  0.00    -0.034 A 
HETATM   24  C   UNL     1      33.931  51.591  43.339  1.00  0.00     0.034 A 
HETATM   25  C   UNL     1      35.312  51.721  43.138  1.00  0.00     0.056 A 
HETATM   26 CL   UNL     1      36.148  52.921  44.057  1.00  0.00    -0.083 Cl
HETATM   27  C   UNL     1      35.961  50.897  42.217  1.00  0.00     0.055 A 
HETATM   28 CL   UNL     1      37.656  51.004  41.904  1.00  0.00    -0.083 Cl
HETATM   29  C   UNL     1      35.226  49.946  41.505  1.00  0.00     0.026 A 
HETATM   30  C   UNL     1      33.849  49.816  41.713  1.00  0.00     0.011 A 
ENDBRANCH   6  23
TORSDOF 6
ENDMDL
