MODEL 1
REMARK VINA RESULT:      -8.3      0.000      0.000
REMARK  2 active torsions:
REMARK  status: ('A' for Active; 'I' for Inactive)
REMARK    1  A    between atoms: C_9  and  C_10 
REMARK       I    between atoms: C_10  and  N_11 
REMARK    2  A    between atoms: N_11  and  C_12 
ROOT
HETATM    1  C   UNL     1      26.214  46.986  53.792  1.00  0.00     0.276 C 
HETATM    2  N   UNL     1      26.234  46.163  52.687  1.00  0.00    -0.317 N 
HETATM    3  O   UNL     1      25.443  47.923  53.972  1.00  0.00    -0.266 OA
HETATM    4  H   UNL     1      26.943  45.425  52.712  1.00  0.00     0.169 HD
ENDROOT
BRANCH   1   5
HETATM    5  C   UNL     1      27.243  46.625  54.781  1.00  0.00     0.147 A 
HETATM    6  N   UNL     1      27.396  47.307  55.935  1.00  0.00    -0.169 NA
HETATM    7  N   UNL     1      28.411  46.672  56.554  1.00  0.00    -0.275 N 
HETATM    8  C   UNL     1      28.919  45.620  55.848  1.00  0.00     0.086 A 
HETATM    9  H   UNL     1      28.718  47.004  57.463  1.00  0.00     0.189 HD
HETATM   10  C   UNL     1      29.993  44.825  56.338  1.00  0.00     0.103 A 
HETATM   11  C   UNL     1      28.183  45.563  54.688  1.00  0.00     0.073 A 
HETATM   12  O   UNL     1      30.568  45.048  57.563  1.00  0.00    -0.320 OA
HETATM   13  C   UNL     1      30.631  43.751  55.739  1.00  0.00     0.041 A 
HETATM   14  C   UNL     1      31.550  44.128  57.733  1.00  0.00     0.142 A 
HETATM   15  C   UNL     1      31.631  43.305  56.637  1.00  0.00     0.027 A 
ENDBRANCH   1   5
BRANCH   2  16
HETATM   16  C   UNL     1      25.442  46.200  51.564  1.00  0.00     0.102 A 
HETATM   17  C   UNL     1      24.601  44.970  51.294  1.00  0.00     0.218 A 
HETATM   18  O   UNL     1      24.655  44.015  52.068  1.00  0.00    -0.284 OA
HETATM   19  C   UNL     1      23.726  44.974  50.072  1.00  0.00     0.078 A 
HETATM   20 BR   UNL     1      22.672  43.490  49.691  1.00  0.00    -0.045 Br
HETATM   21  C   UNL     1      23.752  46.073  49.303  1.00  0.00     0.111 A 
HETATM   22  N   UNL     1      24.526  47.169  49.580  1.00  0.00    -0.372 N 
HETATM   23  C   UNL     1      25.339  47.208  50.684  1.00  0.00     0.121 A 
HETATM   24  H   UNL     1      24.504  47.971  48.955  1.00  0.00     0.164 HD
ENDBRANCH   2  16
TORSDOF 2
ENDMDL
MODEL 2
REMARK VINA RESULT:      -8.1      5.566      6.304
REMARK  2 active torsions:
REMARK  status: ('A' for Active; 'I' for Inactive)
REMARK    1  A    between atoms: C_9  and  C_10 
REMARK       I    between atoms: C_10  and  N_11 
REMARK    2  A    between atoms: N_11  and  C_12 
ROOT
HETATM    1  C   UNL     1      27.516  41.090  51.177  1.00  0.00     0.276 C 
HETATM    2  N   UNL     1      28.588  40.613  50.453  1.00  0.00    -0.317 N 
HETATM    3  O   UNL     1      26.355  40.708  51.071  1.00  0.00    -0.266 OA
HETATM    4  H   UNL     1      29.487  41.044  50.680  1.00  0.00     0.169 HD
ENDROOT
BRANCH   1   5
HETATM    5  C   UNL     1      27.905  42.143  52.129  1.00  0.00     0.147 A 
HETATM    6  N   UNL     1      27.293  43.346  52.153  1.00  0.00    -0.169 NA
HETATM    7  N   UNL     1      27.917  44.006  53.148  1.00  0.00    -0.275 N 
HETATM    8  C   UNL     1      28.903  43.284  53.759  1.00  0.00     0.086 A 
HETATM    9  H   UNL     1      27.627  44.953  53.368  1.00  0.00     0.189 HD
HETATM   10  C   UNL     1      29.672  43.810  54.835  1.00  0.00     0.103 A 
HETATM   11  C   UNL     1      28.922  42.068  53.118  1.00  0.00     0.073 A 
HETATM   12  O   UNL     1      29.455  45.064  55.345  1.00  0.00    -0.320 OA
HETATM   13  C   UNL     1      30.712  43.222  55.537  1.00  0.00     0.041 A 
HETATM   14  C   UNL     1      30.341  45.260  56.352  1.00  0.00     0.142 A 
HETATM   15  C   UNL     1      31.140  44.155  56.511  1.00  0.00     0.027 A 
ENDBRANCH   1   5
BRANCH   2  16
HETATM   16  C   UNL     1      28.612  39.648  49.473  1.00  0.00     0.102 A 
HETATM   17  C   UNL     1      28.285  40.109  48.068  1.00  0.00     0.218 A 
HETATM   18  O   UNL     1      28.023  41.294  47.863  1.00  0.00    -0.284 OA
HETATM   19  C   UNL     1      28.298  39.081  46.972  1.00  0.00     0.078 A 
HETATM   20 BR   UNL     1      27.904  39.591  45.228  1.00  0.00    -0.045 Br
HETATM   21  C   UNL     1      28.599  37.820  47.319  1.00  0.00     0.111 A 
HETATM   22  N   UNL     1      28.890  37.440  48.602  1.00  0.00    -0.372 N 
HETATM   23  C   UNL     1      28.890  38.345  49.632  1.00  0.00     0.121 A 
HETATM   24  H   UNL     1      29.107  36.466  48.801  1.00  0.00     0.164 HD
ENDBRANCH   2  16
TORSDOF 2
ENDMDL
MODEL 3
REMARK VINA RESULT:      -8.1      1.949      2.490
REMARK  2 active torsions:
REMARK  status: ('A' for Active; 'I' for Inactive)
REMARK    1  A    between atoms: C_9  and  C_10 
REMARK       I    between atoms: C_10  and  N_11 
REMARK    2  A    between atoms: N_11  and  C_12 
ROOT
HETATM    1  C   UNL     1      26.705  44.651  52.305  1.00  0.00     0.276 C 
HETATM    2  N   UNL     1      25.792  45.663  52.102  1.00  0.00    -0.317 N 
HETATM    3  O   UNL     1      26.852  43.666  51.589  1.00  0.00    -0.266 OA
HETATM    4  H   UNL     1      25.817  46.412  52.799  1.00  0.00     0.169 HD
ENDROOT
BRANCH   1   5
HETATM    5  C   UNL     1      27.525  44.867  53.509  1.00  0.00     0.147 A 
HETATM    6  N   UNL     1      27.301  45.898  54.350  1.00  0.00    -0.169 NA
HETATM    7  N   UNL     1      28.234  45.740  55.309  1.00  0.00    -0.275 N 
HETATM    8  C   UNL     1      29.049  44.660  55.119  1.00  0.00     0.086 A 
HETATM    9  H   UNL     1      28.270  46.405  56.076  1.00  0.00     0.189 HD
HETATM   10  C   UNL     1      30.093  44.327  56.027  1.00  0.00     0.103 A 
HETATM   11  C   UNL     1      28.615  44.072  53.954  1.00  0.00     0.073 A 
HETATM   12  O   UNL     1      30.331  45.053  57.165  1.00  0.00    -0.320 OA
HETATM   13  C   UNL     1      31.010  43.291  55.963  1.00  0.00     0.041 A 
HETATM   14  C   UNL     1      31.379  44.482  57.809  1.00  0.00     0.142 A 
HETATM   15  C   UNL     1      31.836  43.393  57.109  1.00  0.00     0.027 A 
ENDBRANCH   1   5
BRANCH   2  16
HETATM   16  C   UNL     1      24.858  45.800  51.103  1.00  0.00     0.102 A 
HETATM   17  C   UNL     1      24.781  47.157  50.436  1.00  0.00     0.218 A 
HETATM   18  O   UNL     1      25.537  48.057  50.801  1.00  0.00    -0.284 OA
HETATM   19  C   UNL     1      23.768  47.345  49.342  1.00  0.00     0.078 A 
HETATM   20 BR   UNL     1      23.630  48.991  48.488  1.00  0.00    -0.045 Br
HETATM   21  C   UNL     1      22.999  46.290  49.032  1.00  0.00     0.111 A 
HETATM   22  N   UNL     1      23.097  45.075  49.657  1.00  0.00    -0.372 N 
HETATM   23  C   UNL     1      24.007  44.861  50.660  1.00  0.00     0.121 A 
HETATM   24  H   UNL     1      22.483  44.315  49.378  1.00  0.00     0.164 HD
ENDBRANCH   2  16
TORSDOF 2
ENDMDL
MODEL 4
REMARK VINA RESULT:      -8.0      4.677      9.440
REMARK  2 active torsions:
REMARK  status: ('A' for Active; 'I' for Inactive)
REMARK    1  A    between atoms: C_9  and  C_10 
REMARK       I    between atoms: C_10  and  N_11 
REMARK    2  A    between atoms: N_11  and  C_12 
ROOT
HETATM    1  C   UNL     1      25.099  48.611  49.108  1.00  0.00     0.276 C 
HETATM    2  N   UNL     1      24.721  47.463  49.771  1.00  0.00    -0.317 N 
HETATM    3  O   UNL     1      26.251  48.938  48.845  1.00  0.00    -0.266 OA
HETATM    4  H   UNL     1      23.712  47.350  49.896  1.00  0.00     0.169 HD
ENDROOT
BRANCH   1   5
HETATM    5  C   UNL     1      23.947  49.445  48.727  1.00  0.00     0.147 A 
HETATM    6  N   UNL     1      23.856  50.025  47.512  1.00  0.00    -0.169 NA
HETATM    7  N   UNL     1      22.677  50.677  47.553  1.00  0.00    -0.275 N 
HETATM    8  C   UNL     1      22.013  50.547  48.739  1.00  0.00     0.086 A 
HETATM    9  H   UNL     1      22.375  51.200  46.737  1.00  0.00     0.189 HD
HETATM   10  C   UNL     1      20.750  51.161  48.973  1.00  0.00     0.103 A 
HETATM   11  C   UNL     1      22.813  49.752  49.526  1.00  0.00     0.073 A 
HETATM   12  O   UNL     1      20.107  51.900  48.013  1.00  0.00    -0.320 OA
HETATM   13  C   UNL     1      19.967  51.145  50.115  1.00  0.00     0.041 A 
HETATM   14  C   UNL     1      18.939  52.340  48.542  1.00  0.00     0.142 A 
HETATM   15  C   UNL     1      18.804  51.903  49.837  1.00  0.00     0.027 A 
ENDBRANCH   1   5
BRANCH   2  16
HETATM   16  C   UNL     1      25.508  46.461  50.287  1.00  0.00     0.102 A 
HETATM   17  C   UNL     1      25.754  46.500  51.780  1.00  0.00     0.218 A 
HETATM   18  O   UNL     1      25.252  47.399  52.455  1.00  0.00    -0.284 OA
HETATM   19  C   UNL     1      26.614  45.422  52.378  1.00  0.00     0.078 A 
HETATM   20 BR   UNL     1      26.950  45.421  54.206  1.00  0.00    -0.045 Br
HETATM   21  C   UNL     1      27.106  44.496  51.540  1.00  0.00     0.111 A 
HETATM   22  N   UNL     1      26.861  44.492  50.193  1.00  0.00    -0.372 N 
HETATM   23  C   UNL     1      26.082  45.456  49.606  1.00  0.00     0.121 A 
HETATM   24  H   UNL     1      27.266  43.763  49.610  1.00  0.00     0.164 HD
ENDBRANCH   2  16
TORSDOF 2
ENDMDL
MODEL 5
REMARK VINA RESULT:      -7.9      3.418      7.972
REMARK  2 active torsions:
REMARK  status: ('A' for Active; 'I' for Inactive)
REMARK    1  A    between atoms: C_9  and  C_10 
REMARK       I    between atoms: C_10  and  N_11 
REMARK    2  A    between atoms: N_11  and  C_12 
ROOT
HETATM    1  C   UNL     1      26.481  44.332  53.640  1.00  0.00     0.276 C 
HETATM    2  N   UNL     1      27.769  44.821  53.613  1.00  0.00    -0.317 N 
HETATM    3  O   UNL     1      26.049  43.499  54.430  1.00  0.00    -0.266 OA
HETATM    4  H   UNL     1      27.949  45.519  52.887  1.00  0.00     0.169 HD
ENDROOT
BRANCH   1   5
HETATM    5  C   UNL     1      25.633  44.923  52.591  1.00  0.00     0.147 A 
HETATM    6  N   UNL     1      24.482  44.342  52.191  1.00  0.00    -0.169 NA
HETATM    7  N   UNL     1      24.009  45.179  51.247  1.00  0.00    -0.275 N 
HETATM    8  C   UNL     1      24.805  46.265  51.020  1.00  0.00     0.086 A 
HETATM    9  H   UNL     1      23.132  44.957  50.787  1.00  0.00     0.189 HD
HETATM   10  C   UNL     1      24.472  47.264  50.061  1.00  0.00     0.103 A 
HETATM   11  C   UNL     1      25.872  46.127  51.877  1.00  0.00     0.073 A 
HETATM   12  O   UNL     1      23.317  47.213  49.325  1.00  0.00    -0.320 OA
HETATM   13  C   UNL     1      25.177  48.399  49.700  1.00  0.00     0.041 A 
HETATM   14  C   UNL     1      23.294  48.299  48.515  1.00  0.00     0.142 A 
HETATM   15  C   UNL     1      24.419  49.064  48.706  1.00  0.00     0.027 A 
ENDBRANCH   1   5
BRANCH   2  16
HETATM   16  C   UNL     1      28.836  44.499  54.418  1.00  0.00     0.102 A 
HETATM   17  C   UNL     1      29.033  45.359  55.648  1.00  0.00     0.218 A 
HETATM   18  O   UNL     1      28.252  46.283  55.875  1.00  0.00    -0.284 OA
HETATM   19  C   UNL     1      30.191  45.039  56.550  1.00  0.00     0.078 A 
HETATM   20 BR   UNL     1      30.482  46.062  58.075  1.00  0.00    -0.045 Br
HETATM   21  C   UNL     1      30.974  44.007  56.198  1.00  0.00     0.111 A 
HETATM   22  N   UNL     1      30.764  43.249  55.077  1.00  0.00    -0.372 N 
HETATM   23  C   UNL     1      29.719  43.507  54.226  1.00  0.00     0.121 A 
HETATM   24  H   UNL     1      31.396  42.481  54.863  1.00  0.00     0.164 HD
ENDBRANCH   2  16
TORSDOF 2
ENDMDL
MODEL 6
REMARK VINA RESULT:      -7.5      6.139     10.902
REMARK  2 active torsions:
REMARK  status: ('A' for Active; 'I' for Inactive)
REMARK    1  A    between atoms: C_9  and  C_10 
REMARK       I    between atoms: C_10  and  N_11 
REMARK    2  A    between atoms: N_11  and  C_12 
ROOT
HETATM    1  C   UNL     1      21.700  47.828  48.207  1.00  0.00     0.276 C 
HETATM    2  N   UNL     1      22.516  47.952  49.310  1.00  0.00    -0.317 N 
HETATM    3  O   UNL     1      21.995  47.262  47.159  1.00  0.00    -0.266 OA
HETATM    4  H   UNL     1      22.099  48.451  50.100  1.00  0.00     0.169 HD
ENDROOT
BRANCH   1   5
HETATM    5  C   UNL     1      20.386  48.461  48.406  1.00  0.00     0.147 A 
HETATM    6  N   UNL     1      19.232  47.789  48.211  1.00  0.00    -0.169 NA
HETATM    7  N   UNL     1      18.277  48.695  48.501  1.00  0.00    -0.275 N 
HETATM    8  C   UNL     1      18.766  49.917  48.866  1.00  0.00     0.086 A 
HETATM    9  H   UNL     1      17.302  48.423  48.431  1.00  0.00     0.189 HD
HETATM   10  C   UNL     1      17.913  51.003  49.213  1.00  0.00     0.103 A 
HETATM   11  C   UNL     1      20.135  49.799  48.812  1.00  0.00     0.073 A 
HETATM   12  O   UNL     1      16.547  50.883  49.228  1.00  0.00    -0.320 OA
HETATM   13  C   UNL     1      18.247  52.296  49.577  1.00  0.00     0.041 A 
HETATM   14  C   UNL     1      16.031  52.081  49.598  1.00  0.00     0.142 A 
HETATM   15  C   UNL     1      17.037  52.988  49.824  1.00  0.00     0.027 A 
ENDBRANCH   1   5
BRANCH   2  16
HETATM   16  C   UNL     1      23.804  47.506  49.490  1.00  0.00     0.102 A 
HETATM   17  C   UNL     1      24.905  48.520  49.264  1.00  0.00     0.218 A 
HETATM   18  O   UNL     1      24.614  49.671  48.940  1.00  0.00    -0.284 OA
HETATM   19  C   UNL     1      26.326  48.065  49.448  1.00  0.00     0.078 A 
HETATM   20 BR   UNL     1      27.718  49.268  49.182  1.00  0.00    -0.045 Br
HETATM   21  C   UNL     1      26.518  46.785  49.802  1.00  0.00     0.111 A 
HETATM   22  N   UNL     1      25.496  45.895  50.000  1.00  0.00    -0.372 N 
HETATM   23  C   UNL     1      24.185  46.268  49.842  1.00  0.00     0.121 A 
HETATM   24  H   UNL     1      25.708  44.937  50.264  1.00  0.00     0.164 HD
ENDBRANCH   2  16
TORSDOF 2
ENDMDL
MODEL 7
REMARK VINA RESULT:      -7.4      3.345      4.439
REMARK  2 active torsions:
REMARK  status: ('A' for Active; 'I' for Inactive)
REMARK    1  A    between atoms: C_9  and  C_10 
REMARK       I    between atoms: C_10  and  N_11 
REMARK    2  A    between atoms: N_11  and  C_12 
ROOT
HETATM    1  C   UNL     1      24.065  44.386  50.687  1.00  0.00     0.276 C 
HETATM    2  N   UNL     1      24.376  45.557  50.030  1.00  0.00    -0.317 N 
HETATM    3  O   UNL     1      22.967  43.839  50.692  1.00  0.00    -0.266 OA
HETATM    4  H   UNL     1      25.347  45.862  50.130  1.00  0.00     0.169 HD
ENDROOT
BRANCH   1   5
HETATM    5  C   UNL     1      25.216  43.825  51.413  1.00  0.00     0.147 A 
HETATM    6  N   UNL     1      25.606  42.543  51.254  1.00  0.00    -0.169 NA
HETATM    7  N   UNL     1      26.677  42.428  52.064  1.00  0.00    -0.275 N 
HETATM    8  C   UNL     1      26.987  43.574  52.738  1.00  0.00     0.086 A 
HETATM    9  H   UNL     1      27.160  41.537  52.118  1.00  0.00     0.189 HD
HETATM   10  C   UNL     1      28.087  43.651  53.639  1.00  0.00     0.103 A 
HETATM   11  C   UNL     1      26.055  44.503  52.339  1.00  0.00     0.073 A 
HETATM   12  O   UNL     1      28.921  42.587  53.866  1.00  0.00    -0.320 OA
HETATM   13  C   UNL     1      28.514  44.720  54.409  1.00  0.00     0.041 A 
HETATM   14  C   UNL     1      29.859  42.980  54.763  1.00  0.00     0.142 A 
HETATM   15  C   UNL     1      29.653  44.287  55.131  1.00  0.00     0.027 A 
ENDBRANCH   1   5
BRANCH   2  16
HETATM   16  C   UNL     1      23.566  46.365  49.268  1.00  0.00     0.102 A 
HETATM   17  C   UNL     1      23.671  47.854  49.522  1.00  0.00     0.218 A 
HETATM   18  O   UNL     1      24.457  48.271  50.373  1.00  0.00    -0.284 OA
HETATM   19  C   UNL     1      22.797  48.768  48.711  1.00  0.00     0.078 A 
HETATM   20 BR   UNL     1      22.885  50.605  48.981  1.00  0.00    -0.045 Br
HETATM   21  C   UNL     1      21.980  48.195  47.813  1.00  0.00     0.111 A 
HETATM   22  N   UNL     1      21.911  46.843  47.609  1.00  0.00    -0.372 N 
HETATM   23  C   UNL     1      22.691  45.973  48.328  1.00  0.00     0.121 A 
HETATM   24  H   UNL     1      21.268  46.471  46.916  1.00  0.00     0.164 HD
ENDBRANCH   2  16
TORSDOF 2
ENDMDL
MODEL 8
REMARK VINA RESULT:      -7.1     13.916     14.931
REMARK  2 active torsions:
REMARK  status: ('A' for Active; 'I' for Inactive)
REMARK    1  A    between atoms: C_9  and  C_10 
REMARK       I    between atoms: C_10  and  N_11 
REMARK    2  A    between atoms: N_11  and  C_12 
ROOT
HETATM    1  C   UNL     1      34.751  51.302  42.562  1.00  0.00     0.276 C 
HETATM    2  N   UNL     1      33.459  51.727  42.789  1.00  0.00    -0.317 N 
HETATM    3  O   UNL     1      35.073  50.223  42.075  1.00  0.00    -0.266 OA
HETATM    4  H   UNL     1      33.379  52.662  43.196  1.00  0.00     0.169 HD
ENDROOT
BRANCH   1   5
HETATM    5  C   UNL     1      35.751  52.300  42.973  1.00  0.00     0.147 A 
HETATM    6  N   UNL     1      36.320  53.148  42.089  1.00  0.00    -0.169 NA
HETATM    7  N   UNL     1      37.152  53.891  42.844  1.00  0.00    -0.275 N 
HETATM    8  C   UNL     1      37.148  53.556  44.168  1.00  0.00     0.086 A 
HETATM    9  H   UNL     1      37.704  54.618  42.399  1.00  0.00     0.189 HD
HETATM   10  C   UNL     1      37.958  54.231  45.125  1.00  0.00     0.103 A 
HETATM   11  C   UNL     1      36.248  52.523  44.285  1.00  0.00     0.073 A 
HETATM   12  O   UNL     1      38.776  55.277  44.782  1.00  0.00    -0.320 OA
HETATM   13  C   UNL     1      38.085  53.998  46.484  1.00  0.00     0.041 A 
HETATM   14  C   UNL     1      39.404  55.697  45.907  1.00  0.00     0.142 A 
HETATM   15  C   UNL     1      39.014  54.941  46.985  1.00  0.00     0.027 A 
ENDBRANCH   1   5
BRANCH   2  16
HETATM   16  C   UNL     1      32.276  51.070  42.550  1.00  0.00     0.102 A 
HETATM   17  C   UNL     1      31.173  51.884  41.907  1.00  0.00     0.218 A 
HETATM   18  O   UNL     1      31.373  53.066  41.630  1.00  0.00    -0.284 OA
HETATM   19  C   UNL     1      29.863  51.199  41.634  1.00  0.00     0.078 A 
HETATM   20 BR   UNL     1      28.474  52.151  40.847  1.00  0.00    -0.045 Br
HETATM   21  C   UNL     1      29.764  49.907  41.982  1.00  0.00     0.111 A 
HETATM   22  N   UNL     1      30.785  49.201  42.561  1.00  0.00    -0.372 N 
HETATM   23  C   UNL     1      31.996  49.787  42.828  1.00  0.00     0.121 A 
HETATM   24  H   UNL     1      30.646  48.224  42.804  1.00  0.00     0.164 HD
ENDBRANCH   2  16
TORSDOF 2
ENDMDL
MODEL 9
REMARK VINA RESULT:      -7.0      5.163      7.961
REMARK  2 active torsions:
REMARK  status: ('A' for Active; 'I' for Inactive)
REMARK    1  A    between atoms: C_9  and  C_10 
REMARK       I    between atoms: C_10  and  N_11 
REMARK    2  A    between atoms: N_11  and  C_12 
ROOT
HETATM    1  C   UNL     1      27.276  43.466  52.726  1.00  0.00     0.276 C 
HETATM    2  N   UNL     1      28.540  43.849  53.119  1.00  0.00    -0.317 N 
HETATM    3  O   UNL     1      26.240  43.672  53.351  1.00  0.00    -0.266 OA
HETATM    4  H   UNL     1      29.288  43.599  52.466  1.00  0.00     0.169 HD
ENDROOT
BRANCH   1   5
HETATM    5  C   UNL     1      27.278  42.757  51.436  1.00  0.00     0.147 A 
HETATM    6  N   UNL     1      26.674  43.265  50.341  1.00  0.00    -0.169 NA
HETATM    7  N   UNL     1      26.907  42.342  49.387  1.00  0.00    -0.275 N 
HETATM    8  C   UNL     1      27.626  41.265  49.821  1.00  0.00     0.086 A 
HETATM    9  H   UNL     1      26.547  42.500  48.451  1.00  0.00     0.189 HD
HETATM   10  C   UNL     1      27.975  40.188  48.958  1.00  0.00     0.103 A 
HETATM   11  C   UNL     1      27.882  41.503  51.151  1.00  0.00     0.073 A 
HETATM   12  O   UNL     1      27.634  40.175  47.630  1.00  0.00    -0.320 OA
HETATM   13  C   UNL     1      28.671  39.026  49.247  1.00  0.00     0.041 A 
HETATM   14  C   UNL     1      28.110  39.025  47.092  1.00  0.00     0.142 A 
HETATM   15  C   UNL     1      28.757  38.280  48.046  1.00  0.00     0.027 A 
ENDBRANCH   1   5
BRANCH   2  16
HETATM   16  C   UNL     1      28.931  44.511  54.258  1.00  0.00     0.102 A 
HETATM   17  C   UNL     1      30.006  43.843  55.090  1.00  0.00     0.218 A 
HETATM   18  O   UNL     1      30.476  42.767  54.722  1.00  0.00    -0.284 OA
HETATM   19  C   UNL     1      30.454  44.537  56.345  1.00  0.00     0.078 A 
HETATM   20 BR   UNL     1      31.771  43.762  57.404  1.00  0.00    -0.045 Br
HETATM   21  C   UNL     1      29.867  45.706  56.641  1.00  0.00     0.111 A 
HETATM   22  N   UNL     1      28.897  46.282  55.864  1.00  0.00    -0.372 N 
HETATM   23  C   UNL     1      28.458  45.683  54.711  1.00  0.00     0.121 A 
HETATM   24  H   UNL     1      28.488  47.169  56.146  1.00  0.00     0.164 HD
ENDBRANCH   2  16
TORSDOF 2
ENDMDL
MODEL 10
REMARK VINA RESULT:      -6.9     13.933     16.244
REMARK  2 active torsions:
REMARK  status: ('A' for Active; 'I' for Inactive)
REMARK    1  A    between atoms: C_9  and  C_10 
REMARK       I    between atoms: C_10  and  N_11 
REMARK    2  A    between atoms: N_11  and  C_12 
ROOT
HETATM    1  C   UNL     1      28.909  50.060  38.821  1.00  0.00     0.276 C 
HETATM    2  N   UNL     1      29.324  49.576  40.043  1.00  0.00    -0.317 N 
HETATM    3  O   UNL     1      29.642  50.473  37.928  1.00  0.00    -0.266 OA
HETATM    4  H   UNL     1      28.571  49.267  40.662  1.00  0.00     0.169 HD
ENDROOT
BRANCH   1   5
HETATM    5  C   UNL     1      27.444  50.035  38.675  1.00  0.00     0.147 A 
HETATM    6  N   UNL     1      26.800  50.831  37.795  1.00  0.00    -0.169 NA
HETATM    7  N   UNL     1      25.502  50.506  37.956  1.00  0.00    -0.275 N 
HETATM    8  C   UNL     1      25.285  49.544  38.901  1.00  0.00     0.086 A 
HETATM    9  H   UNL     1      24.803  50.977  37.391  1.00  0.00     0.189 HD
HETATM   10  C   UNL     1      23.980  49.066  39.212  1.00  0.00     0.103 A 
HETATM   11  C   UNL     1      26.528  49.218  39.390  1.00  0.00     0.073 A 
HETATM   12  O   UNL     1      22.861  49.522  38.563  1.00  0.00    -0.320 OA
HETATM   13  C   UNL     1      23.594  48.124  40.149  1.00  0.00     0.041 A 
HETATM   14  C   UNL     1      21.789  48.875  39.082  1.00  0.00     0.142 A 
HETATM   15  C   UNL     1      22.185  48.002  40.065  1.00  0.00     0.027 A 
ENDBRANCH   1   5
BRANCH   2  16
HETATM   16  C   UNL     1      30.601  49.459  40.540  1.00  0.00     0.102 A 
HETATM   17  C   UNL     1      30.994  50.442  41.622  1.00  0.00     0.218 A 
HETATM   18  O   UNL     1      30.179  51.281  42.006  1.00  0.00    -0.284 OA
HETATM   19  C   UNL     1      32.383  50.346  42.186  1.00  0.00     0.078 A 
HETATM   20 BR   UNL     1      32.920  51.528  43.517  1.00  0.00    -0.045 Br
HETATM   21  C   UNL     1      33.182  49.389  41.687  1.00  0.00     0.111 A 
HETATM   22  N   UNL     1      32.791  48.516  40.708  1.00  0.00    -0.372 N 
HETATM   23  C   UNL     1      31.533  48.568  40.165  1.00  0.00     0.121 A 
HETATM   24  H   UNL     1      33.445  47.814  40.369  1.00  0.00     0.164 HD
ENDBRANCH   2  16
TORSDOF 2
ENDMDL
