MODEL 1
REMARK VINA RESULT:      -9.9      0.000      0.000
REMARK  6 active torsions:
REMARK  status: ('A' for Active; 'I' for Inactive)
REMARK    1  A    between atoms: C_5  and  N_6 
REMARK    2  A    between atoms: C_8  and  C_9 
REMARK    3  A    between atoms: C_11  and  O_12 
REMARK    4  A    between atoms: C_17  and  C_18 
REMARK       I    between atoms: C_18  and  N_19 
REMARK    5  A    between atoms: N_19  and  N_20 
REMARK       I    between atoms: N_20  and  C_21 
REMARK    6  A    between atoms: C_21  and  C_22 
ROOT
HETATM    1  N   UNL     1      28.485  43.769  53.476  1.00  0.00    -0.244 N 
HETATM    2  N   UNL     1      28.429  42.549  52.908  1.00  0.00    -0.166 NA
HETATM    3  C   UNL     1      27.625  42.668  51.838  1.00  0.00     0.105 A 
HETATM    4  C   UNL     1      27.128  44.004  51.722  1.00  0.00     0.082 A 
HETATM    5  C   UNL     1      27.703  44.669  52.796  1.00  0.00     0.138 A 
ENDROOT
BRANCH   4   6
HETATM    6  C   UNL     1      26.208  44.584  50.753  1.00  0.00     0.274 C 
HETATM    7  N   UNL     1      25.072  45.152  51.304  1.00  0.00    -0.263 N 
HETATM    8  H   UNL     1      24.977  45.327  52.301  1.00  0.00     0.190 HD
HETATM    9  O   UNL     1      26.404  44.596  49.539  1.00  0.00    -0.266 OA
BRANCH   7  10
HETATM   10  N   UNL     1      24.218  45.897  50.477  1.00  0.00    -0.262 N 
HETATM   11  C   UNL     1      24.434  47.256  50.375  1.00  0.00     0.286 C 
HETATM   12  O   UNL     1      25.297  47.819  51.050  1.00  0.00    -0.264 OA
HETATM   13  H   UNL     1      23.585  45.378  49.875  1.00  0.00     0.190 HD
BRANCH  11  14
HETATM   14  C   UNL     1      23.597  47.961  49.432  1.00  0.00     0.102 A 
HETATM   15  N   UNL     1      22.340  47.497  49.105  1.00  0.00    -0.361 N 
HETATM   16  H   UNL     1      21.932  46.654  49.495  1.00  0.00     0.165 HD
HETATM   17  C   UNL     1      21.746  48.329  48.197  1.00  0.00     0.088 A 
HETATM   18  C   UNL     1      22.624  49.352  47.926  1.00  0.00     0.019 A 
HETATM   19  C   UNL     1      23.790  49.122  48.700  1.00  0.00     0.036 A 
ENDBRANCH  11  14
ENDBRANCH   7  10
ENDBRANCH   4   6
BRANCH   3  20
HETATM   20  C   UNL     1      27.394  41.486  50.995  1.00  0.00    -0.002 A 
HETATM   21  C   UNL     1      28.384  40.512  50.801  1.00  0.00     0.050 A 
HETATM   22  C   UNL     1      28.137  39.396  49.996  1.00  0.00     0.069 A 
HETATM   23  C   UNL     1      26.875  39.216  49.429  1.00  0.00     0.037 A 
HETATM   24  C   UNL     1      25.873  40.162  49.630  1.00  0.00     0.004 A 
HETATM   25  C   UNL     1      26.135  41.293  50.404  1.00  0.00     0.014 A 
BRANCH  22  26
HETATM   26  O   UNL     1      29.043  38.406  49.724  1.00  0.00    -0.356 OA
HETATM   27  C   UNL     1      29.875  38.023  50.815  1.00  0.00     0.210 C 
ENDBRANCH  22  26
ENDBRANCH   3  20
BRANCH   1  28
HETATM   28  C   UNL     1      29.283  44.003  54.633  1.00  0.00     0.058 A 
HETATM   29  C   UNL     1      29.086  45.173  55.380  1.00  0.00     0.032 A 
HETATM   30  C   UNL     1      29.849  45.418  56.526  1.00  0.00     0.009 A 
HETATM   31  C   UNL     1      30.824  44.504  56.937  1.00  0.00    -0.062 A 
HETATM   32  C   UNL     1      31.622  44.743  58.185  1.00  0.00     0.048 C 
HETATM   33  C   UNL     1      31.013  43.333  56.196  1.00  0.00     0.009 A 
HETATM   34  C   UNL     1      30.253  43.081  55.048  1.00  0.00     0.032 A 
ENDBRANCH   1  28
TORSDOF 6
ENDMDL
MODEL 2
REMARK VINA RESULT:      -9.8      1.831      2.290
REMARK  6 active torsions:
REMARK  status: ('A' for Active; 'I' for Inactive)
REMARK    1  A    between atoms: C_5  and  N_6 
REMARK    2  A    between atoms: C_8  and  C_9 
REMARK    3  A    between atoms: C_11  and  O_12 
REMARK    4  A    between atoms: C_17  and  C_18 
REMARK       I    between atoms: C_18  and  N_19 
REMARK    5  A    between atoms: N_19  and  N_20 
REMARK       I    between atoms: N_20  and  C_21 
REMARK    6  A    between atoms: C_21  and  C_22 
ROOT
HETATM    1  N   UNL     1      28.080  44.837  53.948  1.00  0.00    -0.244 N 
HETATM    2  N   UNL     1      27.709  43.900  53.054  1.00  0.00    -0.166 NA
HETATM    3  C   UNL     1      26.745  44.457  52.301  1.00  0.00     0.105 A 
HETATM    4  C   UNL     1      26.470  45.792  52.737  1.00  0.00     0.082 A 
HETATM    5  C   UNL     1      27.345  45.986  53.795  1.00  0.00     0.138 A 
ENDROOT
BRANCH   4   6
HETATM    6  C   UNL     1      25.491  46.756  52.251  1.00  0.00     0.274 C 
HETATM    7  N   UNL     1      25.062  46.539  50.953  1.00  0.00    -0.263 N 
HETATM    8  H   UNL     1      25.259  45.678  50.449  1.00  0.00     0.190 HD
HETATM    9  O   UNL     1      25.051  47.687  52.922  1.00  0.00    -0.266 OA
BRANCH   7  10
HETATM   10  N   UNL     1      23.990  47.295  50.459  1.00  0.00    -0.262 N 
HETATM   11  C   UNL     1      24.273  48.364  49.633  1.00  0.00     0.286 C 
HETATM   12  O   UNL     1      25.435  48.700  49.398  1.00  0.00    -0.264 OA
HETATM   13  H   UNL     1      23.054  46.926  50.604  1.00  0.00     0.190 HD
BRANCH  11  14
HETATM   14  C   UNL     1      23.133  49.046  49.066  1.00  0.00     0.102 A 
HETATM   15  N   UNL     1      21.845  48.692  49.409  1.00  0.00    -0.361 N 
HETATM   16  H   UNL     1      21.620  47.950  50.063  1.00  0.00     0.165 HD
HETATM   17  C   UNL     1      20.943  49.476  48.744  1.00  0.00     0.088 A 
HETATM   18  C   UNL     1      21.649  50.356  47.957  1.00  0.00     0.019 A 
HETATM   19  C   UNL     1      23.027  50.086  48.157  1.00  0.00     0.036 A 
ENDBRANCH  11  14
ENDBRANCH   7  10
ENDBRANCH   4   6
BRANCH   3  20
HETATM   20  C   UNL     1      26.159  43.668  51.208  1.00  0.00    -0.002 A 
HETATM   21  C   UNL     1      26.935  43.190  50.144  1.00  0.00     0.050 A 
HETATM   22  C   UNL     1      26.353  42.439  49.118  1.00  0.00     0.069 A 
HETATM   23  C   UNL     1      24.999  42.110  49.184  1.00  0.00     0.037 A 
HETATM   24  C   UNL     1      24.218  42.559  50.246  1.00  0.00     0.004 A 
HETATM   25  C   UNL     1      24.794  43.338  51.249  1.00  0.00     0.014 A 
BRANCH  22  26
HETATM   26  O   UNL     1      27.018  41.950  48.026  1.00  0.00    -0.356 OA
HETATM   27  C   UNL     1      27.933  40.892  48.293  1.00  0.00     0.210 C 
ENDBRANCH  22  26
ENDBRANCH   3  20
BRANCH   1  28
HETATM   28  C   UNL     1      29.114  44.579  54.893  1.00  0.00     0.058 A 
HETATM   29  C   UNL     1      29.384  45.523  55.894  1.00  0.00     0.032 A 
HETATM   30  C   UNL     1      30.386  45.287  56.840  1.00  0.00     0.009 A 
HETATM   31  C   UNL     1      31.138  44.108  56.796  1.00  0.00    -0.062 A 
HETATM   32  C   UNL     1      32.190  43.831  57.829  1.00  0.00     0.048 C 
HETATM   33  C   UNL     1      30.861  43.162  55.803  1.00  0.00     0.009 A 
HETATM   34  C   UNL     1      29.859  43.393  54.854  1.00  0.00     0.032 A 
ENDBRANCH   1  28
TORSDOF 6
ENDMDL
MODEL 3
REMARK VINA RESULT:      -9.4      2.222      6.915
REMARK  6 active torsions:
REMARK  status: ('A' for Active; 'I' for Inactive)
REMARK    1  A    between atoms: C_5  and  N_6 
REMARK    2  A    between atoms: C_8  and  C_9 
REMARK    3  A    between atoms: C_11  and  O_12 
REMARK    4  A    between atoms: C_17  and  C_18 
REMARK       I    between atoms: C_18  and  N_19 
REMARK    5  A    between atoms: N_19  and  N_20 
REMARK       I    between atoms: N_20  and  C_21 
REMARK    6  A    between atoms: C_21  and  C_22 
ROOT
HETATM    1  N   UNL     1      28.560  43.907  53.589  1.00  0.00    -0.244 N 
HETATM    2  N   UNL     1      27.654  44.781  53.109  1.00  0.00    -0.166 NA
HETATM    3  C   UNL     1      27.122  44.211  52.015  1.00  0.00     0.105 A 
HETATM    4  C   UNL     1      27.718  42.934  51.768  1.00  0.00     0.082 A 
HETATM    5  C   UNL     1      28.635  42.788  52.798  1.00  0.00     0.138 A 
ENDROOT
BRANCH   4   6
HETATM    6  C   UNL     1      27.488  41.983  50.689  1.00  0.00     0.274 C 
HETATM    7  N   UNL     1      27.296  40.676  51.102  1.00  0.00    -0.263 N 
HETATM    8  H   UNL     1      27.134  40.428  52.074  1.00  0.00     0.190 HD
HETATM    9  O   UNL     1      27.447  42.289  49.498  1.00  0.00    -0.266 OA
BRANCH   7  10
HETATM   10  N   UNL     1      26.884  39.721  50.160  1.00  0.00    -0.262 N 
HETATM   11  C   UNL     1      27.820  38.819  49.697  1.00  0.00     0.286 C 
HETATM   12  O   UNL     1      29.002  38.894  50.035  1.00  0.00    -0.264 OA
HETATM   13  H   UNL     1      25.887  39.642  49.984  1.00  0.00     0.190 HD
BRANCH  11  14
HETATM   14  C   UNL     1      27.324  37.792  48.811  1.00  0.00     0.102 A 
HETATM   15  N   UNL     1      26.150  37.120  49.080  1.00  0.00    -0.361 N 
HETATM   16  H   UNL     1      25.574  37.299  49.895  1.00  0.00     0.165 HD
HETATM   17  C   UNL     1      25.893  36.199  48.102  1.00  0.00     0.088 A 
HETATM   18  C   UNL     1      26.911  36.269  47.180  1.00  0.00     0.019 A 
HETATM   19  C   UNL     1      27.813  37.269  47.624  1.00  0.00     0.036 A 
ENDBRANCH  11  14
ENDBRANCH   7  10
ENDBRANCH   4   6
BRANCH   3  20
HETATM   20  C   UNL     1      26.070  44.932  51.284  1.00  0.00    -0.002 A 
HETATM   21  C   UNL     1      26.200  46.286  50.947  1.00  0.00     0.050 A 
HETATM   22  C   UNL     1      25.185  46.947  50.249  1.00  0.00     0.069 A 
HETATM   23  C   UNL     1      24.059  46.240  49.829  1.00  0.00     0.037 A 
HETATM   24  C   UNL     1      23.923  44.888  50.137  1.00  0.00     0.004 A 
HETATM   25  C   UNL     1      24.921  44.241  50.865  1.00  0.00     0.014 A 
BRANCH  22  26
HETATM   26  O   UNL     1      25.206  48.270  49.896  1.00  0.00    -0.356 OA
HETATM   27  C   UNL     1      26.394  48.709  49.244  1.00  0.00     0.210 C 
ENDBRANCH  22  26
ENDBRANCH   3  20
BRANCH   1  28
HETATM   28  C   UNL     1      29.298  44.193  54.774  1.00  0.00     0.058 A 
HETATM   29  C   UNL     1      28.964  45.320  55.537  1.00  0.00     0.032 A 
HETATM   30  C   UNL     1      29.666  45.614  56.710  1.00  0.00     0.009 A 
HETATM   31  C   UNL     1      30.716  44.792  57.133  1.00  0.00    -0.062 A 
HETATM   32  C   UNL     1      31.450  45.081  58.409  1.00  0.00     0.048 C 
HETATM   33  C   UNL     1      31.042  43.663  56.375  1.00  0.00     0.009 A 
HETATM   34  C   UNL     1      30.343  43.362  55.200  1.00  0.00     0.032 A 
ENDBRANCH   1  28
TORSDOF 6
ENDMDL
MODEL 4
REMARK VINA RESULT:      -9.3      1.938      2.177
REMARK  6 active torsions:
REMARK  status: ('A' for Active; 'I' for Inactive)
REMARK    1  A    between atoms: C_5  and  N_6 
REMARK    2  A    between atoms: C_8  and  C_9 
REMARK    3  A    between atoms: C_11  and  O_12 
REMARK    4  A    between atoms: C_17  and  C_18 
REMARK       I    between atoms: C_18  and  N_19 
REMARK    5  A    between atoms: N_19  and  N_20 
REMARK       I    between atoms: N_20  and  C_21 
REMARK    6  A    between atoms: C_21  and  C_22 
ROOT
HETATM    1  N   UNL     1      27.990  44.195  53.439  1.00  0.00    -0.244 N 
HETATM    2  N   UNL     1      28.122  42.932  52.989  1.00  0.00    -0.166 NA
HETATM    3  C   UNL     1      27.383  42.850  51.870  1.00  0.00     0.105 A 
HETATM    4  C   UNL     1      26.735  44.096  51.597  1.00  0.00     0.082 A 
HETATM    5  C   UNL     1      27.150  44.922  52.631  1.00  0.00     0.138 A 
ENDROOT
BRANCH   4   6
HETATM    6  C   UNL     1      25.818  44.464  50.527  1.00  0.00     0.274 C 
HETATM    7  N   UNL     1      24.479  44.426  50.876  1.00  0.00    -0.263 N 
HETATM    8  H   UNL     1      24.168  44.341  51.839  1.00  0.00     0.190 HD
HETATM    9  O   UNL     1      26.175  44.800  49.400  1.00  0.00    -0.266 OA
BRANCH   7  10
HETATM   10  N   UNL     1      23.531  44.939  49.978  1.00  0.00    -0.262 N 
HETATM   11  C   UNL     1      22.417  44.173  49.701  1.00  0.00     0.286 C 
HETATM   12  O   UNL     1      22.292  43.036  50.161  1.00  0.00    -0.264 OA
HETATM   13  H   UNL     1      23.632  45.911  49.699  1.00  0.00     0.190 HD
BRANCH  11  14
HETATM   14  C   UNL     1      21.420  44.787  48.855  1.00  0.00     0.102 A 
HETATM   15  N   UNL     1      20.201  45.186  49.361  1.00  0.00    -0.361 N 
HETATM   16  H   UNL     1      19.932  45.077  50.333  1.00  0.00     0.165 HD
HETATM   17  C   UNL     1      19.432  45.735  48.373  1.00  0.00     0.088 A 
HETATM   18  C   UNL     1      20.156  45.697  47.205  1.00  0.00     0.019 A 
HETATM   19  C   UNL     1      21.407  45.100  47.505  1.00  0.00     0.036 A 
ENDBRANCH  11  14
ENDBRANCH   7  10
ENDBRANCH   4   6
BRANCH   3  20
HETATM   20  C   UNL     1      27.356  41.578  51.134  1.00  0.00    -0.002 A 
HETATM   21  C   UNL     1      28.476  40.736  51.072  1.00  0.00     0.050 A 
HETATM   22  C   UNL     1      28.422  39.530  50.367  1.00  0.00     0.069 A 
HETATM   23  C   UNL     1      27.226  39.128  49.771  1.00  0.00     0.037 A 
HETATM   24  C   UNL     1      26.098  39.942  49.841  1.00  0.00     0.004 A 
HETATM   25  C   UNL     1      26.166  41.162  50.514  1.00  0.00     0.014 A 
BRANCH  22  26
HETATM   26  O   UNL     1      29.464  38.653  50.227  1.00  0.00    -0.356 OA
HETATM   27  C   UNL     1      29.624  38.098  48.925  1.00  0.00     0.210 C 
ENDBRANCH  22  26
ENDBRANCH   3  20
BRANCH   1  28
HETATM   28  C   UNL     1      28.673  44.631  54.609  1.00  0.00     0.058 A 
HETATM   29  C   UNL     1      28.126  45.668  55.379  1.00  0.00     0.032 A 
HETATM   30  C   UNL     1      28.773  46.105  56.540  1.00  0.00     0.009 A 
HETATM   31  C   UNL     1      29.978  45.520  56.943  1.00  0.00    -0.062 A 
HETATM   32  C   UNL     1      30.659  45.959  58.206  1.00  0.00     0.048 C 
HETATM   33  C   UNL     1      30.517  44.480  56.179  1.00  0.00     0.009 A 
HETATM   34  C   UNL     1      29.875  44.037  55.017  1.00  0.00     0.032 A 
ENDBRANCH   1  28
TORSDOF 6
ENDMDL
MODEL 5
REMARK VINA RESULT:      -9.1      3.814      7.193
REMARK  6 active torsions:
REMARK  status: ('A' for Active; 'I' for Inactive)
REMARK    1  A    between atoms: C_5  and  N_6 
REMARK    2  A    between atoms: C_8  and  C_9 
REMARK    3  A    between atoms: C_11  and  O_12 
REMARK    4  A    between atoms: C_17  and  C_18 
REMARK       I    between atoms: C_18  and  N_19 
REMARK    5  A    between atoms: N_19  and  N_20 
REMARK       I    between atoms: N_20  and  C_21 
REMARK    6  A    between atoms: C_21  and  C_22 
ROOT
HETATM    1  N   UNL     1      25.683  46.320  51.978  1.00  0.00    -0.244 N 
HETATM    2  N   UNL     1      25.414  47.495  51.375  1.00  0.00    -0.166 NA
HETATM    3  C   UNL     1      24.580  47.216  50.360  1.00  0.00     0.105 A 
HETATM    4  C   UNL     1      24.317  45.811  50.290  1.00  0.00     0.082 A 
HETATM    5  C   UNL     1      25.049  45.281  51.342  1.00  0.00     0.138 A 
ENDROOT
BRANCH   4   6
HETATM    6  C   UNL     1      23.511  45.052  49.343  1.00  0.00     0.274 C 
HETATM    7  N   UNL     1      22.144  45.205  49.495  1.00  0.00    -0.263 N 
HETATM    8  H   UNL     1      21.737  45.928  50.081  1.00  0.00     0.190 HD
HETATM    9  O   UNL     1      23.980  44.337  48.459  1.00  0.00    -0.266 OA
BRANCH   7  10
HETATM   10  N   UNL     1      21.290  44.666  48.521  1.00  0.00    -0.262 N 
HETATM   11  C   UNL     1      20.125  45.346  48.230  1.00  0.00     0.286 C 
HETATM   12  O   UNL     1      19.798  46.353  48.860  1.00  0.00    -0.264 OA
HETATM   13  H   UNL     1      21.645  43.891  47.969  1.00  0.00     0.190 HD
BRANCH  11  14
HETATM   14  C   UNL     1      19.332  44.810  47.148  1.00  0.00     0.102 A 
HETATM   15  N   UNL     1      17.959  44.945  47.133  1.00  0.00    -0.361 N 
HETATM   16  H   UNL     1      17.433  45.417  47.860  1.00  0.00     0.165 HD
HETATM   17  C   UNL     1      17.435  44.358  46.015  1.00  0.00     0.088 A 
HETATM   18  C   UNL     1      18.478  43.833  45.288  1.00  0.00     0.019 A 
HETATM   19  C   UNL     1      19.672  44.114  45.999  1.00  0.00     0.036 A 
ENDBRANCH  11  14
ENDBRANCH   7  10
ENDBRANCH   4   6
BRANCH   3  20
HETATM   20  C   UNL     1      24.087  48.323  49.527  1.00  0.00    -0.002 A 
HETATM   21  C   UNL     1      22.731  48.681  49.502  1.00  0.00     0.050 A 
HETATM   22  C   UNL     1      22.289  49.739  48.704  1.00  0.00     0.069 A 
HETATM   23  C   UNL     1      23.212  50.488  47.972  1.00  0.00     0.037 A 
HETATM   24  C   UNL     1      24.564  50.160  48.003  1.00  0.00     0.004 A 
HETATM   25  C   UNL     1      24.997  49.079  48.772  1.00  0.00     0.014 A 
BRANCH  22  26
HETATM   26  O   UNL     1      20.987  50.149  48.591  1.00  0.00    -0.356 OA
HETATM   27  C   UNL     1      20.539  50.399  47.262  1.00  0.00     0.210 C 
ENDBRANCH  22  26
ENDBRANCH   3  20
BRANCH   1  28
HETATM   28  C   UNL     1      26.528  46.260  53.123  1.00  0.00     0.058 A 
HETATM   29  C   UNL     1      27.145  45.047  53.460  1.00  0.00     0.032 A 
HETATM   30  C   UNL     1      27.988  44.967  54.574  1.00  0.00     0.009 A 
HETATM   31  C   UNL     1      28.219  46.094  55.370  1.00  0.00    -0.062 A 
HETATM   32  C   UNL     1      29.150  46.025  56.544  1.00  0.00     0.048 C 
HETATM   33  C   UNL     1      27.610  47.305  55.026  1.00  0.00     0.009 A 
HETATM   34  C   UNL     1      26.766  47.392  53.914  1.00  0.00     0.032 A 
ENDBRANCH   1  28
TORSDOF 6
ENDMDL
MODEL 6
REMARK VINA RESULT:      -9.0      3.307      7.443
REMARK  6 active torsions:
REMARK  status: ('A' for Active; 'I' for Inactive)
REMARK    1  A    between atoms: C_5  and  N_6 
REMARK    2  A    between atoms: C_8  and  C_9 
REMARK    3  A    between atoms: C_11  and  O_12 
REMARK    4  A    between atoms: C_17  and  C_18 
REMARK       I    between atoms: C_18  and  N_19 
REMARK    5  A    between atoms: N_19  and  N_20 
REMARK       I    between atoms: N_20  and  C_21 
REMARK    6  A    between atoms: C_21  and  C_22 
ROOT
HETATM    1  N   UNL     1      25.964  46.280  52.200  1.00  0.00    -0.244 N 
HETATM    2  N   UNL     1      25.732  47.439  51.554  1.00  0.00    -0.166 NA
HETATM    3  C   UNL     1      25.005  47.127  50.468  1.00  0.00     0.105 A 
HETATM    4  C   UNL     1      24.776  45.717  50.399  1.00  0.00     0.082 A 
HETATM    5  C   UNL     1      25.413  45.219  51.525  1.00  0.00     0.138 A 
ENDROOT
BRANCH   4   6
HETATM    6  C   UNL     1      24.080  44.927  49.392  1.00  0.00     0.274 C 
HETATM    7  N   UNL     1      24.877  44.018  48.719  1.00  0.00    -0.263 N 
HETATM    8  H   UNL     1      25.816  43.781  49.027  1.00  0.00     0.190 HD
HETATM    9  O   UNL     1      22.879  45.025  49.149  1.00  0.00    -0.266 OA
BRANCH   7  10
HETATM   10  N   UNL     1      24.269  43.085  47.866  1.00  0.00    -0.262 N 
HETATM   11  C   UNL     1      24.118  41.791  48.320  1.00  0.00     0.286 C 
HETATM   12  O   UNL     1      24.574  41.437  49.409  1.00  0.00    -0.264 OA
HETATM   13  H   UNL     1      23.830  43.442  47.022  1.00  0.00     0.190 HD
BRANCH  11  14
HETATM   14  C   UNL     1      23.393  40.894  47.450  1.00  0.00     0.102 A 
HETATM   15  N   UNL     1      23.835  39.608  47.220  1.00  0.00    -0.361 N 
HETATM   16  H   UNL     1      24.674  39.218  47.636  1.00  0.00     0.165 HD
HETATM   17  C   UNL     1      22.987  38.958  46.366  1.00  0.00     0.088 A 
HETATM   18  C   UNL     1      21.977  39.829  46.033  1.00  0.00     0.019 A 
HETATM   19  C   UNL     1      22.230  41.048  46.712  1.00  0.00     0.036 A 
ENDBRANCH  11  14
ENDBRANCH   7  10
ENDBRANCH   4   6
BRANCH   3  20
HETATM   20  C   UNL     1      24.574  48.211  49.573  1.00  0.00    -0.002 A 
HETATM   21  C   UNL     1      23.220  48.536  49.406  1.00  0.00     0.050 A 
HETATM   22  C   UNL     1      22.837  49.573  48.550  1.00  0.00     0.069 A 
HETATM   23  C   UNL     1      23.812  50.333  47.903  1.00  0.00     0.037 A 
HETATM   24  C   UNL     1      25.162  50.037  48.075  1.00  0.00     0.004 A 
HETATM   25  C   UNL     1      25.539  48.978  48.901  1.00  0.00     0.014 A 
BRANCH  22  26
HETATM   26  O   UNL     1      21.545  49.951  48.300  1.00  0.00    -0.356 OA
HETATM   27  C   UNL     1      20.991  50.879  49.227  1.00  0.00     0.210 C 
ENDBRANCH  22  26
ENDBRANCH   3  20
BRANCH   1  28
HETATM   28  C   UNL     1      26.695  46.255  53.422  1.00  0.00     0.058 A 
HETATM   29  C   UNL     1      27.387  45.092  53.787  1.00  0.00     0.032 A 
HETATM   30  C   UNL     1      28.121  45.048  54.977  1.00  0.00     0.009 A 
HETATM   31  C   UNL     1      28.168  46.162  55.822  1.00  0.00    -0.062 A 
HETATM   32  C   UNL     1      28.983  46.135  57.081  1.00  0.00     0.048 C 
HETATM   33  C   UNL     1      27.485  47.325  55.452  1.00  0.00     0.009 A 
HETATM   34  C   UNL     1      26.749  47.375  54.263  1.00  0.00     0.032 A 
ENDBRANCH   1  28
TORSDOF 6
ENDMDL
MODEL 7
REMARK VINA RESULT:      -8.9      7.694     11.216
REMARK  6 active torsions:
REMARK  status: ('A' for Active; 'I' for Inactive)
REMARK    1  A    between atoms: C_5  and  N_6 
REMARK    2  A    between atoms: C_8  and  C_9 
REMARK    3  A    between atoms: C_11  and  O_12 
REMARK    4  A    between atoms: C_17  and  C_18 
REMARK       I    between atoms: C_18  and  N_19 
REMARK    5  A    between atoms: N_19  and  N_20 
REMARK       I    between atoms: N_20  and  C_21 
REMARK    6  A    between atoms: C_21  and  C_22 
ROOT
HETATM    1  N   UNL     1      22.205  49.793  48.750  1.00  0.00    -0.244 N 
HETATM    2  N   UNL     1      21.286  48.840  48.501  1.00  0.00    -0.166 NA
HETATM    3  C   UNL     1      20.097  49.463  48.462  1.00  0.00     0.105 A 
HETATM    4  C   UNL     1      20.249  50.863  48.716  1.00  0.00     0.082 A 
HETATM    5  C   UNL     1      21.614  51.023  48.899  1.00  0.00     0.138 A 
ENDROOT
BRANCH   4   6
HETATM    6  C   UNL     1      19.246  51.915  48.809  1.00  0.00     0.274 C 
HETATM    7  N   UNL     1      18.389  51.802  49.890  1.00  0.00    -0.263 N 
HETATM    8  H   UNL     1      18.561  51.159  50.659  1.00  0.00     0.190 HD
HETATM    9  O   UNL     1      19.153  52.850  48.016  1.00  0.00    -0.266 OA
BRANCH   7  10
HETATM   10  N   UNL     1      17.512  52.859  50.174  1.00  0.00    -0.262 N 
HETATM   11  C   UNL     1      16.170  52.680  49.908  1.00  0.00     0.286 C 
HETATM   12  O   UNL     1      15.757  51.655  49.362  1.00  0.00    -0.264 OA
HETATM   13  H   UNL     1      17.883  53.642  50.704  1.00  0.00     0.190 HD
BRANCH  11  14
HETATM   14  C   UNL     1      15.294  53.755  50.313  1.00  0.00     0.102 A 
HETATM   15  N   UNL     1      14.940  53.928  51.635  1.00  0.00    -0.361 N 
HETATM   16  H   UNL     1      15.261  53.329  52.387  1.00  0.00     0.165 HD
HETATM   17  C   UNL     1      14.108  55.005  51.768  1.00  0.00     0.088 A 
HETATM   18  C   UNL     1      13.916  55.545  50.518  1.00  0.00     0.019 A 
HETATM   19  C   UNL     1      14.660  54.760  49.601  1.00  0.00     0.036 A 
ENDBRANCH  11  14
ENDBRANCH   7  10
ENDBRANCH   4   6
BRANCH   3  20
HETATM   20  C   UNL     1      18.893  48.669  48.178  1.00  0.00    -0.002 A 
HETATM   21  C   UNL     1      18.536  48.312  46.869  1.00  0.00     0.050 A 
HETATM   22  C   UNL     1      17.387  47.554  46.626  1.00  0.00     0.069 A 
HETATM   23  C   UNL     1      16.621  47.094  47.698  1.00  0.00     0.037 A 
HETATM   24  C   UNL     1      16.974  47.420  49.005  1.00  0.00     0.004 A 
HETATM   25  C   UNL     1      18.100  48.208  49.241  1.00  0.00     0.014 A 
BRANCH  22  26
HETATM   26  O   UNL     1      16.940  47.177  45.388  1.00  0.00    -0.356 OA
HETATM   27  C   UNL     1      15.817  47.902  44.897  1.00  0.00     0.210 C 
ENDBRANCH  22  26
ENDBRANCH   3  20
BRANCH   1  28
HETATM   28  C   UNL     1      23.590  49.473  48.831  1.00  0.00     0.058 A 
HETATM   29  C   UNL     1      23.998  48.368  49.592  1.00  0.00     0.032 A 
HETATM   30  C   UNL     1      25.352  48.027  49.676  1.00  0.00     0.009 A 
HETATM   31  C   UNL     1      26.318  48.787  49.008  1.00  0.00    -0.062 A 
HETATM   32  C   UNL     1      27.767  48.406  49.064  1.00  0.00     0.048 C 
HETATM   33  C   UNL     1      25.908  49.883  48.242  1.00  0.00     0.009 A 
HETATM   34  C   UNL     1      24.555  50.230  48.153  1.00  0.00     0.032 A 
ENDBRANCH   1  28
TORSDOF 6
ENDMDL
MODEL 8
REMARK VINA RESULT:      -8.9      2.931      4.508
REMARK  6 active torsions:
REMARK  status: ('A' for Active; 'I' for Inactive)
REMARK    1  A    between atoms: C_5  and  N_6 
REMARK    2  A    between atoms: C_8  and  C_9 
REMARK    3  A    between atoms: C_11  and  O_12 
REMARK    4  A    between atoms: C_17  and  C_18 
REMARK       I    between atoms: C_18  and  N_19 
REMARK    5  A    between atoms: N_19  and  N_20 
REMARK       I    between atoms: N_20  and  C_21 
REMARK    6  A    between atoms: C_21  and  C_22 
ROOT
HETATM    1  N   UNL     1      26.511  45.108  51.592  1.00  0.00    -0.244 N 
HETATM    2  N   UNL     1      25.791  44.245  50.848  1.00  0.00    -0.166 NA
HETATM    3  C   UNL     1      25.010  44.993  50.052  1.00  0.00     0.105 A 
HETATM    4  C   UNL     1      25.217  46.386  50.302  1.00  0.00     0.082 A 
HETATM    5  C   UNL     1      26.181  46.408  51.298  1.00  0.00     0.138 A 
ENDROOT
BRANCH   4   6
HETATM    6  C   UNL     1      24.573  47.552  49.712  1.00  0.00     0.274 C 
HETATM    7  N   UNL     1      23.204  47.616  49.906  1.00  0.00    -0.263 N 
HETATM    8  H   UNL     1      22.716  47.013  50.563  1.00  0.00     0.190 HD
HETATM    9  O   UNL     1      25.173  48.433  49.099  1.00  0.00    -0.266 OA
BRANCH   7  10
HETATM   10  N   UNL     1      22.522  48.786  49.540  1.00  0.00    -0.262 N 
HETATM   11  C   UNL     1      21.244  48.662  49.034  1.00  0.00     0.286 C 
HETATM   12  O   UNL     1      20.741  47.556  48.830  1.00  0.00    -0.264 OA
HETATM   13  H   UNL     1      22.939  49.672  49.810  1.00  0.00     0.190 HD
BRANCH  11  14
HETATM   14  C   UNL     1      20.544  49.898  48.771  1.00  0.00     0.102 A 
HETATM   15  N   UNL     1      19.606  49.988  47.764  1.00  0.00    -0.361 N 
HETATM   16  H   UNL     1      19.354  49.215  47.159  1.00  0.00     0.165 HD
HETATM   17  C   UNL     1      19.085  51.252  47.710  1.00  0.00     0.088 A 
HETATM   18  C   UNL     1      19.689  51.998  48.695  1.00  0.00     0.019 A 
HETATM   19  C   UNL     1      20.608  51.150  49.363  1.00  0.00     0.036 A 
ENDBRANCH  11  14
ENDBRANCH   7  10
ENDBRANCH   4   6
BRANCH   3  20
HETATM   20  C   UNL     1      24.122  44.315  49.097  1.00  0.00    -0.002 A 
HETATM   21  C   UNL     1      23.647  43.015  49.325  1.00  0.00     0.050 A 
HETATM   22  C   UNL     1      22.800  42.394  48.402  1.00  0.00     0.069 A 
HETATM   23  C   UNL     1      22.372  43.095  47.274  1.00  0.00     0.037 A 
HETATM   24  C   UNL     1      22.817  44.394  47.043  1.00  0.00     0.004 A 
HETATM   25  C   UNL     1      23.691  44.997  47.948  1.00  0.00     0.014 A 
BRANCH  22  26
HETATM   26  O   UNL     1      22.304  41.123  48.520  1.00  0.00    -0.356 OA
HETATM   27  C   UNL     1      22.350  40.338  47.332  1.00  0.00     0.210 C 
ENDBRANCH  22  26
ENDBRANCH   3  20
BRANCH   1  28
HETATM   28  C   UNL     1      27.470  44.640  52.535  1.00  0.00     0.058 A 
HETATM   29  C   UNL     1      28.422  43.692  52.136  1.00  0.00     0.032 A 
HETATM   30  C   UNL     1      29.381  43.227  53.042  1.00  0.00     0.009 A 
HETATM   31  C   UNL     1      29.398  43.695  54.360  1.00  0.00    -0.062 A 
HETATM   32  C   UNL     1      30.445  43.228  55.327  1.00  0.00     0.048 C 
HETATM   33  C   UNL     1      28.452  44.648  54.754  1.00  0.00     0.009 A 
HETATM   34  C   UNL     1      27.491  45.118  53.852  1.00  0.00     0.032 A 
ENDBRANCH   1  28
TORSDOF 6
ENDMDL
MODEL 9
REMARK VINA RESULT:      -8.8      1.983      2.518
REMARK  6 active torsions:
REMARK  status: ('A' for Active; 'I' for Inactive)
REMARK    1  A    between atoms: C_5  and  N_6 
REMARK    2  A    between atoms: C_8  and  C_9 
REMARK    3  A    between atoms: C_11  and  O_12 
REMARK    4  A    between atoms: C_17  and  C_18 
REMARK       I    between atoms: C_18  and  N_19 
REMARK    5  A    between atoms: N_19  and  N_20 
REMARK       I    between atoms: N_20  and  C_21 
REMARK    6  A    between atoms: C_21  and  C_22 
ROOT
HETATM    1  N   UNL     1      27.450  43.603  51.698  1.00  0.00    -0.244 N 
HETATM    2  N   UNL     1      27.356  42.550  50.862  1.00  0.00    -0.166 NA
HETATM    3  C   UNL     1      26.414  42.868  49.959  1.00  0.00     0.105 A 
HETATM    4  C   UNL     1      25.865  44.161  50.231  1.00  0.00     0.082 A 
HETATM    5  C   UNL     1      26.556  44.588  51.355  1.00  0.00     0.138 A 
ENDROOT
BRANCH   4   6
HETATM    6  C   UNL     1      24.807  44.894  49.550  1.00  0.00     0.274 C 
HETATM    7  N   UNL     1      24.150  45.824  50.337  1.00  0.00    -0.263 N 
HETATM    8  H   UNL     1      24.498  46.113  51.248  1.00  0.00     0.190 HD
HETATM    9  O   UNL     1      24.508  44.733  48.368  1.00  0.00    -0.266 OA
BRANCH   7  10
HETATM   10  N   UNL     1      23.246  46.708  49.730  1.00  0.00    -0.262 N 
HETATM   11  C   UNL     1      23.593  48.041  49.650  1.00  0.00     0.286 C 
HETATM   12  O   UNL     1      24.628  48.464  50.168  1.00  0.00    -0.264 OA
HETATM   13  H   UNL     1      22.454  46.300  49.240  1.00  0.00     0.190 HD
BRANCH  11  14
HETATM   14  C   UNL     1      22.679  48.892  48.924  1.00  0.00     0.102 A 
HETATM   15  N   UNL     1      22.464  50.200  49.305  1.00  0.00    -0.361 N 
HETATM   16  H   UNL     1      22.920  50.637  50.098  1.00  0.00     0.165 HD
HETATM   17  C   UNL     1      21.561  50.797  48.469  1.00  0.00     0.088 A 
HETATM   18  C   UNL     1      21.181  49.869  47.528  1.00  0.00     0.019 A 
HETATM   19  C   UNL     1      21.882  48.670  47.813  1.00  0.00     0.036 A 
ENDBRANCH  11  14
ENDBRANCH   7  10
ENDBRANCH   4   6
BRANCH   3  20
HETATM   20  C   UNL     1      26.110  41.906  48.889  1.00  0.00    -0.002 A 
HETATM   21  C   UNL     1      27.101  41.432  48.018  1.00  0.00     0.050 A 
HETATM   22  C   UNL     1      26.785  40.516  47.011  1.00  0.00     0.069 A 
HETATM   23  C   UNL     1      25.485  40.019  46.909  1.00  0.00     0.037 A 
HETATM   24  C   UNL     1      24.493  40.463  47.780  1.00  0.00     0.004 A 
HETATM   25  C   UNL     1      24.804  41.405  48.761  1.00  0.00     0.014 A 
BRANCH  22  26
HETATM   26  O   UNL     1      27.672  40.014  46.097  1.00  0.00    -0.356 OA
HETATM   27  C   UNL     1      27.313  38.761  45.521  1.00  0.00     0.210 C 
ENDBRANCH  22  26
ENDBRANCH   3  20
BRANCH   1  28
HETATM   28  C   UNL     1      28.386  43.607  52.771  1.00  0.00     0.058 A 
HETATM   29  C   UNL     1      28.142  44.408  53.895  1.00  0.00     0.032 A 
HETATM   30  C   UNL     1      29.041  44.418  54.966  1.00  0.00     0.009 A 
HETATM   31  C   UNL     1      30.200  43.636  54.926  1.00  0.00    -0.062 A 
HETATM   32  C   UNL     1      31.151  43.615  56.086  1.00  0.00     0.048 C 
HETATM   33  C   UNL     1      30.438  42.831  53.807  1.00  0.00     0.009 A 
HETATM   34  C   UNL     1      29.542  42.816  52.733  1.00  0.00     0.032 A 
ENDBRANCH   1  28
TORSDOF 6
ENDMDL
MODEL 10
REMARK VINA RESULT:      -8.7      2.403      3.532
REMARK  6 active torsions:
REMARK  status: ('A' for Active; 'I' for Inactive)
REMARK    1  A    between atoms: C_5  and  N_6 
REMARK    2  A    between atoms: C_8  and  C_9 
REMARK    3  A    between atoms: C_11  and  O_12 
REMARK    4  A    between atoms: C_17  and  C_18 
REMARK       I    between atoms: C_18  and  N_19 
REMARK    5  A    between atoms: N_19  and  N_20 
REMARK       I    between atoms: N_20  and  C_21 
REMARK    6  A    between atoms: C_21  and  C_22 
ROOT
HETATM    1  N   UNL     1      26.966  43.600  51.491  1.00  0.00    -0.244 N 
HETATM    2  N   UNL     1      26.638  42.516  50.761  1.00  0.00    -0.166 NA
HETATM    3  C   UNL     1      25.684  42.913  49.903  1.00  0.00     0.105 A 
HETATM    4  C   UNL     1      25.370  44.295  50.098  1.00  0.00     0.082 A 
HETATM    5  C   UNL     1      26.212  44.688  51.127  1.00  0.00     0.138 A 
ENDROOT
BRANCH   4   6
HETATM    6  C   UNL     1      24.385  45.138  49.432  1.00  0.00     0.274 C 
HETATM    7  N   UNL     1      23.750  46.047  50.260  1.00  0.00    -0.263 N 
HETATM    8  H   UNL     1      24.074  46.249  51.202  1.00  0.00     0.190 HD
HETATM    9  O   UNL     1      24.128  45.079  48.231  1.00  0.00    -0.266 OA
BRANCH   7  10
HETATM   10  N   UNL     1      22.924  47.025  49.684  1.00  0.00    -0.262 N 
HETATM   11  C   UNL     1      23.422  48.306  49.561  1.00  0.00     0.286 C 
HETATM   12  O   UNL     1      24.526  48.609  50.015  1.00  0.00    -0.264 OA
HETATM   13  H   UNL     1      22.064  46.708  49.246  1.00  0.00     0.190 HD
BRANCH  11  14
HETATM   14  C   UNL     1      22.576  49.250  48.868  1.00  0.00     0.102 A 
HETATM   15  N   UNL     1      22.508  50.571  49.260  1.00  0.00    -0.361 N 
HETATM   16  H   UNL     1      23.033  50.954  50.038  1.00  0.00     0.165 HD
HETATM   17  C   UNL     1      21.645  51.262  48.457  1.00  0.00     0.088 A 
HETATM   18  C   UNL     1      21.141  50.384  47.526  1.00  0.00     0.019 A 
HETATM   19  C   UNL     1      21.724  49.117  47.783  1.00  0.00     0.036 A 
ENDBRANCH  11  14
ENDBRANCH   7  10
ENDBRANCH   4   6
BRANCH   3  20
HETATM   20  C   UNL     1      25.143  41.935  48.948  1.00  0.00    -0.002 A 
HETATM   21  C   UNL     1      23.765  41.710  48.823  1.00  0.00     0.050 A 
HETATM   22  C   UNL     1      23.276  40.777  47.904  1.00  0.00     0.069 A 
HETATM   23  C   UNL     1      24.162  40.106  47.060  1.00  0.00     0.037 A 
HETATM   24  C   UNL     1      25.532  40.334  47.156  1.00  0.00     0.004 A 
HETATM   25  C   UNL     1      26.019  41.240  48.099  1.00  0.00     0.014 A 
BRANCH  22  26
HETATM   26  O   UNL     1      21.955  40.467  47.724  1.00  0.00    -0.356 OA
HETATM   27  C   UNL     1      21.478  40.580  46.387  1.00  0.00     0.210 C 
ENDBRANCH  22  26
ENDBRANCH   3  20
BRANCH   1  28
HETATM   28  C   UNL     1      27.980  43.533  52.490  1.00  0.00     0.058 A 
HETATM   29  C   UNL     1      27.835  44.277  53.669  1.00  0.00     0.032 A 
HETATM   30  C   UNL     1      28.811  44.218  54.668  1.00  0.00     0.009 A 
HETATM   31  C   UNL     1      29.949  43.421  54.502  1.00  0.00    -0.062 A 
HETATM   32  C   UNL     1      30.982  43.323  55.584  1.00  0.00     0.048 C 
HETATM   33  C   UNL     1      30.087  42.672  53.328  1.00  0.00     0.009 A 
HETATM   34  C   UNL     1      29.114  42.726  52.325  1.00  0.00     0.032 A 
ENDBRANCH   1  28
TORSDOF 6
ENDMDL
