MODEL 1
REMARK VINA RESULT:     -10.7      0.000      0.000
REMARK  7 active torsions:
REMARK  status: ('A' for Active; 'I' for Inactive)
REMARK    1  A    between atoms: C_7  and  C_8 
REMARK    2  A    between atoms: C_8  and  C_9 
REMARK    3  A    between atoms: C_9  and  N_10 
REMARK    4  A    between atoms: N_10  and  C_11 
REMARK    5  A    between atoms: C_11  and  N_12 
REMARK    6  A    between atoms: N_12  and  C_13 
REMARK    7  A    between atoms: C_30  and  C_31 
ROOT
HETATM    1  C   UNL     1      24.929  46.209  49.978  1.00  0.00     0.123 C 
HETATM    2  C   UNL     1      24.961  44.937  49.470  1.00  0.00     0.144 C 
HETATM    3  C   UNL     1      26.210  44.132  49.497  1.00  0.00     0.270 C 
HETATM    4  O   UNL     1      27.309  44.633  49.735  1.00  0.00    -0.267 OA
HETATM    5  N   UNL     1      26.060  42.786  49.215  1.00  0.00    -0.270 N 
HETATM    6  C   UNL     1      27.220  41.932  49.401  1.00  0.00     0.164 C 
HETATM    7  C   UNL     1      24.983  42.241  48.539  1.00  0.00     0.333 C 
HETATM    8  O   UNL     1      24.983  41.065  48.169  1.00  0.00    -0.246 OA
HETATM    9  N   UNL     1      23.910  43.080  48.298  1.00  0.00    -0.270 N 
HETATM   10  C   UNL     1      22.759  42.511  47.618  1.00  0.00     0.164 C 
HETATM   11  C   UNL     1      23.743  44.324  48.879  1.00  0.00     0.270 C 
HETATM   12  O   UNL     1      22.642  44.877  48.937  1.00  0.00    -0.267 OA
ENDROOT
BRANCH   1  13
HETATM   13  N   UNL     1      26.041  46.758  50.626  1.00  0.00    -0.375 N 
HETATM   14  H   UNL     1      26.925  46.305  50.372  1.00  0.00     0.161 HD
BRANCH  13  15
HETATM   15  C   UNL     1      26.005  47.263  52.000  1.00  0.00     0.126 C 
BRANCH  15  16
HETATM   16  C   UNL     1      25.783  46.140  53.023  1.00  0.00     0.061 C 
BRANCH  16  17
HETATM   17  C   UNL     1      26.985  45.864  53.884  1.00  0.00    -0.022 A 
HETATM   18  C   UNL     1      27.508  46.699  54.860  1.00  0.00     0.013 A 
HETATM   19  C   UNL     1      27.075  48.042  55.328  1.00  0.00     0.068 C 
HETATM   20  N   UNL     1      28.595  46.070  55.411  1.00  0.00    -0.358 N 
HETATM   21  H   UNL     1      29.173  46.451  56.151  1.00  0.00     0.166 HD
HETATM   22  C   UNL     1      28.815  44.852  54.806  1.00  0.00     0.058 A 
HETATM   23  C   UNL     1      27.825  44.702  53.835  1.00  0.00    -0.000 A 
HETATM   24  C   UNL     1      29.816  43.888  55.048  1.00  0.00     0.075 A 
HETATM   25  C   UNL     1      27.830  43.534  53.048  1.00  0.00     0.014 A 
HETATM   26  C   UNL     1      28.806  42.557  53.260  1.00  0.00     0.002 A 
HETATM   27  C   UNL     1      29.776  42.731  54.244  1.00  0.00     0.018 A 
BRANCH  24  28
HETATM   28  C   UNL     1      30.881  44.024  56.106  1.00  0.00     0.419 C 
HETATM   29  F   UNL     1      31.623  42.891  56.276  1.00  0.00    -0.166 F 
HETATM   30  F   UNL     1      31.775  45.011  55.822  1.00  0.00    -0.166 F 
HETATM   31  F   UNL     1      30.373  44.322  57.334  1.00  0.00    -0.166 F 
ENDBRANCH  24  28
ENDBRANCH  16  17
ENDBRANCH  15  16
ENDBRANCH  13  15
ENDBRANCH   1  13
BRANCH   1  32
HETATM   32  N   UNL     1      23.764  46.983  49.922  1.00  0.00    -0.342 N 
HETATM   33  H   UNL     1      22.920  46.410  49.790  1.00  0.00     0.167 HD
BRANCH  32  34
HETATM   34  C   UNL     1      23.603  48.175  49.165  1.00  0.00     0.033 A 
HETATM   35  C   UNL     1      24.651  49.051  48.855  1.00  0.00     0.029 A 
HETATM   36  C   UNL     1      24.417  50.224  48.131  1.00  0.00     0.002 A 
HETATM   37  C   UNL     1      23.127  50.546  47.717  1.00  0.00     0.000 A 
HETATM   38  C   UNL     1      22.070  49.697  48.030  1.00  0.00     0.002 A 
HETATM   39  C   UNL     1      22.307  48.525  48.754  1.00  0.00     0.029 A 
ENDBRANCH  32  34
ENDBRANCH   1  32
TORSDOF 7
ENDMDL
MODEL 2
REMARK VINA RESULT:     -10.6      2.312      3.478
REMARK  7 active torsions:
REMARK  status: ('A' for Active; 'I' for Inactive)
REMARK    1  A    between atoms: C_7  and  C_8 
REMARK    2  A    between atoms: C_8  and  C_9 
REMARK    3  A    between atoms: C_9  and  N_10 
REMARK    4  A    between atoms: N_10  and  C_11 
REMARK    5  A    between atoms: C_11  and  N_12 
REMARK    6  A    between atoms: N_12  and  C_13 
REMARK    7  A    between atoms: C_30  and  C_31 
ROOT
HETATM    1  C   UNL     1      26.197  42.929  51.153  1.00  0.00     0.123 C 
HETATM    2  C   UNL     1      26.929  42.004  50.457  1.00  0.00     0.144 C 
HETATM    3  C   UNL     1      27.943  41.157  51.138  1.00  0.00     0.270 C 
HETATM    4  O   UNL     1      28.349  41.406  52.273  1.00  0.00    -0.267 OA
HETATM    5  N   UNL     1      28.417  40.085  50.405  1.00  0.00    -0.270 N 
HETATM    6  C   UNL     1      29.274  39.134  51.090  1.00  0.00     0.164 C 
HETATM    7  C   UNL     1      28.347  39.985  49.026  1.00  0.00     0.333 C 
HETATM    8  O   UNL     1      28.934  39.089  48.415  1.00  0.00    -0.246 OA
HETATM    9  N   UNL     1      27.590  40.938  48.370  1.00  0.00    -0.270 N 
HETATM   10  C   UNL     1      27.481  40.825  46.926  1.00  0.00     0.164 C 
HETATM   11  C   UNL     1      26.726  41.818  48.996  1.00  0.00     0.270 C 
HETATM   12  O   UNL     1      25.818  42.389  48.386  1.00  0.00    -0.267 OA
ENDROOT
BRANCH   1  13
HETATM   13  N   UNL     1      26.309  43.042  52.544  1.00  0.00    -0.375 N 
HETATM   14  H   UNL     1      26.111  42.167  53.040  1.00  0.00     0.161 HD
BRANCH  13  15
HETATM   15  C   UNL     1      25.931  44.246  53.287  1.00  0.00     0.126 C 
BRANCH  15  16
HETATM   16  C   UNL     1      26.988  45.354  53.167  1.00  0.00     0.061 C 
BRANCH  16  17
HETATM   17  C   UNL     1      27.772  45.578  54.431  1.00  0.00    -0.022 A 
HETATM   18  C   UNL     1      27.579  46.598  55.350  1.00  0.00     0.013 A 
HETATM   19  C   UNL     1      26.602  47.718  55.372  1.00  0.00     0.068 C 
HETATM   20  N   UNL     1      28.496  46.434  56.356  1.00  0.00    -0.358 N 
HETATM   21  H   UNL     1      28.584  47.038  57.165  1.00  0.00     0.166 HD
HETATM   22  C   UNL     1      29.304  45.346  56.111  1.00  0.00     0.058 A 
HETATM   23  C   UNL     1      28.879  44.795  54.902  1.00  0.00    -0.000 A 
HETATM   24  C   UNL     1      30.373  44.822  56.867  1.00  0.00     0.075 A 
HETATM   25  C   UNL     1      29.557  43.666  54.404  1.00  0.00     0.014 A 
HETATM   26  C   UNL     1      30.621  43.120  55.127  1.00  0.00     0.002 A 
HETATM   27  C   UNL     1      31.016  43.685  56.336  1.00  0.00     0.018 A 
BRANCH  24  28
HETATM   28  C   UNL     1      30.833  45.391  58.185  1.00  0.00     0.419 C 
HETATM   29  F   UNL     1      31.077  46.734  58.138  1.00  0.00    -0.166 F 
HETATM   30  F   UNL     1      29.916  45.217  59.177  1.00  0.00    -0.166 F 
HETATM   31  F   UNL     1      31.985  44.821  58.636  1.00  0.00    -0.166 F 
ENDBRANCH  24  28
ENDBRANCH  16  17
ENDBRANCH  15  16
ENDBRANCH  13  15
ENDBRANCH   1  13
BRANCH   1  32
HETATM   32  N   UNL     1      25.267  43.753  50.508  1.00  0.00    -0.342 N 
HETATM   33  H   UNL     1      24.899  43.328  49.648  1.00  0.00     0.167 HD
BRANCH  32  34
HETATM   34  C   UNL     1      25.425  45.146  50.273  1.00  0.00     0.033 A 
HETATM   35  C   UNL     1      24.400  46.086  50.431  1.00  0.00     0.029 A 
HETATM   36  C   UNL     1      24.617  47.440  50.151  1.00  0.00     0.002 A 
HETATM   37  C   UNL     1      25.860  47.870  49.696  1.00  0.00     0.000 A 
HETATM   38  C   UNL     1      26.886  46.948  49.515  1.00  0.00     0.002 A 
HETATM   39  C   UNL     1      26.667  45.596  49.796  1.00  0.00     0.029 A 
ENDBRANCH  32  34
ENDBRANCH   1  32
TORSDOF 7
ENDMDL
MODEL 3
REMARK VINA RESULT:     -10.2      1.639      2.231
REMARK  7 active torsions:
REMARK  status: ('A' for Active; 'I' for Inactive)
REMARK    1  A    between atoms: C_7  and  C_8 
REMARK    2  A    between atoms: C_8  and  C_9 
REMARK    3  A    between atoms: C_9  and  N_10 
REMARK    4  A    between atoms: N_10  and  C_11 
REMARK    5  A    between atoms: C_11  and  N_12 
REMARK    6  A    between atoms: N_12  and  C_13 
REMARK    7  A    between atoms: C_30  and  C_31 
ROOT
HETATM    1  C   UNL     1      25.209  44.204  50.865  1.00  0.00     0.123 C 
HETATM    2  C   UNL     1      25.222  43.120  50.028  1.00  0.00     0.144 C 
HETATM    3  C   UNL     1      26.055  41.927  50.330  1.00  0.00     0.270 C 
HETATM    4  O   UNL     1      26.943  41.946  51.183  1.00  0.00    -0.267 OA
HETATM    5  N   UNL     1      25.784  40.800  49.576  1.00  0.00    -0.270 N 
HETATM    6  C   UNL     1      26.450  39.566  49.954  1.00  0.00     0.164 C 
HETATM    7  C   UNL     1      25.135  40.812  48.354  1.00  0.00     0.333 C 
HETATM    8  O   UNL     1      25.070  39.802  47.649  1.00  0.00    -0.246 OA
HETATM    9  N   UNL     1      24.566  42.011  47.963  1.00  0.00    -0.270 N 
HETATM   10  C   UNL     1      23.853  42.028  46.696  1.00  0.00     0.164 C 
HETATM   11  C   UNL     1      24.397  43.105  48.791  1.00  0.00     0.270 C 
HETATM   12  O   UNL     1      23.585  43.998  48.539  1.00  0.00    -0.267 OA
ENDROOT
BRANCH   1  13
HETATM   13  N   UNL     1      25.903  44.188  52.080  1.00  0.00    -0.375 N 
HETATM   14  H   UNL     1      26.205  43.251  52.365  1.00  0.00     0.161 HD
BRANCH  13  15
HETATM   15  C   UNL     1      25.585  45.076  53.200  1.00  0.00     0.126 C 
BRANCH  15  16
HETATM   16  C   UNL     1      26.547  46.271  53.282  1.00  0.00     0.061 C 
BRANCH  16  17
HETATM   17  C   UNL     1      27.418  46.260  54.508  1.00  0.00    -0.022 A 
HETATM   18  C   UNL     1      27.366  47.159  55.562  1.00  0.00     0.013 A 
HETATM   19  C   UNL     1      26.492  48.339  55.795  1.00  0.00     0.068 C 
HETATM   20  N   UNL     1      28.322  46.790  56.474  1.00  0.00    -0.358 N 
HETATM   21  H   UNL     1      28.508  47.272  57.346  1.00  0.00     0.166 HD
HETATM   22  C   UNL     1      29.017  45.686  56.035  1.00  0.00     0.058 A 
HETATM   23  C   UNL     1      28.479  45.338  54.796  1.00  0.00    -0.000 A 
HETATM   24  C   UNL     1      30.079  44.983  56.643  1.00  0.00     0.075 A 
HETATM   25  C   UNL     1      29.028  44.236  54.112  1.00  0.00     0.014 A 
HETATM   26  C   UNL     1      30.080  43.517  54.684  1.00  0.00     0.002 A 
HETATM   27  C   UNL     1      30.591  43.882  55.926  1.00  0.00     0.018 A 
BRANCH  24  28
HETATM   28  C   UNL     1      30.661  45.332  57.989  1.00  0.00     0.419 C 
HETATM   29  F   UNL     1      31.045  46.638  58.090  1.00  0.00    -0.166 F 
HETATM   30  F   UNL     1      29.780  45.127  59.007  1.00  0.00    -0.166 F 
HETATM   31  F   UNL     1      31.765  44.596  58.296  1.00  0.00    -0.166 F 
ENDBRANCH  24  28
ENDBRANCH  16  17
ENDBRANCH  15  16
ENDBRANCH  13  15
ENDBRANCH   1  13
BRANCH   1  32
HETATM   32  N   UNL     1      24.453  45.343  50.565  1.00  0.00    -0.342 N 
HETATM   33  H   UNL     1      23.584  45.115  50.066  1.00  0.00     0.167 HD
BRANCH  32  34
HETATM   34  C   UNL     1      24.966  46.550  50.015  1.00  0.00     0.033 A 
HETATM   35  C   UNL     1      26.331  46.829  49.880  1.00  0.00     0.029 A 
HETATM   36  C   UNL     1      26.768  48.051  49.359  1.00  0.00     0.002 A 
HETATM   37  C   UNL     1      25.843  49.019  48.977  1.00  0.00     0.000 A 
HETATM   38  C   UNL     1      24.481  48.768  49.120  1.00  0.00     0.002 A 
HETATM   39  C   UNL     1      24.048  47.545  49.641  1.00  0.00     0.029 A 
ENDBRANCH  32  34
ENDBRANCH   1  32
TORSDOF 7
ENDMDL
MODEL 4
REMARK VINA RESULT:     -10.2      1.858      4.562
REMARK  7 active torsions:
REMARK  status: ('A' for Active; 'I' for Inactive)
REMARK    1  A    between atoms: C_7  and  C_8 
REMARK    2  A    between atoms: C_8  and  C_9 
REMARK    3  A    between atoms: C_9  and  N_10 
REMARK    4  A    between atoms: N_10  and  C_11 
REMARK    5  A    between atoms: C_11  and  N_12 
REMARK    6  A    between atoms: N_12  and  C_13 
REMARK    7  A    between atoms: C_30  and  C_31 
ROOT
HETATM    1  C   UNL     1      25.067  46.034  50.333  1.00  0.00     0.123 C 
HETATM    2  C   UNL     1      24.824  47.212  49.679  1.00  0.00     0.144 C 
HETATM    3  C   UNL     1      25.872  48.260  49.569  1.00  0.00     0.270 C 
HETATM    4  O   UNL     1      26.896  48.238  50.253  1.00  0.00    -0.267 OA
HETATM    5  N   UNL     1      25.612  49.274  48.665  1.00  0.00    -0.270 N 
HETATM    6  C   UNL     1      26.681  50.221  48.399  1.00  0.00     0.164 C 
HETATM    7  C   UNL     1      24.353  49.602  48.194  1.00  0.00     0.333 C 
HETATM    8  O   UNL     1      24.161  50.619  47.524  1.00  0.00    -0.246 OA
HETATM    9  N   UNL     1      23.324  48.736  48.514  1.00  0.00    -0.270 N 
HETATM   10  C   UNL     1      22.002  49.051  47.998  1.00  0.00     0.164 C 
HETATM   11  C   UNL     1      23.500  47.475  49.054  1.00  0.00     0.270 C 
HETATM   12  O   UNL     1      22.626  46.607  48.990  1.00  0.00    -0.267 OA
ENDROOT
BRANCH   1  13
HETATM   13  N   UNL     1      26.339  45.735  50.836  1.00  0.00    -0.375 N 
HETATM   14  H   UNL     1      26.958  45.298  50.145  1.00  0.00     0.161 HD
BRANCH  13  15
HETATM   15  C   UNL     1      26.577  45.293  52.212  1.00  0.00     0.126 C 
BRANCH  15  16
HETATM   16  C   UNL     1      26.319  46.412  53.231  1.00  0.00     0.061 C 
BRANCH  16  17
HETATM   17  C   UNL     1      27.230  46.361  54.426  1.00  0.00    -0.022 A 
HETATM   18  C   UNL     1      27.245  47.251  55.490  1.00  0.00     0.013 A 
HETATM   19  C   UNL     1      26.420  48.457  55.762  1.00  0.00     0.068 C 
HETATM   20  N   UNL     1      28.218  46.841  56.365  1.00  0.00    -0.358 N 
HETATM   21  H   UNL     1      28.449  47.307  57.234  1.00  0.00     0.166 HD
HETATM   22  C   UNL     1      28.860  45.718  55.893  1.00  0.00     0.058 A 
HETATM   23  C   UNL     1      28.268  45.401  54.671  1.00  0.00    -0.000 A 
HETATM   24  C   UNL     1      29.918  44.974  56.458  1.00  0.00     0.075 A 
HETATM   25  C   UNL     1      28.756  44.288  53.958  1.00  0.00     0.014 A 
HETATM   26  C   UNL     1      29.802  43.528  54.488  1.00  0.00     0.002 A 
HETATM   27  C   UNL     1      30.367  43.863  55.715  1.00  0.00     0.018 A 
BRANCH  24  28
HETATM   28  C   UNL     1      30.556  45.290  57.787  1.00  0.00     0.419 C 
HETATM   29  F   UNL     1      29.707  45.137  58.845  1.00  0.00    -0.166 F 
HETATM   30  F   UNL     1      31.626  44.492  58.054  1.00  0.00    -0.166 F 
HETATM   31  F   UNL     1      31.015  46.570  57.862  1.00  0.00    -0.166 F 
ENDBRANCH  24  28
ENDBRANCH  16  17
ENDBRANCH  15  16
ENDBRANCH  13  15
ENDBRANCH   1  13
BRANCH   1  32
HETATM   32  N   UNL     1      24.071  45.059  50.468  1.00  0.00    -0.342 N 
HETATM   33  H   UNL     1      23.787  44.925  51.447  1.00  0.00     0.167 HD
BRANCH  32  34
HETATM   34  C   UNL     1      24.075  43.786  49.836  1.00  0.00     0.033 A 
HETATM   35  C   UNL     1      25.230  43.151  49.365  1.00  0.00     0.029 A 
HETATM   36  C   UNL     1      25.158  41.910  48.724  1.00  0.00     0.002 A 
HETATM   37  C   UNL     1      23.925  41.291  48.534  1.00  0.00     0.000 A 
HETATM   38  C   UNL     1      22.763  41.915  48.979  1.00  0.00     0.002 A 
HETATM   39  C   UNL     1      22.839  43.155  49.619  1.00  0.00     0.029 A 
ENDBRANCH  32  34
ENDBRANCH   1  32
TORSDOF 7
ENDMDL
MODEL 5
REMARK VINA RESULT:     -10.0      1.629      2.390
REMARK  7 active torsions:
REMARK  status: ('A' for Active; 'I' for Inactive)
REMARK    1  A    between atoms: C_7  and  C_8 
REMARK    2  A    between atoms: C_8  and  C_9 
REMARK    3  A    between atoms: C_9  and  N_10 
REMARK    4  A    between atoms: N_10  and  C_11 
REMARK    5  A    between atoms: C_11  and  N_12 
REMARK    6  A    between atoms: N_12  and  C_13 
REMARK    7  A    between atoms: C_30  and  C_31 
ROOT
HETATM    1  C   UNL     1      24.659  45.759  50.161  1.00  0.00     0.123 C 
HETATM    2  C   UNL     1      23.934  44.955  49.323  1.00  0.00     0.144 C 
HETATM    3  C   UNL     1      24.212  43.498  49.226  1.00  0.00     0.270 C 
HETATM    4  O   UNL     1      25.238  42.994  49.684  1.00  0.00    -0.267 OA
HETATM    5  N   UNL     1      23.254  42.748  48.569  1.00  0.00    -0.270 N 
HETATM    6  C   UNL     1      23.397  41.303  48.603  1.00  0.00     0.164 C 
HETATM    7  C   UNL     1      22.326  43.264  47.682  1.00  0.00     0.333 C 
HETATM    8  O   UNL     1      21.609  42.529  46.999  1.00  0.00    -0.246 OA
HETATM    9  N   UNL     1      22.245  44.643  47.598  1.00  0.00    -0.270 N 
HETATM   10  C   UNL     1      21.251  45.198  46.694  1.00  0.00     0.164 C 
HETATM   11  C   UNL     1      22.840  45.518  48.487  1.00  0.00     0.270 C 
HETATM   12  O   UNL     1      22.465  46.687  48.606  1.00  0.00    -0.267 OA
ENDROOT
BRANCH   1  13
HETATM   13  N   UNL     1      25.621  45.223  51.025  1.00  0.00    -0.375 N 
HETATM   14  H   UNL     1      26.021  44.340  50.692  1.00  0.00     0.161 HD
BRANCH  13  15
HETATM   15  C   UNL     1      25.541  45.328  52.484  1.00  0.00     0.126 C 
BRANCH  15  16
HETATM   16  C   UNL     1      26.084  46.669  52.998  1.00  0.00     0.061 C 
BRANCH  16  17
HETATM   17  C   UNL     1      27.010  46.532  54.175  1.00  0.00    -0.022 A 
HETATM   18  C   UNL     1      27.072  47.373  55.276  1.00  0.00     0.013 A 
HETATM   19  C   UNL     1      26.295  48.594  55.614  1.00  0.00     0.068 C 
HETATM   20  N   UNL     1      28.043  46.891  56.116  1.00  0.00    -0.358 N 
HETATM   21  H   UNL     1      28.304  47.310  57.001  1.00  0.00     0.166 HD
HETATM   22  C   UNL     1      28.638  45.768  55.585  1.00  0.00     0.058 A 
HETATM   23  C   UNL     1      28.017  45.526  54.360  1.00  0.00    -0.000 A 
HETATM   24  C   UNL     1      29.676  44.963  56.100  1.00  0.00     0.075 A 
HETATM   25  C   UNL     1      28.454  44.430  53.592  1.00  0.00     0.014 A 
HETATM   26  C   UNL     1      29.480  43.611  54.070  1.00  0.00     0.002 A 
HETATM   27  C   UNL     1      30.074  43.872  55.301  1.00  0.00     0.018 A 
BRANCH  24  28
HETATM   28  C   UNL     1      30.345  45.198  57.430  1.00  0.00     0.419 C 
HETATM   29  F   UNL     1      31.010  46.388  57.499  1.00  0.00    -0.166 F 
HETATM   30  F   UNL     1      29.459  45.210  58.464  1.00  0.00    -0.166 F 
HETATM   31  F   UNL     1      31.265  44.241  57.737  1.00  0.00    -0.166 F 
ENDBRANCH  24  28
ENDBRANCH  16  17
ENDBRANCH  15  16
ENDBRANCH  13  15
ENDBRANCH   1  13
BRANCH   1  32
HETATM   32  N   UNL     1      24.423  47.137  50.229  1.00  0.00    -0.342 N 
HETATM   33  H   UNL     1      23.436  47.373  50.065  1.00  0.00     0.167 HD
BRANCH  32  34
HETATM   34  C   UNL     1      25.218  48.140  49.609  1.00  0.00     0.033 A 
HETATM   35  C   UNL     1      24.698  49.175  48.824  1.00  0.00     0.029 A 
HETATM   36  C   UNL     1      25.541  50.111  48.217  1.00  0.00     0.002 A 
HETATM   37  C   UNL     1      26.921  50.017  48.378  1.00  0.00     0.000 A 
HETATM   38  C   UNL     1      27.459  48.985  49.141  1.00  0.00     0.002 A 
HETATM   39  C   UNL     1      26.613  48.051  49.746  1.00  0.00     0.029 A 
ENDBRANCH  32  34
ENDBRANCH   1  32
TORSDOF 7
ENDMDL
MODEL 6
REMARK VINA RESULT:      -9.8      1.092      2.077
REMARK  7 active torsions:
REMARK  status: ('A' for Active; 'I' for Inactive)
REMARK    1  A    between atoms: C_7  and  C_8 
REMARK    2  A    between atoms: C_8  and  C_9 
REMARK    3  A    between atoms: C_9  and  N_10 
REMARK    4  A    between atoms: N_10  and  C_11 
REMARK    5  A    between atoms: C_11  and  N_12 
REMARK    6  A    between atoms: N_12  and  C_13 
REMARK    7  A    between atoms: C_30  and  C_31 
ROOT
HETATM    1  C   UNL     1      24.796  45.834  49.853  1.00  0.00     0.123 C 
HETATM    2  C   UNL     1      24.646  44.659  49.167  1.00  0.00     0.144 C 
HETATM    3  C   UNL     1      25.762  43.683  49.063  1.00  0.00     0.270 C 
HETATM    4  O   UNL     1      26.920  43.977  49.359  1.00  0.00    -0.267 OA
HETATM    5  N   UNL     1      25.419  42.429  48.591  1.00  0.00    -0.270 N 
HETATM    6  C   UNL     1      26.438  41.396  48.638  1.00  0.00     0.164 C 
HETATM    7  C   UNL     1      24.280  42.152  47.855  1.00  0.00     0.333 C 
HETATM    8  O   UNL     1      24.111  41.055  47.319  1.00  0.00    -0.246 OA
HETATM    9  N   UNL     1      23.345  43.166  47.750  1.00  0.00    -0.270 N 
HETATM   10  C   UNL     1      22.130  42.877  47.008  1.00  0.00     0.164 C 
HETATM   11  C   UNL     1      23.356  44.323  48.507  1.00  0.00     0.270 C 
HETATM   12  O   UNL     1      22.348  45.018  48.656  1.00  0.00    -0.267 OA
ENDROOT
BRANCH   1  13
HETATM   13  N   UNL     1      25.970  46.114  50.562  1.00  0.00    -0.375 N 
HETATM   14  H   UNL     1      26.789  45.609  50.207  1.00  0.00     0.161 HD
BRANCH  13  15
HETATM   15  C   UNL     1      26.001  46.359  52.005  1.00  0.00     0.126 C 
BRANCH  15  16
HETATM   16  C   UNL     1      25.716  45.086  52.814  1.00  0.00     0.061 C 
BRANCH  16  17
HETATM   17  C   UNL     1      26.947  44.468  53.419  1.00  0.00    -0.022 A 
HETATM   18  C   UNL     1      27.472  43.219  53.122  1.00  0.00     0.013 A 
HETATM   19  C   UNL     1      27.012  42.168  52.178  1.00  0.00     0.068 C 
HETATM   20  N   UNL     1      28.598  43.047  53.886  1.00  0.00    -0.358 N 
HETATM   21  H   UNL     1      29.186  42.222  53.874  1.00  0.00     0.166 HD
HETATM   22  C   UNL     1      28.814  44.141  54.695  1.00  0.00     0.058 A 
HETATM   23  C   UNL     1      27.785  45.044  54.431  1.00  0.00    -0.000 A 
HETATM   24  C   UNL     1      29.837  44.384  55.636  1.00  0.00     0.075 A 
HETATM   25  C   UNL     1      27.759  46.258  55.146  1.00  0.00     0.014 A 
HETATM   26  C   UNL     1      28.756  46.532  56.085  1.00  0.00     0.002 A 
HETATM   27  C   UNL     1      29.776  45.615  56.320  1.00  0.00     0.018 A 
BRANCH  24  28
HETATM   28  C   UNL     1      30.967  43.427  55.920  1.00  0.00     0.419 C 
HETATM   29  F   UNL     1      32.068  44.034  56.454  1.00  0.00    -0.166 F 
HETATM   30  F   UNL     1      30.617  42.455  56.806  1.00  0.00    -0.166 F 
HETATM   31  F   UNL     1      31.405  42.779  54.805  1.00  0.00    -0.166 F 
ENDBRANCH  24  28
ENDBRANCH  16  17
ENDBRANCH  15  16
ENDBRANCH  13  15
ENDBRANCH   1  13
BRANCH   1  32
HETATM   32  N   UNL     1      23.758  46.771  49.923  1.00  0.00    -0.342 N 
HETATM   33  H   UNL     1      22.831  46.333  49.848  1.00  0.00     0.167 HD
BRANCH  32  34
HETATM   34  C   UNL     1      23.715  48.006  49.220  1.00  0.00     0.033 A 
HETATM   35  C   UNL     1      24.834  48.816  48.995  1.00  0.00     0.029 A 
HETATM   36  C   UNL     1      24.716  50.036  48.321  1.00  0.00     0.002 A 
HETATM   37  C   UNL     1      23.471  50.469  47.873  1.00  0.00     0.000 A 
HETATM   38  C   UNL     1      22.344  49.687  48.102  1.00  0.00     0.002 A 
HETATM   39  C   UNL     1      22.465  48.468  48.776  1.00  0.00     0.029 A 
ENDBRANCH  32  34
ENDBRANCH   1  32
TORSDOF 7
ENDMDL
MODEL 7
REMARK VINA RESULT:      -9.7      2.706      5.478
REMARK  7 active torsions:
REMARK  status: ('A' for Active; 'I' for Inactive)
REMARK    1  A    between atoms: C_7  and  C_8 
REMARK    2  A    between atoms: C_8  and  C_9 
REMARK    3  A    between atoms: C_9  and  N_10 
REMARK    4  A    between atoms: N_10  and  C_11 
REMARK    5  A    between atoms: C_11  and  N_12 
REMARK    6  A    between atoms: N_12  and  C_13 
REMARK    7  A    between atoms: C_30  and  C_31 
ROOT
HETATM    1  C   UNL     1      22.762  47.364  49.165  1.00  0.00     0.123 C 
HETATM    2  C   UNL     1      21.670  48.007  48.648  1.00  0.00     0.144 C 
HETATM    3  C   UNL     1      20.707  47.298  47.766  1.00  0.00     0.270 C 
HETATM    4  O   UNL     1      20.962  46.203  47.262  1.00  0.00    -0.267 OA
HETATM    5  N   UNL     1      19.514  47.956  47.529  1.00  0.00    -0.270 N 
HETATM    6  C   UNL     1      18.478  47.227  46.820  1.00  0.00     0.164 C 
HETATM    7  C   UNL     1      19.323  49.317  47.689  1.00  0.00     0.333 C 
HETATM    8  O   UNL     1      18.293  49.873  47.304  1.00  0.00    -0.246 OA
HETATM    9  N   UNL     1      20.346  50.021  48.299  1.00  0.00    -0.270 N 
HETATM   10  C   UNL     1      20.146  51.446  48.502  1.00  0.00     0.164 C 
HETATM   11  C   UNL     1      21.413  49.439  48.958  1.00  0.00     0.270 C 
HETATM   12  O   UNL     1      22.091  50.058  49.781  1.00  0.00    -0.267 OA
ENDROOT
BRANCH   1  13
HETATM   13  N   UNL     1      22.958  45.993  48.962  1.00  0.00    -0.375 N 
HETATM   14  H   UNL     1      22.095  45.444  49.031  1.00  0.00     0.161 HD
BRANCH  13  15
HETATM   15  C   UNL     1      24.156  45.276  49.403  1.00  0.00     0.126 C 
BRANCH  15  16
HETATM   16  C   UNL     1      23.958  44.607  50.771  1.00  0.00     0.061 C 
BRANCH  16  17
HETATM   17  C   UNL     1      25.224  44.037  51.351  1.00  0.00    -0.022 A 
HETATM   18  C   UNL     1      25.804  42.821  51.025  1.00  0.00     0.013 A 
HETATM   19  C   UNL     1      25.383  41.767  50.065  1.00  0.00     0.068 C 
HETATM   20  N   UNL     1      26.945  42.687  51.774  1.00  0.00    -0.358 N 
HETATM   21  H   UNL     1      27.571  41.891  51.740  1.00  0.00     0.166 HD
HETATM   22  C   UNL     1      27.118  43.774  52.602  1.00  0.00     0.058 A 
HETATM   23  C   UNL     1      26.045  44.633  52.366  1.00  0.00    -0.000 A 
HETATM   24  C   UNL     1      28.138  44.047  53.537  1.00  0.00     0.075 A 
HETATM   25  C   UNL     1      25.969  45.829  53.105  1.00  0.00     0.014 A 
HETATM   26  C   UNL     1      26.961  46.133  54.040  1.00  0.00     0.002 A 
HETATM   27  C   UNL     1      28.026  45.260  54.247  1.00  0.00     0.018 A 
BRANCH  24  28
HETATM   28  C   UNL     1      29.315  43.141  53.791  1.00  0.00     0.419 C 
HETATM   29  F   UNL     1      30.140  43.590  54.782  1.00  0.00    -0.166 F 
HETATM   30  F   UNL     1      28.937  41.888  54.166  1.00  0.00    -0.166 F 
HETATM   31  F   UNL     1      30.107  42.980  52.695  1.00  0.00    -0.166 F 
ENDBRANCH  24  28
ENDBRANCH  16  17
ENDBRANCH  15  16
ENDBRANCH  13  15
ENDBRANCH   1  13
BRANCH   1  32
HETATM   32  N   UNL     1      23.690  48.039  49.968  1.00  0.00    -0.342 N 
HETATM   33  H   UNL     1      23.263  48.815  50.489  1.00  0.00     0.167 HD
BRANCH  32  34
HETATM   34  C   UNL     1      24.986  48.451  49.557  1.00  0.00     0.033 A 
HETATM   35  C   UNL     1      26.174  47.955  50.106  1.00  0.00     0.029 A 
HETATM   36  C   UNL     1      27.419  48.428  49.677  1.00  0.00     0.002 A 
HETATM   37  C   UNL     1      27.491  49.415  48.698  1.00  0.00     0.000 A 
HETATM   38  C   UNL     1      26.321  49.934  48.152  1.00  0.00     0.002 A 
HETATM   39  C   UNL     1      25.079  49.459  48.584  1.00  0.00     0.029 A 
ENDBRANCH  32  34
ENDBRANCH   1  32
TORSDOF 7
ENDMDL
MODEL 8
REMARK VINA RESULT:      -9.6      1.814      4.764
REMARK  7 active torsions:
REMARK  status: ('A' for Active; 'I' for Inactive)
REMARK    1  A    between atoms: C_7  and  C_8 
REMARK    2  A    between atoms: C_8  and  C_9 
REMARK    3  A    between atoms: C_9  and  N_10 
REMARK    4  A    between atoms: N_10  and  C_11 
REMARK    5  A    between atoms: C_11  and  N_12 
REMARK    6  A    between atoms: N_12  and  C_13 
REMARK    7  A    between atoms: C_30  and  C_31 
ROOT
HETATM    1  C   UNL     1      24.668  45.030  50.450  1.00  0.00     0.123 C 
HETATM    2  C   UNL     1      23.907  45.894  49.709  1.00  0.00     0.144 C 
HETATM    3  C   UNL     1      24.145  47.360  49.757  1.00  0.00     0.270 C 
HETATM    4  O   UNL     1      24.844  47.884  50.625  1.00  0.00    -0.267 OA
HETATM    5  N   UNL     1      23.513  48.101  48.775  1.00  0.00    -0.270 N 
HETATM    6  C   UNL     1      23.855  49.509  48.677  1.00  0.00     0.164 C 
HETATM    7  C   UNL     1      22.411  47.673  48.056  1.00  0.00     0.333 C 
HETATM    8  O   UNL     1      21.787  48.437  47.316  1.00  0.00    -0.246 OA
HETATM    9  N   UNL     1      22.043  46.349  48.211  1.00  0.00    -0.270 N 
HETATM   10  C   UNL     1      20.907  45.878  47.437  1.00  0.00     0.164 C 
HETATM   11  C   UNL     1      22.820  45.387  48.831  1.00  0.00     0.270 C 
HETATM   12  O   UNL     1      22.646  44.181  48.639  1.00  0.00    -0.267 OA
ENDROOT
BRANCH   1  13
HETATM   13  N   UNL     1      25.757  45.486  51.202  1.00  0.00    -0.375 N 
HETATM   14  H   UNL     1      26.606  45.626  50.645  1.00  0.00     0.161 HD
BRANCH  13  15
HETATM   15  C   UNL     1      26.013  45.072  52.583  1.00  0.00     0.126 C 
BRANCH  15  16
HETATM   16  C   UNL     1      27.451  44.571  52.779  1.00  0.00     0.061 C 
BRANCH  16  17
HETATM   17  C   UNL     1      28.058  44.981  54.093  1.00  0.00    -0.022 A 
HETATM   18  C   UNL     1      27.665  46.051  54.883  1.00  0.00     0.013 A 
HETATM   19  C   UNL     1      26.593  47.063  54.690  1.00  0.00     0.068 C 
HETATM   20  N   UNL     1      28.470  46.070  55.993  1.00  0.00    -0.358 N 
HETATM   21  H   UNL     1      28.406  46.747  56.744  1.00  0.00     0.166 HD
HETATM   22  C   UNL     1      29.397  45.053  55.943  1.00  0.00     0.058 A 
HETATM   23  C   UNL     1      29.170  44.360  54.754  1.00  0.00    -0.000 A 
HETATM   24  C   UNL     1      30.415  44.708  56.858  1.00  0.00     0.075 A 
HETATM   25  C   UNL     1      30.003  43.267  54.445  1.00  0.00     0.014 A 
HETATM   26  C   UNL     1      31.020  42.897  55.327  1.00  0.00     0.002 A 
HETATM   27  C   UNL     1      31.217  43.602  56.512  1.00  0.00     0.018 A 
BRANCH  24  28
HETATM   28  C   UNL     1      30.663  45.433  58.156  1.00  0.00     0.419 C 
HETATM   29  F   UNL     1      31.766  44.984  58.824  1.00  0.00    -0.166 F 
HETATM   30  F   UNL     1      30.858  46.769  57.979  1.00  0.00    -0.166 F 
HETATM   31  F   UNL     1      29.626  45.319  59.033  1.00  0.00    -0.166 F 
ENDBRANCH  24  28
ENDBRANCH  16  17
ENDBRANCH  15  16
ENDBRANCH  13  15
ENDBRANCH   1  13
BRANCH   1  32
HETATM   32  N   UNL     1      24.423  43.651  50.435  1.00  0.00    -0.342 N 
HETATM   33  H   UNL     1      23.882  43.342  51.253  1.00  0.00     0.167 HD
BRANCH  32  34
HETATM   34  C   UNL     1      25.388  42.648  50.146  1.00  0.00     0.033 A 
HETATM   35  C   UNL     1      25.651  41.554  50.980  1.00  0.00     0.029 A 
HETATM   36  C   UNL     1      26.637  40.619  50.649  1.00  0.00     0.002 A 
HETATM   37  C   UNL     1      27.384  40.772  49.485  1.00  0.00     0.000 A 
HETATM   38  C   UNL     1      27.150  41.862  48.652  1.00  0.00     0.002 A 
HETATM   39  C   UNL     1      26.163  42.795  48.985  1.00  0.00     0.029 A 
ENDBRANCH  32  34
ENDBRANCH   1  32
TORSDOF 7
ENDMDL
MODEL 9
REMARK VINA RESULT:      -9.5      1.984      4.854
REMARK  7 active torsions:
REMARK  status: ('A' for Active; 'I' for Inactive)
REMARK    1  A    between atoms: C_7  and  C_8 
REMARK    2  A    between atoms: C_8  and  C_9 
REMARK    3  A    between atoms: C_9  and  N_10 
REMARK    4  A    between atoms: N_10  and  C_11 
REMARK    5  A    between atoms: C_11  and  N_12 
REMARK    6  A    between atoms: N_12  and  C_13 
REMARK    7  A    between atoms: C_30  and  C_31 
ROOT
HETATM    1  C   UNL     1      24.614  46.072  50.030  1.00  0.00     0.123 C 
HETATM    2  C   UNL     1      24.494  47.313  49.464  1.00  0.00     0.144 C 
HETATM    3  C   UNL     1      25.647  48.249  49.412  1.00  0.00     0.270 C 
HETATM    4  O   UNL     1      26.668  48.069  50.077  1.00  0.00    -0.267 OA
HETATM    5  N   UNL     1      25.492  49.346  48.585  1.00  0.00    -0.270 N 
HETATM    6  C   UNL     1      26.654  50.190  48.370  1.00  0.00     0.164 C 
HETATM    7  C   UNL     1      24.272  49.840  48.157  1.00  0.00     0.333 C 
HETATM    8  O   UNL     1      24.185  50.916  47.562  1.00  0.00    -0.246 OA
HETATM    9  N   UNL     1      23.157  49.067  48.432  1.00  0.00    -0.270 N 
HETATM   10  C   UNL     1      21.874  49.558  47.959  1.00  0.00     0.164 C 
HETATM   11  C   UNL     1      23.202  47.760  48.879  1.00  0.00     0.270 C 
HETATM   12  O   UNL     1      22.239  46.997  48.768  1.00  0.00    -0.267 OA
ENDROOT
BRANCH   1  13
HETATM   13  N   UNL     1      25.850  45.604  50.492  1.00  0.00    -0.375 N 
HETATM   14  H   UNL     1      26.252  44.867  49.904  1.00  0.00     0.161 HD
BRANCH  13  15
HETATM   15  C   UNL     1      26.184  45.481  51.913  1.00  0.00     0.126 C 
BRANCH  15  16
HETATM   16  C   UNL     1      26.338  44.015  52.345  1.00  0.00     0.061 C 
BRANCH  16  17
HETATM   17  C   UNL     1      27.507  43.777  53.260  1.00  0.00    -0.022 A 
HETATM   18  C   UNL     1      28.287  42.632  53.317  1.00  0.00     0.013 A 
HETATM   19  C   UNL     1      28.216  41.365  52.544  1.00  0.00     0.068 C 
HETATM   20  N   UNL     1      29.247  42.827  54.278  1.00  0.00    -0.358 N 
HETATM   21  H   UNL     1      29.957  42.152  54.534  1.00  0.00     0.166 HD
HETATM   22  C   UNL     1      29.102  44.062  54.871  1.00  0.00     0.058 A 
HETATM   23  C   UNL     1      28.009  44.676  54.259  1.00  0.00    -0.000 A 
HETATM   24  C   UNL     1      29.855  44.666  55.900  1.00  0.00     0.075 A 
HETATM   25  C   UNL     1      27.630  45.960  54.697  1.00  0.00     0.014 A 
HETATM   26  C   UNL     1      28.352  46.589  55.714  1.00  0.00     0.002 A 
HETATM   27  C   UNL     1      29.445  45.955  56.299  1.00  0.00     0.018 A 
BRANCH  24  28
HETATM   28  C   UNL     1      31.050  44.026  56.559  1.00  0.00     0.419 C 
HETATM   29  F   UNL     1      30.864  42.706  56.852  1.00  0.00    -0.166 F 
HETATM   30  F   UNL     1      32.165  44.077  55.779  1.00  0.00    -0.166 F 
HETATM   31  F   UNL     1      31.389  44.623  57.736  1.00  0.00    -0.166 F 
ENDBRANCH  24  28
ENDBRANCH  16  17
ENDBRANCH  15  16
ENDBRANCH  13  15
ENDBRANCH   1  13
BRANCH   1  32
HETATM   32  N   UNL     1      23.520  45.202  50.112  1.00  0.00    -0.342 N 
HETATM   33  H   UNL     1      23.227  45.034  51.083  1.00  0.00     0.167 HD
BRANCH  32  34
HETATM   34  C   UNL     1      23.385  43.980  49.398  1.00  0.00     0.033 A 
HETATM   35  C   UNL     1      23.736  42.729  49.919  1.00  0.00     0.029 A 
HETATM   36  C   UNL     1      23.606  41.568  49.150  1.00  0.00     0.002 A 
HETATM   37  C   UNL     1      23.136  41.645  47.842  1.00  0.00     0.000 A 
HETATM   38  C   UNL     1      22.799  42.881  47.300  1.00  0.00     0.002 A 
HETATM   39  C   UNL     1      22.929  44.040  48.071  1.00  0.00     0.029 A 
ENDBRANCH  32  34
ENDBRANCH   1  32
TORSDOF 7
ENDMDL
MODEL 10
REMARK VINA RESULT:      -9.5      6.677     10.773
REMARK  7 active torsions:
REMARK  status: ('A' for Active; 'I' for Inactive)
REMARK    1  A    between atoms: C_7  and  C_8 
REMARK    2  A    between atoms: C_8  and  C_9 
REMARK    3  A    between atoms: C_9  and  N_10 
REMARK    4  A    between atoms: N_10  and  C_11 
REMARK    5  A    between atoms: C_11  and  N_12 
REMARK    6  A    between atoms: N_12  and  C_13 
REMARK    7  A    between atoms: C_30  and  C_31 
ROOT
HETATM    1  C   UNL     1      21.488  47.201  47.887  1.00  0.00     0.123 C 
HETATM    2  C   UNL     1      22.351  46.476  48.664  1.00  0.00     0.144 C 
HETATM    3  C   UNL     1      22.171  45.013  48.851  1.00  0.00     0.270 C 
HETATM    4  O   UNL     1      21.130  44.434  48.537  1.00  0.00    -0.267 OA
HETATM    5  N   UNL     1      23.240  44.346  49.420  1.00  0.00    -0.270 N 
HETATM    6  C   UNL     1      23.178  42.895  49.461  1.00  0.00     0.164 C 
HETATM    7  C   UNL     1      24.232  44.951  50.171  1.00  0.00     0.333 C 
HETATM    8  O   UNL     1      25.065  44.288  50.793  1.00  0.00    -0.246 OA
HETATM    9  N   UNL     1      24.242  46.334  50.191  1.00  0.00    -0.270 N 
HETATM   10  C   UNL     1      25.299  46.982  50.949  1.00  0.00     0.164 C 
HETATM   11  C   UNL     1      23.498  47.134  49.344  1.00  0.00     0.270 C 
HETATM   12  O   UNL     1      23.788  48.315  49.135  1.00  0.00    -0.267 OA
ENDROOT
BRANCH   1  13
HETATM   13  N   UNL     1      20.466  46.576  47.163  1.00  0.00    -0.375 N 
HETATM   14  H   UNL     1      20.525  45.552  47.177  1.00  0.00     0.161 HD
BRANCH  13  15
HETATM   15  C   UNL     1      19.904  47.122  45.926  1.00  0.00     0.126 C 
BRANCH  15  16
HETATM   16  C   UNL     1      18.370  47.044  45.904  1.00  0.00     0.061 C 
BRANCH  16  17
HETATM   17  C   UNL     1      17.700  48.140  46.685  1.00  0.00    -0.022 A 
HETATM   18  C   UNL     1      17.041  48.003  47.898  1.00  0.00     0.013 A 
HETATM   19  C   UNL     1      16.805  46.806  48.748  1.00  0.00     0.068 C 
HETATM   20  N   UNL     1      16.583  49.241  48.268  1.00  0.00    -0.358 N 
HETATM   21  H   UNL     1      16.063  49.438  49.116  1.00  0.00     0.166 HD
HETATM   22  C   UNL     1      16.903  50.186  47.318  1.00  0.00     0.058 A 
HETATM   23  C   UNL     1      17.594  49.520  46.307  1.00  0.00    -0.000 A 
HETATM   24  C   UNL     1      16.623  51.569  47.286  1.00  0.00     0.075 A 
HETATM   25  C   UNL     1      18.028  50.263  45.191  1.00  0.00     0.014 A 
HETATM   26  C   UNL     1      17.769  51.633  45.125  1.00  0.00     0.002 A 
HETATM   27  C   UNL     1      17.084  52.273  46.155  1.00  0.00     0.018 A 
BRANCH  24  28
HETATM   28  C   UNL     1      15.894  52.308  48.379  1.00  0.00     0.419 C 
HETATM   29  F   UNL     1      15.278  51.481  49.274  1.00  0.00    -0.166 F 
HETATM   30  F   UNL     1      16.722  53.098  49.117  1.00  0.00    -0.166 F 
HETATM   31  F   UNL     1      14.919  53.131  47.903  1.00  0.00    -0.166 F 
ENDBRANCH  24  28
ENDBRANCH  16  17
ENDBRANCH  15  16
ENDBRANCH  13  15
ENDBRANCH   1  13
BRANCH   1  32
HETATM   32  N   UNL     1      21.634  48.585  47.737  1.00  0.00    -0.342 N 
HETATM   33  H   UNL     1      22.616  48.882  47.793  1.00  0.00     0.167 HD
BRANCH  32  34
HETATM   34  C   UNL     1      20.843  49.571  48.388  1.00  0.00     0.033 A 
HETATM   35  C   UNL     1      20.737  50.898  47.956  1.00  0.00     0.029 A 
HETATM   36  C   UNL     1      19.965  51.826  48.663  1.00  0.00     0.002 A 
HETATM   37  C   UNL     1      19.297  51.440  49.822  1.00  0.00     0.000 A 
HETATM   38  C   UNL     1      19.403  50.130  50.278  1.00  0.00     0.002 A 
HETATM   39  C   UNL     1      20.176  49.205  49.569  1.00  0.00     0.029 A 
ENDBRANCH  32  34
ENDBRANCH   1  32
TORSDOF 7
ENDMDL
