MODEL 1
REMARK VINA RESULT:      -8.6      0.000      0.000
REMARK  2 active torsions:
REMARK  status: ('A' for Active; 'I' for Inactive)
REMARK    1  A    between atoms: C_4  and  C_5 
REMARK    2  A    between atoms: C_10  and  C_11 
ROOT
HETATM    1  C   UNL     1      24.681  47.264  50.542  1.00  0.00     0.224 C 
HETATM    2  N   UNL     1      25.332  46.439  51.566  1.00  0.00    -0.359 N 
HETATM    3  C   UNL     1      25.867  47.160  52.713  1.00  0.00     0.152 C 
HETATM    4  C   UNL     1      25.928  45.250  51.138  1.00  0.00     0.047 A 
HETATM    5  C   UNL     1      25.477  44.616  49.965  1.00  0.00     0.058 A 
HETATM    6  C   UNL     1      24.348  45.220  49.230  1.00  0.00     0.255 C 
HETATM    7  O   UNL     1      23.831  44.672  48.263  1.00  0.00    -0.268 OA
HETATM    8  N   UNL     1      23.890  46.417  49.700  1.00  0.00    -0.331 N 
HETATM    9  C   UNL     1      26.958  44.609  51.843  1.00  0.00     0.030 A 
HETATM   10  C   UNL     1      27.533  43.417  51.381  1.00  0.00     0.002 A 
HETATM   11  C   UNL     1      27.080  42.826  50.206  1.00  0.00     0.001 A 
HETATM   12  C   UNL     1      26.044  43.422  49.497  1.00  0.00     0.019 A 
HETATM   13  H   UNL     1      23.179  46.853  49.132  1.00  0.00     0.165 HD
ENDROOT
BRANCH   1  14
HETATM   14  C   UNL     1      25.550  48.128  49.672  1.00  0.00     0.034 A 
HETATM   15  C   UNL     1      25.163  49.268  48.910  1.00  0.00     0.122 A 
HETATM   16  N   UNL     1      26.201  49.811  48.253  1.00  0.00    -0.172 NA
HETATM   17  N   UNL     1      27.231  49.012  48.557  1.00  0.00    -0.288 N 
HETATM   18  H   UNL     1      28.136  49.218  48.146  1.00  0.00     0.188 HD
HETATM   19  C   UNL     1      26.905  48.005  49.409  1.00  0.00     0.123 A 
BRANCH  15  20
HETATM   20  C   UNL     1      23.787  49.847  48.806  1.00  0.00     0.106 A 
HETATM   21  O   UNL     1      22.957  50.093  49.865  1.00  0.00    -0.313 OA
HETATM   22  C   UNL     1      21.805  50.624  49.370  1.00  0.00     0.050 A 
HETATM   23  C   UNL     1      20.762  50.980  50.354  1.00  0.00     0.076 C 
HETATM   24  C   UNL     1      21.876  50.716  47.999  1.00  0.00     0.035 A 
HETATM   25  C   UNL     1      23.150  50.215  47.636  1.00  0.00     0.042 A 
ENDBRANCH  15  20
ENDBRANCH   1  14
TORSDOF 2
ENDMDL
MODEL 2
REMARK VINA RESULT:      -8.3      4.885      7.492
REMARK  2 active torsions:
REMARK  status: ('A' for Active; 'I' for Inactive)
REMARK    1  A    between atoms: C_4  and  C_5 
REMARK    2  A    between atoms: C_10  and  C_11 
ROOT
HETATM    1  C   UNL     1      26.289  43.380  52.986  1.00  0.00     0.224 C 
HETATM    2  N   UNL     1      26.476  44.208  54.183  1.00  0.00    -0.359 N 
HETATM    3  C   UNL     1      25.499  45.272  54.373  1.00  0.00     0.152 C 
HETATM    4  C   UNL     1      27.781  44.353  54.657  1.00  0.00     0.047 A 
HETATM    5  C   UNL     1      28.749  43.372  54.374  1.00  0.00     0.058 A 
HETATM    6  C   UNL     1      28.339  42.183  53.600  1.00  0.00     0.255 C 
HETATM    7  O   UNL     1      29.095  41.238  53.406  1.00  0.00    -0.268 OA
HETATM    8  N   UNL     1      27.058  42.179  53.130  1.00  0.00    -0.331 N 
HETATM    9  C   UNL     1      28.195  45.434  55.450  1.00  0.00     0.030 A 
HETATM   10  C   UNL     1      29.516  45.548  55.906  1.00  0.00     0.002 A 
HETATM   11  C   UNL     1      30.455  44.572  55.591  1.00  0.00     0.001 A 
HETATM   12  C   UNL     1      30.072  43.475  54.828  1.00  0.00     0.019 A 
HETATM   13  H   UNL     1      26.827  41.401  52.531  1.00  0.00     0.165 HD
ENDROOT
BRANCH   1  14
HETATM   14  C   UNL     1      26.602  43.990  51.648  1.00  0.00     0.034 A 
HETATM   15  C   UNL     1      26.893  43.316  50.427  1.00  0.00     0.122 A 
HETATM   16  N   UNL     1      27.115  44.173  49.419  1.00  0.00    -0.172 NA
HETATM   17  N   UNL     1      27.006  45.380  49.988  1.00  0.00    -0.288 N 
HETATM   18  H   UNL     1      27.159  46.200  49.410  1.00  0.00     0.188 HD
HETATM   19  C   UNL     1      26.686  45.331  51.308  1.00  0.00     0.123 A 
BRANCH  15  20
HETATM   20  C   UNL     1      26.962  41.836  50.220  1.00  0.00     0.106 A 
HETATM   21  O   UNL     1      28.104  41.085  50.294  1.00  0.00    -0.313 OA
HETATM   22  C   UNL     1      27.760  39.790  50.056  1.00  0.00     0.050 A 
HETATM   23  C   UNL     1      28.852  38.795  50.100  1.00  0.00     0.076 C 
HETATM   24  C   UNL     1      26.408  39.694  49.818  1.00  0.00     0.035 A 
HETATM   25  C   UNL     1      25.895  41.009  49.922  1.00  0.00     0.042 A 
ENDBRANCH  15  20
ENDBRANCH   1  14
TORSDOF 2
ENDMDL
MODEL 3
REMARK VINA RESULT:      -8.0      5.159      7.569
REMARK  2 active torsions:
REMARK  status: ('A' for Active; 'I' for Inactive)
REMARK    1  A    between atoms: C_4  and  C_5 
REMARK    2  A    between atoms: C_10  and  C_11 
ROOT
HETATM    1  C   UNL     1      27.957  44.109  51.883  1.00  0.00     0.224 C 
HETATM    2  N   UNL     1      27.512  43.965  50.492  1.00  0.00    -0.359 N 
HETATM    3  C   UNL     1      27.013  45.179  49.859  1.00  0.00     0.152 C 
HETATM    4  C   UNL     1      27.021  42.715  50.110  1.00  0.00     0.047 A 
HETATM    5  C   UNL     1      27.423  41.556  50.799  1.00  0.00     0.058 A 
HETATM    6  C   UNL     1      28.394  41.698  51.902  1.00  0.00     0.255 C 
HETATM    7  O   UNL     1      28.873  40.727  52.479  1.00  0.00    -0.268 OA
HETATM    8  N   UNL     1      28.753  42.971  52.234  1.00  0.00    -0.331 N 
HETATM    9  C   UNL     1      26.148  42.530  49.026  1.00  0.00     0.030 A 
HETATM   10  C   UNL     1      25.674  41.259  48.673  1.00  0.00     0.002 A 
HETATM   11  C   UNL     1      26.073  40.135  49.388  1.00  0.00     0.001 A 
HETATM   12  C   UNL     1      26.957  40.280  50.452  1.00  0.00     0.019 A 
HETATM   13  H   UNL     1      29.347  43.048  53.046  1.00  0.00     0.165 HD
ENDROOT
BRANCH   1  14
HETATM   14  C   UNL     1      26.909  44.306  52.943  1.00  0.00     0.034 A 
HETATM   15  C   UNL     1      27.108  44.629  54.317  1.00  0.00     0.122 A 
HETATM   16  N   UNL     1      25.946  44.741  54.980  1.00  0.00    -0.172 NA
HETATM   17  N   UNL     1      25.017  44.459  54.059  1.00  0.00    -0.288 N 
HETATM   18  H   UNL     1      24.042  44.460  54.344  1.00  0.00     0.188 HD
HETATM   19  C   UNL     1      25.532  44.209  52.827  1.00  0.00     0.123 A 
BRANCH  15  20
HETATM   20  C   UNL     1      28.421  44.832  55.005  1.00  0.00     0.106 A 
HETATM   21  O   UNL     1      29.334  43.845  55.259  1.00  0.00    -0.313 OA
HETATM   22  C   UNL     1      30.396  44.420  55.888  1.00  0.00     0.050 A 
HETATM   23  C   UNL     1      31.516  43.528  56.248  1.00  0.00     0.076 C 
HETATM   24  C   UNL     1      30.175  45.769  56.054  1.00  0.00     0.035 A 
HETATM   25  C   UNL     1      28.905  46.033  55.488  1.00  0.00     0.042 A 
ENDBRANCH  15  20
ENDBRANCH   1  14
TORSDOF 2
ENDMDL
MODEL 4
REMARK VINA RESULT:      -7.9     10.227     12.399
REMARK  2 active torsions:
REMARK  status: ('A' for Active; 'I' for Inactive)
REMARK    1  A    between atoms: C_4  and  C_5 
REMARK    2  A    between atoms: C_10  and  C_11 
ROOT
HETATM    1  C   UNL     1      31.143  51.357  41.835  1.00  0.00     0.224 C 
HETATM    2  N   UNL     1      30.688  50.022  42.240  1.00  0.00    -0.359 N 
HETATM    3  C   UNL     1      31.740  49.066  42.561  1.00  0.00     0.152 C 
HETATM    4  C   UNL     1      29.469  49.582  41.721  1.00  0.00     0.047 A 
HETATM    5  C   UNL     1      28.498  50.515  41.309  1.00  0.00     0.058 A 
HETATM    6  C   UNL     1      28.793  51.953  41.473  1.00  0.00     0.255 C 
HETATM    7  O   UNL     1      27.959  52.820  41.238  1.00  0.00    -0.268 OA
HETATM    8  N   UNL     1      30.041  52.268  41.925  1.00  0.00    -0.331 N 
HETATM    9  C   UNL     1      29.124  48.226  41.610  1.00  0.00     0.030 A 
HETATM   10  C   UNL     1      27.889  47.823  41.081  1.00  0.00     0.002 A 
HETATM   11  C   UNL     1      26.960  48.769  40.663  1.00  0.00     0.001 A 
HETATM   12  C   UNL     1      27.260  50.121  40.782  1.00  0.00     0.019 A 
HETATM   13  H   UNL     1      30.249  53.255  41.945  1.00  0.00     0.165 HD
ENDROOT
BRANCH   1  14
HETATM   14  C   UNL     1      31.778  51.507  40.480  1.00  0.00     0.034 A 
HETATM   15  C   UNL     1      33.166  51.494  40.161  1.00  0.00     0.122 A 
HETATM   16  N   UNL     1      33.381  51.645  38.844  1.00  0.00    -0.172 NA
HETATM   17  N   UNL     1      32.154  51.788  38.328  1.00  0.00    -0.288 N 
HETATM   18  H   UNL     1      32.068  51.941  37.329  1.00  0.00     0.188 HD
HETATM   19  C   UNL     1      31.162  51.698  39.254  1.00  0.00     0.123 A 
BRANCH  15  20
HETATM   20  C   UNL     1      34.302  51.339  41.123  1.00  0.00     0.106 A 
HETATM   21  O   UNL     1      34.559  52.176  42.175  1.00  0.00    -0.313 OA
HETATM   22  C   UNL     1      35.663  51.703  42.815  1.00  0.00     0.050 A 
HETATM   23  C   UNL     1      36.115  52.457  44.002  1.00  0.00     0.076 C 
HETATM   24  C   UNL     1      36.131  50.573  42.182  1.00  0.00     0.035 A 
HETATM   25  C   UNL     1      35.257  50.340  41.093  1.00  0.00     0.042 A 
ENDBRANCH  15  20
ENDBRANCH   1  14
TORSDOF 2
ENDMDL
MODEL 5
REMARK VINA RESULT:      -7.8     10.260     11.935
REMARK  2 active torsions:
REMARK  status: ('A' for Active; 'I' for Inactive)
REMARK    1  A    between atoms: C_4  and  C_5 
REMARK    2  A    between atoms: C_10  and  C_11 
ROOT
HETATM    1  C   UNL     1      30.362  50.372  40.970  1.00  0.00     0.224 C 
HETATM    2  N   UNL     1      31.178  51.083  41.962  1.00  0.00    -0.359 N 
HETATM    3  C   UNL     1      30.686  52.395  42.361  1.00  0.00     0.152 C 
HETATM    4  C   UNL     1      32.547  50.808  41.972  1.00  0.00     0.047 A 
HETATM    5  C   UNL     1      33.025  49.578  41.481  1.00  0.00     0.058 A 
HETATM    6  C   UNL     1      32.043  48.588  40.994  1.00  0.00     0.255 C 
HETATM    7  O   UNL     1      32.373  47.457  40.652  1.00  0.00    -0.268 OA
HETATM    8  N   UNL     1      30.740  48.990  40.966  1.00  0.00    -0.331 N 
HETATM    9  C   UNL     1      33.506  51.694  42.487  1.00  0.00     0.030 A 
HETATM   10  C   UNL     1      34.873  51.384  42.477  1.00  0.00     0.002 A 
HETATM   11  C   UNL     1      35.315  50.169  41.965  1.00  0.00     0.001 A 
HETATM   12  C   UNL     1      34.390  49.258  41.470  1.00  0.00     0.019 A 
HETATM   13  H   UNL     1      30.101  48.331  40.548  1.00  0.00     0.165 HD
ENDROOT
BRANCH   1  14
HETATM   14  C   UNL     1      30.374  50.875  39.554  1.00  0.00     0.034 A 
HETATM   15  C   UNL     1      29.323  50.805  38.594  1.00  0.00     0.122 A 
HETATM   16  N   UNL     1      29.671  51.365  37.425  1.00  0.00    -0.172 NA
HETATM   17  N   UNL     1      30.936  51.757  37.616  1.00  0.00    -0.288 N 
HETATM   18  H   UNL     1      31.425  52.196  36.842  1.00  0.00     0.188 HD
HETATM   19  C   UNL     1      31.400  51.505  38.869  1.00  0.00     0.123 A 
BRANCH  15  20
HETATM   20  C   UNL     1      27.971  50.194  38.794  1.00  0.00     0.106 A 
HETATM   21  O   UNL     1      27.692  49.172  39.659  1.00  0.00    -0.313 OA
HETATM   22  C   UNL     1      26.361  48.903  39.562  1.00  0.00     0.050 A 
HETATM   23  C   UNL     1      25.836  47.828  40.428  1.00  0.00     0.076 C 
HETATM   24  C   UNL     1      25.776  49.734  38.634  1.00  0.00     0.035 A 
HETATM   25  C   UNL     1      26.811  50.564  38.139  1.00  0.00     0.042 A 
ENDBRANCH  15  20
ENDBRANCH   1  14
TORSDOF 2
ENDMDL
MODEL 6
REMARK VINA RESULT:      -7.7      2.615      7.157
REMARK  2 active torsions:
REMARK  status: ('A' for Active; 'I' for Inactive)
REMARK    1  A    between atoms: C_4  and  C_5 
REMARK    2  A    between atoms: C_10  and  C_11 
ROOT
HETATM    1  C   UNL     1      21.450  48.498  48.901  1.00  0.00     0.224 C 
HETATM    2  N   UNL     1      20.428  48.374  47.856  1.00  0.00    -0.359 N 
HETATM    3  C   UNL     1      20.684  47.363  46.838  1.00  0.00     0.152 C 
HETATM    4  C   UNL     1      19.698  49.522  47.543  1.00  0.00     0.047 A 
HETATM    5  C   UNL     1      19.547  50.546  48.497  1.00  0.00     0.058 A 
HETATM    6  C   UNL     1      20.149  50.355  49.832  1.00  0.00     0.255 C 
HETATM    7  O   UNL     1      19.970  51.151  50.748  1.00  0.00    -0.268 OA
HETATM    8  N   UNL     1      20.897  49.227  50.004  1.00  0.00    -0.331 N 
HETATM    9  C   UNL     1      19.055  49.713  46.310  1.00  0.00     0.030 A 
HETATM   10  C   UNL     1      18.332  50.882  46.031  1.00  0.00     0.002 A 
HETATM   11  C   UNL     1      18.221  51.885  46.988  1.00  0.00     0.001 A 
HETATM   12  C   UNL     1      18.824  51.716  48.229  1.00  0.00     0.019 A 
HETATM   13  H   UNL     1      21.370  49.162  50.893  1.00  0.00     0.165 HD
ENDROOT
BRANCH   1  14
HETATM   14  C   UNL     1      22.769  49.116  48.531  1.00  0.00     0.034 A 
HETATM   15  C   UNL     1      24.068  48.734  48.975  1.00  0.00     0.122 A 
HETATM   16  N   UNL     1      25.030  49.499  48.435  1.00  0.00    -0.172 NA
HETATM   17  N   UNL     1      24.360  50.382  47.685  1.00  0.00    -0.288 N 
HETATM   18  H   UNL     1      24.891  51.090  47.188  1.00  0.00     0.188 HD
HETATM   19  C   UNL     1      23.014  50.191  47.692  1.00  0.00     0.123 A 
BRANCH  15  20
HETATM   20  C   UNL     1      24.395  47.628  49.928  1.00  0.00     0.106 A 
HETATM   21  O   UNL     1      25.005  47.792  51.142  1.00  0.00    -0.313 OA
HETATM   22  C   UNL     1      25.122  46.562  51.713  1.00  0.00     0.050 A 
HETATM   23  C   UNL     1      25.750  46.508  53.049  1.00  0.00     0.076 C 
HETATM   24  C   UNL     1      24.605  45.600  50.876  1.00  0.00     0.035 A 
HETATM   25  C   UNL     1      24.138  46.285  49.728  1.00  0.00     0.042 A 
ENDBRANCH  15  20
ENDBRANCH   1  14
TORSDOF 2
ENDMDL
MODEL 7
REMARK VINA RESULT:      -7.7     10.748     13.246
REMARK  2 active torsions:
REMARK  status: ('A' for Active; 'I' for Inactive)
REMARK    1  A    between atoms: C_4  and  C_5 
REMARK    2  A    between atoms: C_10  and  C_11 
ROOT
HETATM    1  C   UNL     1      32.626  50.291  41.449  1.00  0.00     0.224 C 
HETATM    2  N   UNL     1      32.037  51.075  40.357  1.00  0.00    -0.359 N 
HETATM    3  C   UNL     1      32.952  51.964  39.653  1.00  0.00     0.152 C 
HETATM    4  C   UNL     1      30.683  51.396  40.465  1.00  0.00     0.047 A 
HETATM    5  C   UNL     1      29.825  50.592  41.239  1.00  0.00     0.058 A 
HETATM    6  C   UNL     1      30.388  49.395  41.895  1.00  0.00     0.255 C 
HETATM    7  O   UNL     1      29.685  48.589  42.496  1.00  0.00    -0.268 OA
HETATM    8  N   UNL     1      31.736  49.218  41.779  1.00  0.00    -0.331 N 
HETATM    9  C   UNL     1      30.095  52.486  39.803  1.00  0.00     0.030 A 
HETATM   10  C   UNL     1      28.731  52.778  39.938  1.00  0.00     0.002 A 
HETATM   11  C   UNL     1      27.914  51.976  40.728  1.00  0.00     0.001 A 
HETATM   12  C   UNL     1      28.459  50.874  41.376  1.00  0.00     0.019 A 
HETATM   13  H   UNL     1      32.110  48.445  42.308  1.00  0.00     0.165 HD
ENDROOT
BRANCH   1  14
HETATM   14  C   UNL     1      32.998  51.010  42.715  1.00  0.00     0.034 A 
HETATM   15  C   UNL     1      34.252  51.601  43.047  1.00  0.00     0.122 A 
HETATM   16  N   UNL     1      34.233  52.173  44.261  1.00  0.00    -0.172 NA
HETATM   17  N   UNL     1      33.000  51.923  44.719  1.00  0.00    -0.288 N 
HETATM   18  H   UNL     1      32.758  52.248  45.650  1.00  0.00     0.188 HD
HETATM   19  C   UNL     1      32.218  51.249  43.835  1.00  0.00     0.123 A 
BRANCH  15  20
HETATM   20  C   UNL     1      35.483  51.619  42.197  1.00  0.00     0.106 A 
HETATM   21  O   UNL     1      35.942  52.705  41.502  1.00  0.00    -0.313 OA
HETATM   22  C   UNL     1      37.083  52.331  40.861  1.00  0.00     0.050 A 
HETATM   23  C   UNL     1      37.760  53.366  40.053  1.00  0.00     0.076 C 
HETATM   24  C   UNL     1      37.363  51.009  41.124  1.00  0.00     0.035 A 
HETATM   25  C   UNL     1      36.334  50.551  41.982  1.00  0.00     0.042 A 
ENDBRANCH  15  20
ENDBRANCH   1  14
TORSDOF 2
ENDMDL
MODEL 8
REMARK VINA RESULT:      -7.6     10.256     12.061
REMARK  2 active torsions:
REMARK  status: ('A' for Active; 'I' for Inactive)
REMARK    1  A    between atoms: C_4  and  C_5 
REMARK    2  A    between atoms: C_10  and  C_11 
ROOT
HETATM    1  C   UNL     1      30.276  49.710  40.452  1.00  0.00     0.224 C 
HETATM    2  N   UNL     1      31.518  49.434  41.183  1.00  0.00    -0.359 N 
HETATM    3  C   UNL     1      31.354  48.852  42.510  1.00  0.00     0.152 C 
HETATM    4  C   UNL     1      32.617  50.247  40.899  1.00  0.00     0.047 A 
HETATM    5  C   UNL     1      32.713  50.895  39.654  1.00  0.00     0.058 A 
HETATM    6  C   UNL     1      31.648  50.663  38.657  1.00  0.00     0.255 C 
HETATM    7  O   UNL     1      31.716  51.105  37.515  1.00  0.00    -0.268 OA
HETATM    8  N   UNL     1      30.590  49.906  39.068  1.00  0.00    -0.331 N 
HETATM    9  C   UNL     1      33.682  50.441  41.793  1.00  0.00     0.030 A 
HETATM   10  C   UNL     1      34.768  51.268  41.473  1.00  0.00     0.002 A 
HETATM   11  C   UNL     1      34.823  51.911  40.241  1.00  0.00     0.001 A 
HETATM   12  C   UNL     1      33.797  51.721  39.323  1.00  0.00     0.019 A 
HETATM   13  H   UNL     1      29.835  49.835  38.402  1.00  0.00     0.165 HD
ENDROOT
BRANCH   1  14
HETATM   14  C   UNL     1      29.423  50.857  40.916  1.00  0.00     0.034 A 
HETATM   15  C   UNL     1      28.064  51.126  40.581  1.00  0.00     0.122 A 
HETATM   16  N   UNL     1      27.607  52.234  41.184  1.00  0.00    -0.172 NA
HETATM   17  N   UNL     1      28.662  52.692  41.868  1.00  0.00    -0.288 N 
HETATM   18  H   UNL     1      28.557  53.553  42.396  1.00  0.00     0.188 HD
HETATM   19  C   UNL     1      29.764  51.904  41.758  1.00  0.00     0.123 A 
BRANCH  15  20
HETATM   20  C   UNL     1      27.193  50.318  39.672  1.00  0.00     0.106 A 
HETATM   21  O   UNL     1      26.462  49.225  40.051  1.00  0.00    -0.313 OA
HETATM   22  C   UNL     1      25.799  48.772  38.953  1.00  0.00     0.050 A 
HETATM   23  C   UNL     1      24.931  47.592  39.141  1.00  0.00     0.076 C 
HETATM   24  C   UNL     1      26.100  49.554  37.861  1.00  0.00     0.035 A 
HETATM   25  C   UNL     1      26.998  50.548  38.322  1.00  0.00     0.042 A 
ENDBRANCH  15  20
ENDBRANCH   1  14
TORSDOF 2
ENDMDL
MODEL 9
REMARK VINA RESULT:      -7.5      3.261      7.691
REMARK  2 active torsions:
REMARK  status: ('A' for Active; 'I' for Inactive)
REMARK    1  A    between atoms: C_4  and  C_5 
REMARK    2  A    between atoms: C_10  and  C_11 
ROOT
HETATM    1  C   UNL     1      19.927  47.835  49.196  1.00  0.00     0.224 C 
HETATM    2  N   UNL     1      18.647  48.546  49.286  1.00  0.00    -0.359 N 
HETATM    3  C   UNL     1      17.455  47.723  49.125  1.00  0.00     0.152 C 
HETATM    4  C   UNL     1      18.637  49.887  48.898  1.00  0.00     0.047 A 
HETATM    5  C   UNL     1      19.821  50.647  48.951  1.00  0.00     0.058 A 
HETATM    6  C   UNL     1      21.048  50.000  49.456  1.00  0.00     0.255 C 
HETATM    7  O   UNL     1      22.089  50.623  49.633  1.00  0.00    -0.268 OA
HETATM    8  N   UNL     1      20.957  48.668  49.741  1.00  0.00    -0.331 N 
HETATM    9  C   UNL     1      17.479  50.557  48.475  1.00  0.00     0.030 A 
HETATM   10  C   UNL     1      17.508  51.905  48.090  1.00  0.00     0.002 A 
HETATM   11  C   UNL     1      18.699  52.623  48.134  1.00  0.00     0.001 A 
HETATM   12  C   UNL     1      19.860  51.996  48.572  1.00  0.00     0.019 A 
HETATM   13  H   UNL     1      21.828  48.229  49.999  1.00  0.00     0.165 HD
ENDROOT
BRANCH   1  14
HETATM   14  C   UNL     1      20.372  47.345  47.846  1.00  0.00     0.034 A 
HETATM   15  C   UNL     1      21.570  46.646  47.523  1.00  0.00     0.122 A 
HETATM   16  N   UNL     1      21.643  46.350  46.215  1.00  0.00    -0.172 NA
HETATM   17  N   UNL     1      20.528  46.881  45.699  1.00  0.00    -0.288 N 
HETATM   18  H   UNL     1      20.375  46.800  44.699  1.00  0.00     0.188 HD
HETATM   19  C   UNL     1      19.728  47.471  46.626  1.00  0.00     0.123 A 
BRANCH  15  20
HETATM   20  C   UNL     1      22.660  46.257  48.471  1.00  0.00     0.106 A 
HETATM   21  O   UNL     1      23.408  47.133  49.209  1.00  0.00    -0.313 OA
HETATM   22  C   UNL     1      24.285  46.402  49.951  1.00  0.00     0.050 A 
HETATM   23  C   UNL     1      25.191  47.156  50.841  1.00  0.00     0.076 C 
HETATM   24  C   UNL     1      24.121  45.060  49.692  1.00  0.00     0.035 A 
HETATM   25  C   UNL     1      23.077  44.967  48.740  1.00  0.00     0.042 A 
ENDBRANCH  15  20
ENDBRANCH   1  14
TORSDOF 2
ENDMDL
MODEL 10
REMARK VINA RESULT:      -7.3      4.521      7.449
REMARK  2 active torsions:
REMARK  status: ('A' for Active; 'I' for Inactive)
REMARK    1  A    between atoms: C_4  and  C_5 
REMARK    2  A    between atoms: C_10  and  C_11 
ROOT
HETATM    1  C   UNL     1      27.053  43.692  51.055  1.00  0.00     0.224 C 
HETATM    2  N   UNL     1      26.467  44.330  49.871  1.00  0.00    -0.359 N 
HETATM    3  C   UNL     1      26.706  45.761  49.740  1.00  0.00     0.152 C 
HETATM    4  C   UNL     1      25.304  43.757  49.353  1.00  0.00     0.047 A 
HETATM    5  C   UNL     1      25.025  42.396  49.578  1.00  0.00     0.058 A 
HETATM    6  C   UNL     1      26.005  41.595  50.340  1.00  0.00     0.255 C 
HETATM    7  O   UNL     1      25.885  40.384  50.485  1.00  0.00    -0.268 OA
HETATM    8  N   UNL     1      27.070  42.274  50.856  1.00  0.00    -0.331 N 
HETATM    9  C   UNL     1      24.381  44.466  48.568  1.00  0.00     0.030 A 
HETATM   10  C   UNL     1      23.222  43.857  48.067  1.00  0.00     0.002 A 
HETATM   11  C   UNL     1      22.964  42.515  48.326  1.00  0.00     0.001 A 
HETATM   12  C   UNL     1      23.870  41.777  49.078  1.00  0.00     0.019 A 
HETATM   13  H   UNL     1      27.677  41.725  51.446  1.00  0.00     0.165 HD
ENDROOT
BRANCH   1  14
HETATM   14  C   UNL     1      26.433  43.981  52.394  1.00  0.00     0.034 A 
HETATM   15  C   UNL     1      27.059  43.943  53.673  1.00  0.00     0.122 A 
HETATM   16  N   UNL     1      26.209  44.268  54.659  1.00  0.00    -0.172 NA
HETATM   17  N   UNL     1      25.046  44.477  54.031  1.00  0.00    -0.288 N 
HETATM   18  H   UNL     1      24.234  44.718  54.590  1.00  0.00     0.188 HD
HETATM   19  C   UNL     1      25.125  44.336  52.681  1.00  0.00     0.123 A 
BRANCH  15  20
HETATM   20  C   UNL     1      28.485  43.590  53.958  1.00  0.00     0.106 A 
HETATM   21  O   UNL     1      29.143  43.862  55.126  1.00  0.00    -0.313 OA
HETATM   22  C   UNL     1      30.411  43.382  55.006  1.00  0.00     0.050 A 
HETATM   23  C   UNL     1      31.301  43.560  56.172  1.00  0.00     0.076 C 
HETATM   24  C   UNL     1      30.585  42.809  53.767  1.00  0.00     0.035 A 
HETATM   25  C   UNL     1      29.348  42.944  53.092  1.00  0.00     0.042 A 
ENDBRANCH  15  20
ENDBRANCH   1  14
TORSDOF 2
ENDMDL
