MODEL 1
REMARK VINA RESULT:      -8.6      0.000      0.000
REMARK  4 active torsions:
REMARK  status: ('A' for Active; 'I' for Inactive)
REMARK    1  A    between atoms: C_5  and  C_6 
REMARK    2  A    between atoms: C_6  and  N_7 
REMARK    3  A    between atoms: C_6  and  C_18 
REMARK    4  A    between atoms: N_7  and  C_8 
ROOT
HETATM    1  C   UNL     1      29.336  44.441  54.695  1.00  0.00     0.288 C 
ENDROOT
BRANCH   1   2
HETATM    2  C   UNL     1      30.218  44.429  55.932  1.00  0.00    -0.003 A 
HETATM    3  C   UNL     1      30.106  45.383  56.942  1.00  0.00     0.126 A 
HETATM    4  N   UNL     1      30.816  45.355  58.092  1.00  0.00    -0.272 NA
HETATM    5  C   UNL     1      31.714  44.358  58.239  1.00  0.00     0.116 A 
HETATM    6  C   UNL     1      31.914  43.366  57.296  1.00  0.00     0.020 A 
HETATM    7  C   UNL     1      31.151  43.400  56.132  1.00  0.00     0.012 A 
ENDBRANCH   1   2
BRANCH   1   8
HETATM    8  N   UNL     1      28.959  43.060  54.284  1.00  0.00     0.101 N 
HETATM    9  H   UNL     1      27.948  43.000  54.371  1.00  0.00     0.317 HD
BRANCH   8  10
HETATM   10  C   UNL     1      29.447  42.576  52.983  1.00  0.00     0.225 C 
HETATM   11  C   UNL     1      29.071  43.448  51.760  1.00  0.00     0.069 C 
HETATM   12  C   UNL     1      27.581  43.423  51.488  1.00  0.00     0.190 C 
HETATM   13  N   UNL     1      27.159  42.001  51.249  1.00  0.00    -0.067 N 
HETATM   14  C   UNL     1      27.095  44.091  50.219  1.00  0.00     0.035 C 
HETATM   15  H   UNL     1      27.738  41.620  50.486  1.00  0.00     0.280 HD
HETATM   16  C   UNL     1      27.378  41.130  52.446  1.00  0.00     0.237 C 
HETATM   17  C   UNL     1      25.759  42.095  50.699  1.00  0.00     0.235 C 
HETATM   18  C   UNL     1      28.871  41.150  52.777  1.00  0.00     0.063 C 
HETATM   19  C   UNL     1      25.713  43.469  50.024  1.00  0.00     0.030 C 
ENDBRANCH   8  10
ENDBRANCH   1   8
BRANCH   1  20
HETATM   20  C   UNL     1      28.220  45.493  54.667  1.00  0.00    -0.021 A 
HETATM   21  C   UNL     1      28.545  46.856  54.852  1.00  0.00     0.012 A 
HETATM   22  C   UNL     1      27.566  47.851  54.795  1.00  0.00     0.043 A 
HETATM   23  C   UNL     1      26.253  47.501  54.526  1.00  0.00     0.116 A 
HETATM   24  F   UNL     1      25.312  48.452  54.468  1.00  0.00    -0.206 F 
HETATM   25  C   UNL     1      25.905  46.178  54.298  1.00  0.00     0.043 A 
HETATM   26  C   UNL     1      26.885  45.182  54.354  1.00  0.00     0.012 A 
ENDBRANCH   1  20
TORSDOF 4
ENDMDL
MODEL 2
REMARK VINA RESULT:      -8.4      3.294      5.995
REMARK  4 active torsions:
REMARK  status: ('A' for Active; 'I' for Inactive)
REMARK    1  A    between atoms: C_5  and  C_6 
REMARK    2  A    between atoms: C_6  and  N_7 
REMARK    3  A    between atoms: C_6  and  C_18 
REMARK    4  A    between atoms: N_7  and  C_8 
ROOT
HETATM    1  C   UNL     1      26.954  43.668  51.577  1.00  0.00     0.288 C 
ENDROOT
BRANCH   1   2
HETATM    2  C   UNL     1      26.636  45.068  51.079  1.00  0.00    -0.003 A 
HETATM    3  C   UNL     1      27.179  45.586  49.904  1.00  0.00     0.126 A 
HETATM    4  N   UNL     1      26.855  46.793  49.388  1.00  0.00    -0.272 NA
HETATM    5  C   UNL     1      25.982  47.548  50.088  1.00  0.00     0.116 A 
HETATM    6  C   UNL     1      25.392  47.137  51.269  1.00  0.00     0.020 A 
HETATM    7  C   UNL     1      25.719  45.878  51.766  1.00  0.00     0.012 A 
ENDBRANCH   1   2
BRANCH   1   8
HETATM    8  N   UNL     1      27.028  42.695  50.451  1.00  0.00     0.101 N 
HETATM    9  H   UNL     1      28.015  42.560  50.252  1.00  0.00     0.317 HD
BRANCH   8  10
HETATM   10  C   UNL     1      26.297  41.427  50.593  1.00  0.00     0.225 C 
HETATM   11  C   UNL     1      27.151  40.204  51.008  1.00  0.00     0.069 C 
HETATM   12  C   UNL     1      28.127  39.805  49.920  1.00  0.00     0.190 C 
HETATM   13  N   UNL     1      27.353  39.486  48.672  1.00  0.00    -0.067 N 
HETATM   14  C   UNL     1      28.904  38.520  50.121  1.00  0.00     0.035 C 
HETATM   15  H   UNL     1      26.656  38.764  48.905  1.00  0.00     0.280 HD
HETATM   16  C   UNL     1      26.604  40.669  48.145  1.00  0.00     0.237 C 
HETATM   17  C   UNL     1      28.346  38.821  47.754  1.00  0.00     0.235 C 
HETATM   18  C   UNL     1      25.625  41.128  49.227  1.00  0.00     0.063 C 
HETATM   19  C   UNL     1      29.369  38.188  48.703  1.00  0.00     0.030 C 
ENDBRANCH   8  10
ENDBRANCH   1   8
BRANCH   1  20
HETATM   20  C   UNL     1      28.046  43.559  52.649  1.00  0.00    -0.021 A 
HETATM   21  C   UNL     1      29.228  42.838  52.366  1.00  0.00     0.012 A 
HETATM   22  C   UNL     1      30.265  42.748  53.298  1.00  0.00     0.043 A 
HETATM   23  C   UNL     1      30.146  43.397  54.516  1.00  0.00     0.116 A 
HETATM   24  F   UNL     1      31.138  43.315  55.411  1.00  0.00    -0.206 F 
HETATM   25  C   UNL     1      29.017  44.148  54.811  1.00  0.00     0.043 A 
HETATM   26  C   UNL     1      27.980  44.240  53.877  1.00  0.00     0.012 A 
ENDBRANCH   1  20
TORSDOF 4
ENDMDL
MODEL 3
REMARK VINA RESULT:      -7.9      7.928     11.078
REMARK  4 active torsions:
REMARK  status: ('A' for Active; 'I' for Inactive)
REMARK    1  A    between atoms: C_5  and  C_6 
REMARK    2  A    between atoms: C_6  and  N_7 
REMARK    3  A    between atoms: C_6  and  C_18 
REMARK    4  A    between atoms: N_7  and  C_8 
ROOT
HETATM    1  C   UNL     1      21.756  47.520  48.341  1.00  0.00     0.288 C 
ENDROOT
BRANCH   1   2
HETATM    2  C   UNL     1      21.876  46.071  47.897  1.00  0.00    -0.003 A 
HETATM    3  C   UNL     1      21.769  45.004  48.787  1.00  0.00     0.126 A 
HETATM    4  N   UNL     1      21.788  43.704  48.416  1.00  0.00    -0.272 NA
HETATM    5  C   UNL     1      21.963  43.440  47.104  1.00  0.00     0.116 A 
HETATM    6  C   UNL     1      22.091  44.421  46.138  1.00  0.00     0.020 A 
HETATM    7  C   UNL     1      22.039  45.753  46.540  1.00  0.00     0.012 A 
ENDBRANCH   1   2
BRANCH   1   8
HETATM    8  N   UNL     1      20.768  47.668  49.447  1.00  0.00     0.101 N 
HETATM    9  H   UNL     1      21.100  48.432  50.028  1.00  0.00     0.317 HD
BRANCH   8  10
HETATM   10  C   UNL     1      19.350  47.804  49.082  1.00  0.00     0.225 C 
HETATM   11  C   UNL     1      19.041  48.825  47.959  1.00  0.00     0.069 C 
HETATM   12  C   UNL     1      19.320  50.247  48.400  1.00  0.00     0.190 C 
HETATM   13  N   UNL     1      18.480  50.550  49.609  1.00  0.00    -0.067 N 
HETATM   14  C   UNL     1      18.899  51.360  47.463  1.00  0.00     0.035 C 
HETATM   15  H   UNL     1      17.495  50.363  49.368  1.00  0.00     0.280 HD
HETATM   16  C   UNL     1      18.821  49.678  50.776  1.00  0.00     0.237 C 
HETATM   17  C   UNL     1      18.585  52.041  49.795  1.00  0.00     0.235 C 
HETATM   18  C   UNL     1      18.584  48.225  50.365  1.00  0.00     0.063 C 
HETATM   19  C   UNL     1      18.863  52.577  48.387  1.00  0.00     0.030 C 
ENDBRANCH   8  10
ENDBRANCH   1   8
BRANCH   1  20
HETATM   20  C   UNL     1      23.071  48.297  48.488  1.00  0.00    -0.021 A 
HETATM   21  C   UNL     1      24.131  47.734  49.234  1.00  0.00     0.012 A 
HETATM   22  C   UNL     1      25.359  48.388  49.360  1.00  0.00     0.043 A 
HETATM   23  C   UNL     1      25.553  49.603  48.721  1.00  0.00     0.116 A 
HETATM   24  F   UNL     1      26.729  50.233  48.838  1.00  0.00    -0.206 F 
HETATM   25  C   UNL     1      24.548  50.165  47.947  1.00  0.00     0.043 A 
HETATM   26  C   UNL     1      23.320  49.508  47.820  1.00  0.00     0.012 A 
ENDBRANCH   1  20
TORSDOF 4
ENDMDL
MODEL 4
REMARK VINA RESULT:      -7.9     13.279     15.647
REMARK  4 active torsions:
REMARK  status: ('A' for Active; 'I' for Inactive)
REMARK    1  A    between atoms: C_5  and  C_6 
REMARK    2  A    between atoms: C_6  and  N_7 
REMARK    3  A    between atoms: C_6  and  C_18 
REMARK    4  A    between atoms: N_7  and  C_8 
ROOT
HETATM    1  C   UNL     1      29.401  49.482  40.516  1.00  0.00     0.288 C 
ENDROOT
BRANCH   1   2
HETATM    2  C   UNL     1      28.346  48.550  39.942  1.00  0.00    -0.003 A 
HETATM    3  C   UNL     1      28.634  47.616  38.947  1.00  0.00     0.126 A 
HETATM    4  N   UNL     1      27.744  46.717  38.473  1.00  0.00    -0.272 NA
HETATM    5  C   UNL     1      26.491  46.767  38.973  1.00  0.00     0.116 A 
HETATM    6  C   UNL     1      26.095  47.660  39.952  1.00  0.00     0.020 A 
HETATM    7  C   UNL     1      27.038  48.557  40.447  1.00  0.00     0.012 A 
ENDBRANCH   1   2
BRANCH   1   8
HETATM    8  N   UNL     1      30.766  48.898  40.393  1.00  0.00     0.101 N 
HETATM    9  H   UNL     1      31.355  49.625  39.998  1.00  0.00     0.317 HD
BRANCH   8  10
HETATM   10  C   UNL     1      31.354  48.276  41.589  1.00  0.00     0.225 C 
HETATM   11  C   UNL     1      31.300  49.126  42.882  1.00  0.00     0.069 C 
HETATM   12  C   UNL     1      32.181  50.355  42.784  1.00  0.00     0.190 C 
HETATM   13  N   UNL     1      33.594  49.914  42.523  1.00  0.00    -0.067 N 
HETATM   14  C   UNL     1      32.359  51.183  44.040  1.00  0.00     0.035 C 
HETATM   15  H   UNL     1      33.865  49.253  43.266  1.00  0.00     0.280 HD
HETATM   16  C   UNL     1      33.737  49.195  41.219  1.00  0.00     0.237 C 
HETATM   17  C   UNL     1      34.435  51.146  42.739  1.00  0.00     0.235 C 
HETATM   18  C   UNL     1      32.837  47.959  41.260  1.00  0.00     0.063 C 
HETATM   19  C   UNL     1      33.624  51.983  43.733  1.00  0.00     0.030 C 
ENDBRANCH   8  10
ENDBRANCH   1   8
BRANCH   1  20
HETATM   20  C   UNL     1      29.257  50.968  40.167  1.00  0.00    -0.021 A 
HETATM   21  C   UNL     1      29.634  51.945  41.116  1.00  0.00     0.012 A 
HETATM   22  C   UNL     1      29.558  53.310  40.825  1.00  0.00     0.043 A 
HETATM   23  C   UNL     1      29.127  53.717  39.572  1.00  0.00     0.116 A 
HETATM   24  F   UNL     1      29.054  55.023  39.289  1.00  0.00    -0.206 F 
HETATM   25  C   UNL     1      28.788  52.784  38.602  1.00  0.00     0.043 A 
HETATM   26  C   UNL     1      28.867  51.419  38.894  1.00  0.00     0.012 A 
ENDBRANCH   1  20
TORSDOF 4
ENDMDL
MODEL 5
REMARK VINA RESULT:      -7.8      3.143      5.782
REMARK  4 active torsions:
REMARK  status: ('A' for Active; 'I' for Inactive)
REMARK    1  A    between atoms: C_5  and  C_6 
REMARK    2  A    between atoms: C_6  and  N_7 
REMARK    3  A    between atoms: C_6  and  C_18 
REMARK    4  A    between atoms: N_7  and  C_8 
ROOT
HETATM    1  C   UNL     1      27.777  42.146  51.372  1.00  0.00     0.288 C 
ENDROOT
BRANCH   1   2
HETATM    2  C   UNL     1      28.317  40.809  50.892  1.00  0.00    -0.003 A 
HETATM    3  C   UNL     1      28.341  40.451  49.545  1.00  0.00     0.126 A 
HETATM    4  N   UNL     1      28.888  39.308  49.075  1.00  0.00    -0.272 NA
HETATM    5  C   UNL     1      29.402  38.451  49.983  1.00  0.00     0.116 A 
HETATM    6  C   UNL     1      29.421  38.701  51.343  1.00  0.00     0.020 A 
HETATM    7  C   UNL     1      28.878  39.899  51.801  1.00  0.00     0.012 A 
ENDBRANCH   1   2
BRANCH   1   8
HETATM    8  N   UNL     1      26.288  42.150  51.400  1.00  0.00     0.101 N 
HETATM    9  H   UNL     1      26.018  42.620  52.259  1.00  0.00     0.317 HD
BRANCH   8  10
HETATM   10  C   UNL     1      25.584  42.675  50.220  1.00  0.00     0.225 C 
HETATM   11  C   UNL     1      26.288  43.840  49.481  1.00  0.00     0.069 C 
HETATM   12  C   UNL     1      26.327  45.098  50.325  1.00  0.00     0.190 C 
HETATM   13  N   UNL     1      24.917  45.491  50.668  1.00  0.00    -0.067 N 
HETATM   14  C   UNL     1      26.831  46.363  49.662  1.00  0.00     0.035 C 
HETATM   15  H   UNL     1      24.388  45.583  49.789  1.00  0.00     0.280 HD
HETATM   16  C   UNL     1      24.221  44.457  51.495  1.00  0.00     0.237 C 
HETATM   17  C   UNL     1      25.026  46.883  51.234  1.00  0.00     0.235 C 
HETATM   18  C   UNL     1      24.186  43.156  50.694  1.00  0.00     0.063 C 
HETATM   19  C   UNL     1      26.284  47.458  50.576  1.00  0.00     0.030 C 
ENDBRANCH   8  10
ENDBRANCH   1   8
BRANCH   1  20
HETATM   20  C   UNL     1      28.487  42.771  52.579  1.00  0.00    -0.021 A 
HETATM   21  C   UNL     1      27.741  43.538  53.504  1.00  0.00     0.012 A 
HETATM   22  C   UNL     1      28.339  44.092  54.638  1.00  0.00     0.043 A 
HETATM   23  C   UNL     1      29.686  43.868  54.879  1.00  0.00     0.116 A 
HETATM   24  F   UNL     1      30.262  44.396  55.965  1.00  0.00    -0.206 F 
HETATM   25  C   UNL     1      30.438  43.086  54.014  1.00  0.00     0.043 A 
HETATM   26  C   UNL     1      29.839  42.530  52.880  1.00  0.00     0.012 A 
ENDBRANCH   1  20
TORSDOF 4
ENDMDL
MODEL 6
REMARK VINA RESULT:      -7.8      3.846      6.464
REMARK  4 active torsions:
REMARK  status: ('A' for Active; 'I' for Inactive)
REMARK    1  A    between atoms: C_5  and  C_6 
REMARK    2  A    between atoms: C_6  and  N_7 
REMARK    3  A    between atoms: C_6  and  C_18 
REMARK    4  A    between atoms: N_7  and  C_8 
ROOT
HETATM    1  C   UNL     1      25.135  46.320  50.730  1.00  0.00     0.288 C 
ENDROOT
BRANCH   1   2
HETATM    2  C   UNL     1      25.523  47.513  49.872  1.00  0.00    -0.003 A 
HETATM    3  C   UNL     1      24.577  48.362  49.299  1.00  0.00     0.126 A 
HETATM    4  N   UNL     1      24.886  49.478  48.600  1.00  0.00    -0.272 NA
HETATM    5  C   UNL     1      26.195  49.749  48.420  1.00  0.00     0.116 A 
HETATM    6  C   UNL     1      27.215  48.969  48.934  1.00  0.00     0.020 A 
HETATM    7  C   UNL     1      26.872  47.841  49.675  1.00  0.00     0.012 A 
ENDBRANCH   1   2
BRANCH   1   8
HETATM    8  N   UNL     1      25.059  45.072  49.920  1.00  0.00     0.101 N 
HETATM    9  H   UNL     1      26.004  44.701  49.875  1.00  0.00     0.317 HD
BRANCH   8  10
HETATM   10  C   UNL     1      24.069  44.059  50.317  1.00  0.00     0.225 C 
HETATM   11  C   UNL     1      24.642  42.792  50.998  1.00  0.00     0.069 C 
HETATM   12  C   UNL     1      25.471  41.963  50.039  1.00  0.00     0.190 C 
HETATM   13  N   UNL     1      24.608  41.568  48.874  1.00  0.00    -0.067 N 
HETATM   14  C   UNL     1      25.948  40.610  50.523  1.00  0.00     0.035 C 
HETATM   15  H   UNL     1      23.775  41.087  49.242  1.00  0.00     0.280 HD
HETATM   16  C   UNL     1      24.125  42.750  48.093  1.00  0.00     0.237 C 
HETATM   17  C   UNL     1      25.400  40.519  48.137  1.00  0.00     0.235 C 
HETATM   18  C   UNL     1      23.306  43.635  49.034  1.00  0.00     0.063 C 
HETATM   19  C   UNL     1      26.284  39.889  49.218  1.00  0.00     0.030 C 
ENDBRANCH   8  10
ENDBRANCH   1   8
BRANCH   1  20
HETATM   20  C   UNL     1      25.827  46.211  52.094  1.00  0.00    -0.021 A 
HETATM   21  C   UNL     1      26.763  45.177  52.318  1.00  0.00     0.012 A 
HETATM   22  C   UNL     1      27.446  45.064  53.532  1.00  0.00     0.043 A 
HETATM   23  C   UNL     1      27.222  45.999  54.530  1.00  0.00     0.116 A 
HETATM   24  F   UNL     1      27.875  45.896  55.694  1.00  0.00    -0.206 F 
HETATM   25  C   UNL     1      26.340  47.051  54.330  1.00  0.00     0.043 A 
HETATM   26  C   UNL     1      25.658  47.164  53.114  1.00  0.00     0.012 A 
ENDBRANCH   1  20
TORSDOF 4
ENDMDL
MODEL 7
REMARK VINA RESULT:      -7.7     13.817     15.633
REMARK  4 active torsions:
REMARK  status: ('A' for Active; 'I' for Inactive)
REMARK    1  A    between atoms: C_5  and  C_6 
REMARK    2  A    between atoms: C_6  and  N_7 
REMARK    3  A    between atoms: C_6  and  C_18 
REMARK    4  A    between atoms: N_7  and  C_8 
ROOT
HETATM    1  C   UNL     1      36.118  44.279  65.111  1.00  0.00     0.288 C 
ENDROOT
BRANCH   1   2
HETATM    2  C   UNL     1      35.157  43.775  66.175  1.00  0.00    -0.003 A 
HETATM    3  C   UNL     1      35.317  44.070  67.529  1.00  0.00     0.126 A 
HETATM    4  N   UNL     1      34.439  43.710  68.491  1.00  0.00    -0.272 NA
HETATM    5  C   UNL     1      33.367  42.985  68.107  1.00  0.00     0.116 A 
HETATM    6  C   UNL     1      33.117  42.628  66.794  1.00  0.00     0.020 A 
HETATM    7  C   UNL     1      34.020  43.035  65.817  1.00  0.00     0.012 A 
ENDBRANCH   1   2
BRANCH   1   8
HETATM    8  N   UNL     1      36.764  45.557  65.525  1.00  0.00     0.101 N 
HETATM    9  H   UNL     1      37.745  45.477  65.274  1.00  0.00     0.317 HD
BRANCH   8  10
HETATM   10  C   UNL     1      36.157  46.812  65.057  1.00  0.00     0.225 C 
HETATM   11  C   UNL     1      37.114  47.789  64.329  1.00  0.00     0.069 C 
HETATM   12  C   UNL     1      38.159  48.355  65.268  1.00  0.00     0.190 C 
HETATM   13  N   UNL     1      37.461  49.069  66.392  1.00  0.00    -0.067 N 
HETATM   14  C   UNL     1      39.052  49.455  64.731  1.00  0.00     0.035 C 
HETATM   15  H   UNL     1      36.831  49.772  65.980  1.00  0.00     0.280 HD
HETATM   16  C   UNL     1      36.617  48.149  67.216  1.00  0.00     0.237 C 
HETATM   17  C   UNL     1      38.544  49.844  67.096  1.00  0.00     0.235 C 
HETATM   18  C   UNL     1      35.563  47.527  66.299  1.00  0.00     0.063 C 
HETATM   19  C   UNL     1      39.593  50.097  66.008  1.00  0.00     0.030 C 
ENDBRANCH   8  10
ENDBRANCH   1   8
BRANCH   1  20
HETATM   20  C   UNL     1      37.029  43.228  64.466  1.00  0.00    -0.021 A 
HETATM   21  C   UNL     1      37.777  43.568  63.316  1.00  0.00     0.012 A 
HETATM   22  C   UNL     1      38.650  42.654  62.720  1.00  0.00     0.043 A 
HETATM   23  C   UNL     1      38.807  41.396  63.280  1.00  0.00     0.116 A 
HETATM   24  F   UNL     1      39.644  40.518  62.713  1.00  0.00    -0.206 F 
HETATM   25  C   UNL     1      38.120  41.043  64.432  1.00  0.00     0.043 A 
HETATM   26  C   UNL     1      37.248  41.958  65.029  1.00  0.00     0.012 A 
ENDBRANCH   1  20
TORSDOF 4
ENDMDL
MODEL 8
REMARK VINA RESULT:      -7.6      8.296     10.760
REMARK  4 active torsions:
REMARK  status: ('A' for Active; 'I' for Inactive)
REMARK    1  A    between atoms: C_5  and  C_6 
REMARK    2  A    between atoms: C_6  and  N_7 
REMARK    3  A    between atoms: C_6  and  C_18 
REMARK    4  A    between atoms: N_7  and  C_8 
ROOT
HETATM    1  C   UNL     1      21.577  48.622  48.393  1.00  0.00     0.288 C 
ENDROOT
BRANCH   1   2
HETATM    2  C   UNL     1      23.054  48.908  48.605  1.00  0.00    -0.003 A 
HETATM    3  C   UNL     1      23.824  48.216  49.539  1.00  0.00     0.126 A 
HETATM    4  N   UNL     1      25.156  48.385  49.695  1.00  0.00    -0.272 NA
HETATM    5  C   UNL     1      25.755  49.315  48.921  1.00  0.00     0.116 A 
HETATM    6  C   UNL     1      25.085  50.064  47.972  1.00  0.00     0.020 A 
HETATM    7  C   UNL     1      23.719  49.852  47.808  1.00  0.00     0.012 A 
ENDBRANCH   1   2
BRANCH   1   8
HETATM    8  N   UNL     1      21.223  47.243  48.833  1.00  0.00     0.101 N 
HETATM    9  H   UNL     1      20.356  47.323  49.357  1.00  0.00     0.317 HD
BRANCH   8  10
HETATM   10  C   UNL     1      21.173  46.190  47.808  1.00  0.00     0.225 C 
HETATM   11  C   UNL     1      20.831  46.664  46.375  1.00  0.00     0.069 C 
HETATM   12  C   UNL     1      19.407  47.172  46.275  1.00  0.00     0.190 C 
HETATM   13  N   UNL     1      18.473  46.067  46.682  1.00  0.00    -0.067 N 
HETATM   14  C   UNL     1      18.884  47.506  44.894  1.00  0.00     0.035 C 
HETATM   15  H   UNL     1      18.675  45.246  46.094  1.00  0.00     0.280 HD
HETATM   16  C   UNL     1      18.667  45.650  48.105  1.00  0.00     0.237 C 
HETATM   17  C   UNL     1      17.103  46.543  46.273  1.00  0.00     0.235 C 
HETATM   18  C   UNL     1      20.107  45.157  48.261  1.00  0.00     0.063 C 
HETATM   19  C   UNL     1      17.370  47.491  45.099  1.00  0.00     0.030 C 
ENDBRANCH   8  10
ENDBRANCH   1   8
BRANCH   1  20
HETATM   20  C   UNL     1      20.605  49.739  48.791  1.00  0.00    -0.021 A 
HETATM   21  C   UNL     1      19.710  49.532  49.866  1.00  0.00     0.012 A 
HETATM   22  C   UNL     1      18.836  50.537  50.288  1.00  0.00     0.043 A 
HETATM   23  C   UNL     1      18.860  51.771  49.659  1.00  0.00     0.116 A 
HETATM   24  F   UNL     1      18.025  52.737  50.061  1.00  0.00    -0.206 F 
HETATM   25  C   UNL     1      19.753  52.023  48.628  1.00  0.00     0.043 A 
HETATM   26  C   UNL     1      20.630  51.018  48.207  1.00  0.00     0.012 A 
ENDBRANCH   1  20
TORSDOF 4
ENDMDL
MODEL 9
REMARK VINA RESULT:      -7.5     13.681     15.777
REMARK  4 active torsions:
REMARK  status: ('A' for Active; 'I' for Inactive)
REMARK    1  A    between atoms: C_5  and  C_6 
REMARK    2  A    between atoms: C_6  and  N_7 
REMARK    3  A    between atoms: C_6  and  C_18 
REMARK    4  A    between atoms: N_7  and  C_8 
ROOT
HETATM    1  C   UNL     1      30.728  50.296  40.660  1.00  0.00     0.288 C 
ENDROOT
BRANCH   1   2
HETATM    2  C   UNL     1      30.114  51.330  39.731  1.00  0.00    -0.003 A 
HETATM    3  C   UNL     1      29.981  51.120  38.359  1.00  0.00     0.126 A 
HETATM    4  N   UNL     1      29.366  51.981  37.517  1.00  0.00    -0.272 NA
HETATM    5  C   UNL     1      28.894  53.129  38.046  1.00  0.00     0.116 A 
HETATM    6  C   UNL     1      28.981  53.443  39.390  1.00  0.00     0.020 A 
HETATM    7  C   UNL     1      29.593  52.528  40.243  1.00  0.00     0.012 A 
ENDBRANCH   1   2
BRANCH   1   8
HETATM    8  N   UNL     1      30.962  49.005  39.954  1.00  0.00     0.101 N 
HETATM    9  H   UNL     1      31.966  48.928  39.821  1.00  0.00     0.317 HD
BRANCH   8  10
HETATM   10  C   UNL     1      30.371  47.790  40.536  1.00  0.00     0.225 C 
HETATM   11  C   UNL     1      30.269  46.572  39.585  1.00  0.00     0.069 C 
HETATM   12  C   UNL     1      29.279  46.815  38.464  1.00  0.00     0.190 C 
HETATM   13  N   UNL     1      27.933  47.105  39.065  1.00  0.00    -0.067 N 
HETATM   14  C   UNL     1      28.952  45.644  37.561  1.00  0.00     0.035 C 
HETATM   15  H   UNL     1      27.686  46.324  39.689  1.00  0.00     0.280 HD
HETATM   16  C   UNL     1      27.934  48.350  39.895  1.00  0.00     0.237 C 
HETATM   17  C   UNL     1      26.966  47.035  37.911  1.00  0.00     0.235 C 
HETATM   18  C   UNL     1      28.946  48.162  41.026  1.00  0.00     0.063 C 
HETATM   19  C   UNL     1      27.634  46.077  36.920  1.00  0.00     0.030 C 
ENDBRANCH   8  10
ENDBRANCH   1   8
BRANCH   1  20
HETATM   20  C   UNL     1      31.854  50.789  41.576  1.00  0.00    -0.021 A 
HETATM   21  C   UNL     1      31.575  51.061  42.935  1.00  0.00     0.012 A 
HETATM   22  C   UNL     1      32.579  51.474  43.815  1.00  0.00     0.043 A 
HETATM   23  C   UNL     1      33.880  51.597  43.356  1.00  0.00     0.116 A 
HETATM   24  F   UNL     1      34.845  51.991  44.196  1.00  0.00    -0.206 F 
HETATM   25  C   UNL     1      34.197  51.299  42.038  1.00  0.00     0.043 A 
HETATM   26  C   UNL     1      33.193  50.884  41.158  1.00  0.00     0.012 A 
ENDBRANCH   1  20
TORSDOF 4
ENDMDL
MODEL 10
REMARK VINA RESULT:      -7.4     14.252     15.869
REMARK  4 active torsions:
REMARK  status: ('A' for Active; 'I' for Inactive)
REMARK    1  A    between atoms: C_5  and  C_6 
REMARK    2  A    between atoms: C_6  and  N_7 
REMARK    3  A    between atoms: C_6  and  C_18 
REMARK    4  A    between atoms: N_7  and  C_8 
ROOT
HETATM    1  C   UNL     1      39.662  46.172  64.735  1.00  0.00     0.288 C 
ENDROOT
BRANCH   1   2
HETATM    2  C   UNL     1      41.125  45.951  65.081  1.00  0.00    -0.003 A 
HETATM    3  C   UNL     1      41.564  45.761  66.390  1.00  0.00     0.126 A 
HETATM    4  N   UNL     1      42.843  45.479  66.726  1.00  0.00    -0.272 NA
HETATM    5  C   UNL     1      43.746  45.423  65.725  1.00  0.00     0.116 A 
HETATM    6  C   UNL     1      43.421  45.607  64.393  1.00  0.00     0.020 A 
HETATM    7  C   UNL     1      42.092  45.866  64.068  1.00  0.00     0.012 A 
ENDBRANCH   1   2
BRANCH   1   8
HETATM    8  N   UNL     1      38.840  44.973  65.062  1.00  0.00     0.101 N 
HETATM    9  H   UNL     1      38.269  45.225  65.863  1.00  0.00     0.317 HD
BRANCH   8  10
HETATM   10  C   UNL     1      38.057  44.363  63.976  1.00  0.00     0.225 C 
HETATM   11  C   UNL     1      37.321  43.050  64.335  1.00  0.00     0.069 C 
HETATM   12  C   UNL     1      38.291  41.917  64.605  1.00  0.00     0.190 C 
HETATM   13  N   UNL     1      39.138  41.707  63.382  1.00  0.00    -0.067 N 
HETATM   14  C   UNL     1      37.706  40.534  64.799  1.00  0.00     0.035 C 
HETATM   15  H   UNL     1      38.509  41.549  62.582  1.00  0.00     0.280 HD
HETATM   16  C   UNL     1      39.975  42.903  63.055  1.00  0.00     0.237 C 
HETATM   17  C   UNL     1      39.848  40.399  63.617  1.00  0.00     0.235 C 
HETATM   18  C   UNL     1      39.036  44.083  62.804  1.00  0.00     0.063 C 
HETATM   19  C   UNL     1      38.911  39.626  64.550  1.00  0.00     0.030 C 
ENDBRANCH   8  10
ENDBRANCH   1   8
BRANCH   1  20
HETATM   20  C   UNL     1      39.071  47.534  65.120  1.00  0.00    -0.021 A 
HETATM   21  C   UNL     1      39.836  48.705  64.920  1.00  0.00     0.012 A 
HETATM   22  C   UNL     1      39.322  49.969  65.220  1.00  0.00     0.043 A 
HETATM   23  C   UNL     1      38.026  50.083  65.700  1.00  0.00     0.116 A 
HETATM   24  F   UNL     1      37.530  51.292  65.986  1.00  0.00    -0.206 F 
HETATM   25  C   UNL     1      37.233  48.957  65.869  1.00  0.00     0.043 A 
HETATM   26  C   UNL     1      37.747  47.692  65.567  1.00  0.00     0.012 A 
ENDBRANCH   1  20
TORSDOF 4
ENDMDL
