MODEL 1
REMARK VINA RESULT:     -10.0      0.000      0.000
REMARK  6 active torsions:
REMARK  status: ('A' for Active; 'I' for Inactive)
REMARK    1  A    between atoms: C_7  and  C_8 
REMARK    2  A    between atoms: N_9  and  N_10 
REMARK       I    between atoms: N_10  and  C_11 
REMARK    3  A    between atoms: C_11  and  C_12 
REMARK    4  A    between atoms: C_12  and  N_13 
REMARK       I    between atoms: N_13  and  C_14 
REMARK    5  A    between atoms: C_14  and  C_15 
REMARK    6  A    between atoms: C_16  and  C_17 
ROOT
HETATM    1  N   UNL     1      24.999  44.545  50.376  1.00  0.00    -0.246 N 
HETATM    2  C   UNL     1      26.119  43.745  50.200  1.00  0.00     0.255 C 
HETATM    3  O   UNL     1      27.041  43.956  49.414  1.00  0.00    -0.270 OA
HETATM    4  H   UNL     1      24.260  44.240  51.014  1.00  0.00     0.192 HD
ENDROOT
BRANCH   1   5
HETATM    5  N   UNL     1      24.848  45.680  49.636  1.00  0.00    -0.184 NA
HETATM    6  C   UNL     1      25.256  46.772  50.196  1.00  0.00     0.153 C 
BRANCH   6   7
HETATM    7  C   UNL     1      25.144  48.035  49.489  1.00  0.00     0.018 A 
HETATM    8  C   UNL     1      26.229  48.794  49.066  1.00  0.00     0.018 A 
HETATM    9  C   UNL     1      27.691  48.565  49.195  1.00  0.00     0.069 C 
HETATM   10  N   UNL     1      25.736  49.911  48.436  1.00  0.00    -0.358 N 
HETATM   11  H   UNL     1      26.298  50.643  48.024  1.00  0.00     0.166 HD
HETATM   12  C   UNL     1      24.363  49.904  48.436  1.00  0.00     0.043 A 
HETATM   13  C   UNL     1      23.958  48.740  49.087  1.00  0.00     0.004 A 
HETATM   14  C   UNL     1      23.460  50.835  47.907  1.00  0.00     0.030 A 
HETATM   15  C   UNL     1      22.572  48.500  49.217  1.00  0.00     0.014 A 
HETATM   16  C   UNL     1      21.654  49.420  48.696  1.00  0.00     0.001 A 
HETATM   17  C   UNL     1      22.096  50.570  48.050  1.00  0.00     0.002 A 
ENDBRANCH   6   7
ENDBRANCH   1   5
BRANCH   2  18
HETATM   18  C   UNL     1      26.131  42.536  51.134  1.00  0.00     0.227 C 
BRANCH  18  19
HETATM   19  N   UNL     1      26.791  42.820  52.398  1.00  0.00    -0.349 N 
HETATM   20  C   UNL     1      28.079  42.423  52.640  1.00  0.00     0.241 C 
HETATM   21  O   UNL     1      28.781  41.882  51.792  1.00  0.00    -0.269 OA
HETATM   22  H   UNL     1      26.281  43.364  53.080  1.00  0.00     0.163 HD
BRANCH  20  23
HETATM   23  C   UNL     1      28.545  42.745  54.008  1.00  0.00     0.075 C 
HETATM   24  C   UNL     1      29.561  43.603  54.181  1.00  0.00     0.017 C 
BRANCH  24  25
HETATM   25  C   UNL     1      30.108  43.999  55.489  1.00  0.00    -0.036 A 
HETATM   26  C   UNL     1      31.054  43.230  56.181  1.00  0.00     0.011 A 
HETATM   27  C   UNL     1      31.562  43.661  57.409  1.00  0.00     0.001 A 
HETATM   28  C   UNL     1      31.142  44.872  57.954  1.00  0.00     0.000 A 
HETATM   29  C   UNL     1      30.217  45.655  57.269  1.00  0.00     0.001 A 
HETATM   30  C   UNL     1      29.707  45.223  56.041  1.00  0.00     0.011 A 
ENDBRANCH  24  25
ENDBRANCH  20  23
ENDBRANCH  18  19
ENDBRANCH   2  18
TORSDOF 6
ENDMDL
MODEL 2
REMARK VINA RESULT:      -9.8      2.989     10.439
REMARK  6 active torsions:
REMARK  status: ('A' for Active; 'I' for Inactive)
REMARK    1  A    between atoms: C_7  and  C_8 
REMARK    2  A    between atoms: N_9  and  N_10 
REMARK       I    between atoms: N_10  and  C_11 
REMARK    3  A    between atoms: C_11  and  C_12 
REMARK    4  A    between atoms: C_12  and  N_13 
REMARK       I    between atoms: N_13  and  C_14 
REMARK    5  A    between atoms: C_14  and  C_15 
REMARK    6  A    between atoms: C_16  and  C_17 
ROOT
HETATM    1  N   UNL     1      25.371  45.764  51.128  1.00  0.00    -0.246 N 
HETATM    2  C   UNL     1      24.739  46.790  50.439  1.00  0.00     0.255 C 
HETATM    3  O   UNL     1      24.994  47.989  50.538  1.00  0.00    -0.270 OA
HETATM    4  H   UNL     1      25.034  44.804  51.017  1.00  0.00     0.192 HD
ENDROOT
BRANCH   1   5
HETATM    5  N   UNL     1      26.370  46.048  52.010  1.00  0.00    -0.184 NA
HETATM    6  C   UNL     1      26.311  45.426  53.142  1.00  0.00     0.153 C 
BRANCH   6   7
HETATM    7  C   UNL     1      27.331  45.656  54.150  1.00  0.00     0.018 A 
HETATM    8  C   UNL     1      27.352  46.749  55.007  1.00  0.00     0.018 A 
HETATM    9  C   UNL     1      26.426  47.903  55.142  1.00  0.00     0.069 C 
HETATM   10  N   UNL     1      28.455  46.624  55.816  1.00  0.00    -0.358 N 
HETATM   11  H   UNL     1      28.724  47.276  56.539  1.00  0.00     0.166 HD
HETATM   12  C   UNL     1      29.155  45.482  55.511  1.00  0.00     0.043 A 
HETATM   13  C   UNL     1      28.476  44.850  54.471  1.00  0.00     0.004 A 
HETATM   14  C   UNL     1      30.328  44.969  56.080  1.00  0.00     0.030 A 
HETATM   15  C   UNL     1      29.005  43.638  53.973  1.00  0.00     0.014 A 
HETATM   16  C   UNL     1      30.177  43.110  54.528  1.00  0.00     0.001 A 
HETATM   17  C   UNL     1      30.827  43.768  55.568  1.00  0.00     0.002 A 
ENDBRANCH   6   7
ENDBRANCH   1   5
BRANCH   2  18
HETATM   18  C   UNL     1      23.669  46.280  49.475  1.00  0.00     0.227 C 
BRANCH  18  19
HETATM   19  N   UNL     1      22.635  47.269  49.222  1.00  0.00    -0.349 N 
HETATM   20  C   UNL     1      22.040  47.388  47.995  1.00  0.00     0.241 C 
HETATM   21  O   UNL     1      22.276  46.627  47.062  1.00  0.00    -0.269 OA
HETATM   22  H   UNL     1      22.333  47.840  50.001  1.00  0.00     0.163 HD
BRANCH  20  23
HETATM   23  C   UNL     1      21.063  48.499  47.921  1.00  0.00     0.075 C 
HETATM   24  C   UNL     1      20.723  49.162  49.036  1.00  0.00     0.017 C 
BRANCH  24  25
HETATM   25  C   UNL     1      19.766  50.280  49.084  1.00  0.00    -0.036 A 
HETATM   26  C   UNL     1      18.633  50.276  49.909  1.00  0.00     0.011 A 
HETATM   27  C   UNL     1      17.768  51.373  49.939  1.00  0.00     0.001 A 
HETATM   28  C   UNL     1      18.034  52.494  49.155  1.00  0.00     0.000 A 
HETATM   29  C   UNL     1      19.166  52.520  48.345  1.00  0.00     0.001 A 
HETATM   30  C   UNL     1      20.030  51.421  48.314  1.00  0.00     0.011 A 
ENDBRANCH  24  25
ENDBRANCH  20  23
ENDBRANCH  18  19
ENDBRANCH   2  18
TORSDOF 6
ENDMDL
MODEL 3
REMARK VINA RESULT:      -9.6      1.402      1.948
REMARK  6 active torsions:
REMARK  status: ('A' for Active; 'I' for Inactive)
REMARK    1  A    between atoms: C_7  and  C_8 
REMARK    2  A    between atoms: N_9  and  N_10 
REMARK       I    between atoms: N_10  and  C_11 
REMARK    3  A    between atoms: C_11  and  C_12 
REMARK    4  A    between atoms: C_12  and  N_13 
REMARK       I    between atoms: N_13  and  C_14 
REMARK    5  A    between atoms: C_14  and  C_15 
REMARK    6  A    between atoms: C_16  and  C_17 
ROOT
HETATM    1  N   UNL     1      25.026  46.448  50.721  1.00  0.00    -0.246 N 
HETATM    2  C   UNL     1      26.192  45.940  50.164  1.00  0.00     0.255 C 
HETATM    3  O   UNL     1      26.921  46.521  49.362  1.00  0.00    -0.270 OA
HETATM    4  H   UNL     1      24.461  45.852  51.330  1.00  0.00     0.192 HD
ENDROOT
BRANCH   1   5
HETATM    5  N   UNL     1      24.597  47.697  50.383  1.00  0.00    -0.184 NA
HETATM    6  C   UNL     1      23.737  47.752  49.419  1.00  0.00     0.153 C 
BRANCH   6   7
HETATM    7  C   UNL     1      23.213  49.035  48.987  1.00  0.00     0.018 A 
HETATM    8  C   UNL     1      23.970  50.019  48.363  1.00  0.00     0.018 A 
HETATM    9  C   UNL     1      25.406  50.054  47.982  1.00  0.00     0.069 C 
HETATM   10  N   UNL     1      23.139  51.082  48.101  1.00  0.00    -0.358 N 
HETATM   11  H   UNL     1      23.418  51.942  47.650  1.00  0.00     0.166 HD
HETATM   12  C   UNL     1      21.864  50.821  48.537  1.00  0.00     0.043 A 
HETATM   13  C   UNL     1      21.874  49.544  49.097  1.00  0.00     0.004 A 
HETATM   14  C   UNL     1      20.712  51.616  48.473  1.00  0.00     0.030 A 
HETATM   15  C   UNL     1      20.663  49.040  49.623  1.00  0.00     0.014 A 
HETATM   16  C   UNL     1      19.503  49.820  49.569  1.00  0.00     0.001 A 
HETATM   17  C   UNL     1      19.530  51.090  49.000  1.00  0.00     0.002 A 
ENDBRANCH   6   7
ENDBRANCH   1   5
BRANCH   2  18
HETATM   18  C   UNL     1      26.530  44.543  50.682  1.00  0.00     0.227 C 
BRANCH  18  19
HETATM   19  N   UNL     1      27.128  44.574  52.007  1.00  0.00    -0.349 N 
HETATM   20  C   UNL     1      27.672  43.453  52.574  1.00  0.00     0.241 C 
HETATM   21  O   UNL     1      27.766  42.383  51.983  1.00  0.00    -0.269 OA
HETATM   22  H   UNL     1      27.171  45.467  52.480  1.00  0.00     0.163 HD
BRANCH  20  23
HETATM   23  C   UNL     1      28.166  43.675  53.953  1.00  0.00     0.075 C 
HETATM   24  C   UNL     1      29.472  43.896  54.166  1.00  0.00     0.017 C 
BRANCH  24  25
HETATM   25  C   UNL     1      30.075  44.129  55.488  1.00  0.00    -0.036 A 
HETATM   26  C   UNL     1      30.980  43.236  56.078  1.00  0.00     0.011 A 
HETATM   27  C   UNL     1      31.546  43.514  57.325  1.00  0.00     0.001 A 
HETATM   28  C   UNL     1      31.226  44.696  57.990  1.00  0.00     0.000 A 
HETATM   29  C   UNL     1      30.344  45.601  57.407  1.00  0.00     0.001 A 
HETATM   30  C   UNL     1      29.776  45.321  56.161  1.00  0.00     0.011 A 
ENDBRANCH  24  25
ENDBRANCH  20  23
ENDBRANCH  18  19
ENDBRANCH   2  18
TORSDOF 6
ENDMDL
MODEL 4
REMARK VINA RESULT:      -8.9      1.583      2.512
REMARK  6 active torsions:
REMARK  status: ('A' for Active; 'I' for Inactive)
REMARK    1  A    between atoms: C_7  and  C_8 
REMARK    2  A    between atoms: N_9  and  N_10 
REMARK       I    between atoms: N_10  and  C_11 
REMARK    3  A    between atoms: C_11  and  C_12 
REMARK    4  A    between atoms: C_12  and  N_13 
REMARK       I    between atoms: N_13  and  C_14 
REMARK    5  A    between atoms: C_14  and  C_15 
REMARK    6  A    between atoms: C_16  and  C_17 
ROOT
HETATM    1  N   UNL     1      25.145  44.148  49.352  1.00  0.00    -0.246 N 
HETATM    2  C   UNL     1      26.493  44.147  49.679  1.00  0.00     0.255 C 
HETATM    3  O   UNL     1      27.266  45.096  49.558  1.00  0.00    -0.270 OA
HETATM    4  H   UNL     1      24.609  43.280  49.433  1.00  0.00     0.192 HD
ENDROOT
BRANCH   1   5
HETATM    5  N   UNL     1      24.567  45.271  48.841  1.00  0.00    -0.184 NA
HETATM    6  C   UNL     1      23.372  45.528  49.264  1.00  0.00     0.153 C 
BRANCH   6   7
HETATM    7  C   UNL     1      22.671  46.706  48.783  1.00  0.00     0.018 A 
HETATM    8  C   UNL     1      21.341  46.714  48.383  1.00  0.00     0.018 A 
HETATM    9  C   UNL     1      20.328  45.628  48.329  1.00  0.00     0.069 C 
HETATM   10  N   UNL     1      21.029  47.997  47.999  1.00  0.00    -0.358 N 
HETATM   11  H   UNL     1      20.127  48.301  47.662  1.00  0.00     0.166 HD
HETATM   12  C   UNL     1      22.116  48.824  48.138  1.00  0.00     0.043 A 
HETATM   13  C   UNL     1      23.164  48.046  48.629  1.00  0.00     0.004 A 
HETATM   14  C   UNL     1      22.243  50.193  47.868  1.00  0.00     0.030 A 
HETATM   15  C   UNL     1      24.407  48.678  48.860  1.00  0.00     0.014 A 
HETATM   16  C   UNL     1      24.554  50.044  48.595  1.00  0.00     0.001 A 
HETATM   17  C   UNL     1      23.484  50.789  48.107  1.00  0.00     0.002 A 
ENDBRANCH   6   7
ENDBRANCH   1   5
BRANCH   2  18
HETATM   18  C   UNL     1      26.956  42.813  50.264  1.00  0.00     0.227 C 
BRANCH  18  19
HETATM   19  N   UNL     1      27.792  42.986  51.441  1.00  0.00    -0.349 N 
HETATM   20  C   UNL     1      28.455  41.933  52.010  1.00  0.00     0.241 C 
HETATM   21  O   UNL     1      28.458  40.805  51.528  1.00  0.00    -0.269 OA
HETATM   22  H   UNL     1      27.905  43.924  51.801  1.00  0.00     0.163 HD
BRANCH  20  23
HETATM   23  C   UNL     1      29.196  42.300  53.239  1.00  0.00     0.075 C 
HETATM   24  C   UNL     1      28.981  43.493  53.815  1.00  0.00     0.017 C 
BRANCH  24  25
HETATM   25  C   UNL     1      29.656  43.965  55.035  1.00  0.00    -0.036 A 
HETATM   26  C   UNL     1      30.724  43.276  55.627  1.00  0.00     0.011 A 
HETATM   27  C   UNL     1      31.349  43.778  56.772  1.00  0.00     0.001 A 
HETATM   28  C   UNL     1      30.924  44.982  57.329  1.00  0.00     0.000 A 
HETATM   29  C   UNL     1      29.878  45.686  56.741  1.00  0.00     0.001 A 
HETATM   30  C   UNL     1      29.251  45.183  55.597  1.00  0.00     0.011 A 
ENDBRANCH  24  25
ENDBRANCH  20  23
ENDBRANCH  18  19
ENDBRANCH   2  18
TORSDOF 6
ENDMDL
MODEL 5
REMARK VINA RESULT:      -8.9      2.425      8.999
REMARK  6 active torsions:
REMARK  status: ('A' for Active; 'I' for Inactive)
REMARK    1  A    between atoms: C_7  and  C_8 
REMARK    2  A    between atoms: N_9  and  N_10 
REMARK       I    between atoms: N_10  and  C_11 
REMARK    3  A    between atoms: C_11  and  C_12 
REMARK    4  A    between atoms: C_12  and  N_13 
REMARK       I    between atoms: N_13  and  C_14 
REMARK    5  A    between atoms: C_14  and  C_15 
REMARK    6  A    between atoms: C_16  and  C_17 
ROOT
HETATM    1  N   UNL     1      25.143  44.104  51.732  1.00  0.00    -0.246 N 
HETATM    2  C   UNL     1      25.155  42.962  50.943  1.00  0.00     0.255 C 
HETATM    3  O   UNL     1      25.903  41.996  51.084  1.00  0.00    -0.270 OA
HETATM    4  H   UNL     1      24.520  44.877  51.484  1.00  0.00     0.192 HD
ENDROOT
BRANCH   1   5
HETATM    5  N   UNL     1      26.017  44.226  52.770  1.00  0.00    -0.184 NA
HETATM    6  C   UNL     1      26.489  45.413  52.968  1.00  0.00     0.153 C 
BRANCH   6   7
HETATM    7  C   UNL     1      27.425  45.650  54.053  1.00  0.00     0.018 A 
HETATM    8  C   UNL     1      27.360  46.735  54.918  1.00  0.00     0.018 A 
HETATM    9  C   UNL     1      26.406  47.872  54.992  1.00  0.00     0.069 C 
HETATM   10  N   UNL     1      28.401  46.621  55.808  1.00  0.00    -0.358 N 
HETATM   11  H   UNL     1      28.602  47.270  56.556  1.00  0.00     0.166 HD
HETATM   12  C   UNL     1      29.142  45.495  55.549  1.00  0.00     0.043 A 
HETATM   13  C   UNL     1      28.557  44.861  54.454  1.00  0.00     0.004 A 
HETATM   14  C   UNL     1      30.277  44.996  56.202  1.00  0.00     0.030 A 
HETATM   15  C   UNL     1      29.144  43.663  53.988  1.00  0.00     0.014 A 
HETATM   16  C   UNL     1      30.279  43.150  54.627  1.00  0.00     0.001 A 
HETATM   17  C   UNL     1      30.835  43.809  55.719  1.00  0.00     0.002 A 
ENDBRANCH   6   7
ENDBRANCH   1   5
BRANCH   2  18
HETATM   18  C   UNL     1      24.088  42.990  49.850  1.00  0.00     0.227 C 
BRANCH  18  19
HETATM   19  N   UNL     1      23.654  44.342  49.535  1.00  0.00    -0.349 N 
HETATM   20  C   UNL     1      22.504  44.580  48.833  1.00  0.00     0.241 C 
HETATM   21  O   UNL     1      21.728  43.691  48.500  1.00  0.00    -0.269 OA
HETATM   22  H   UNL     1      24.211  45.107  49.892  1.00  0.00     0.163 HD
BRANCH  20  23
HETATM   23  C   UNL     1      22.273  46.017  48.554  1.00  0.00     0.075 C 
HETATM   24  C   UNL     1      23.114  46.935  49.052  1.00  0.00     0.017 C 
BRANCH  24  25
HETATM   25  C   UNL     1      22.987  48.386  48.840  1.00  0.00    -0.036 A 
HETATM   26  C   UNL     1      21.784  49.080  49.036  1.00  0.00     0.011 A 
HETATM   27  C   UNL     1      21.720  50.463  48.846  1.00  0.00     0.001 A 
HETATM   28  C   UNL     1      22.860  51.171  48.474  1.00  0.00     0.000 A 
HETATM   29  C   UNL     1      24.065  50.499  48.294  1.00  0.00     0.001 A 
HETATM   30  C   UNL     1      24.129  49.115  48.482  1.00  0.00     0.011 A 
ENDBRANCH  24  25
ENDBRANCH  20  23
ENDBRANCH  18  19
ENDBRANCH   2  18
TORSDOF 6
ENDMDL
MODEL 6
REMARK VINA RESULT:      -8.9      1.551      2.212
REMARK  6 active torsions:
REMARK  status: ('A' for Active; 'I' for Inactive)
REMARK    1  A    between atoms: C_7  and  C_8 
REMARK    2  A    between atoms: N_9  and  N_10 
REMARK       I    between atoms: N_10  and  C_11 
REMARK    3  A    between atoms: C_11  and  C_12 
REMARK    4  A    between atoms: C_12  and  N_13 
REMARK       I    between atoms: N_13  and  C_14 
REMARK    5  A    between atoms: C_14  and  C_15 
REMARK    6  A    between atoms: C_16  and  C_17 
ROOT
HETATM    1  N   UNL     1      24.354  45.264  49.994  1.00  0.00    -0.246 N 
HETATM    2  C   UNL     1      23.613  44.112  50.220  1.00  0.00     0.255 C 
HETATM    3  O   UNL     1      22.432  43.944  49.922  1.00  0.00    -0.270 OA
HETATM    4  H   UNL     1      25.314  45.318  50.341  1.00  0.00     0.192 HD
ENDROOT
BRANCH   1   5
HETATM    5  N   UNL     1      23.774  46.342  49.395  1.00  0.00    -0.184 NA
HETATM    6  C   UNL     1      24.345  47.480  49.616  1.00  0.00     0.153 C 
BRANCH   6   7
HETATM    7  C   UNL     1      23.807  48.690  49.019  1.00  0.00     0.018 A 
HETATM    8  C   UNL     1      24.584  49.697  48.459  1.00  0.00     0.018 A 
HETATM    9  C   UNL     1      26.056  49.831  48.312  1.00  0.00     0.069 C 
HETATM   10  N   UNL     1      23.732  50.671  47.997  1.00  0.00    -0.358 N 
HETATM   11  H   UNL     1      24.017  51.525  47.538  1.00  0.00     0.166 HD
HETATM   12  C   UNL     1      22.424  50.329  48.238  1.00  0.00     0.043 A 
HETATM   13  C   UNL     1      22.435  49.091  48.878  1.00  0.00     0.004 A 
HETATM   14  C   UNL     1      21.244  51.021  47.937  1.00  0.00     0.030 A 
HETATM   15  C   UNL     1      21.194  48.518  49.236  1.00  0.00     0.014 A 
HETATM   16  C   UNL     1      20.005  49.195  48.944  1.00  0.00     0.001 A 
HETATM   17  C   UNL     1      20.032  50.429  48.302  1.00  0.00     0.002 A 
ENDBRANCH   6   7
ENDBRANCH   1   5
BRANCH   2  18
HETATM   18  C   UNL     1      24.436  43.002  50.871  1.00  0.00     0.227 C 
BRANCH  18  19
HETATM   19  N   UNL     1      25.583  43.518  51.601  1.00  0.00    -0.349 N 
HETATM   20  C   UNL     1      26.865  43.251  51.204  1.00  0.00     0.241 C 
HETATM   21  O   UNL     1      27.133  42.638  50.176  1.00  0.00    -0.269 OA
HETATM   22  H   UNL     1      25.400  44.124  52.390  1.00  0.00     0.163 HD
BRANCH  20  23
HETATM   23  C   UNL     1      27.890  43.808  52.117  1.00  0.00     0.075 C 
HETATM   24  C   UNL     1      27.903  43.440  53.407  1.00  0.00     0.017 C 
BRANCH  24  25
HETATM   25  C   UNL     1      28.872  43.925  54.404  1.00  0.00    -0.036 A 
HETATM   26  C   UNL     1      28.743  45.163  55.049  1.00  0.00     0.011 A 
HETATM   27  C   UNL     1      29.675  45.568  56.008  1.00  0.00     0.001 A 
HETATM   28  C   UNL     1      30.739  44.734  56.344  1.00  0.00     0.000 A 
HETATM   29  C   UNL     1      30.869  43.494  55.726  1.00  0.00     0.001 A 
HETATM   30  C   UNL     1      29.937  43.089  54.765  1.00  0.00     0.011 A 
ENDBRANCH  24  25
ENDBRANCH  20  23
ENDBRANCH  18  19
ENDBRANCH   2  18
TORSDOF 6
ENDMDL
MODEL 7
REMARK VINA RESULT:      -8.8      2.193      9.932
REMARK  6 active torsions:
REMARK  status: ('A' for Active; 'I' for Inactive)
REMARK    1  A    between atoms: C_7  and  C_8 
REMARK    2  A    between atoms: N_9  and  N_10 
REMARK       I    between atoms: N_10  and  C_11 
REMARK    3  A    between atoms: C_11  and  C_12 
REMARK    4  A    between atoms: C_12  and  N_13 
REMARK       I    between atoms: N_13  and  C_14 
REMARK    5  A    between atoms: C_14  and  C_15 
REMARK    6  A    between atoms: C_16  and  C_17 
ROOT
HETATM    1  N   UNL     1      26.551  44.871  52.254  1.00  0.00    -0.246 N 
HETATM    2  C   UNL     1      25.356  44.173  52.160  1.00  0.00     0.255 C 
HETATM    3  O   UNL     1      24.620  43.872  53.098  1.00  0.00    -0.270 OA
HETATM    4  H   UNL     1      27.117  45.011  51.413  1.00  0.00     0.192 HD
ENDROOT
BRANCH   1   5
HETATM    5  N   UNL     1      27.006  45.285  53.470  1.00  0.00    -0.184 NA
HETATM    6  C   UNL     1      28.180  44.856  53.803  1.00  0.00     0.153 C 
BRANCH   6   7
HETATM    7  C   UNL     1      28.758  45.244  55.078  1.00  0.00     0.018 A 
HETATM    8  C   UNL     1      28.357  46.352  55.813  1.00  0.00     0.018 A 
HETATM    9  C   UNL     1      27.317  47.379  55.547  1.00  0.00     0.069 C 
HETATM   10  N   UNL     1      29.122  46.394  56.954  1.00  0.00    -0.358 N 
HETATM   11  H   UNL     1      29.049  47.094  57.679  1.00  0.00     0.166 HD
HETATM   12  C   UNL     1      30.009  45.347  56.985  1.00  0.00     0.043 A 
HETATM   13  C   UNL     1      29.807  44.604  55.822  1.00  0.00     0.004 A 
HETATM   14  C   UNL     1      30.965  45.007  57.950  1.00  0.00     0.030 A 
HETATM   15  C   UNL     1      30.609  43.459  55.619  1.00  0.00     0.014 A 
HETATM   16  C   UNL     1      31.570  43.104  56.572  1.00  0.00     0.001 A 
HETATM   17  C   UNL     1      31.743  43.869  57.722  1.00  0.00     0.002 A 
ENDBRANCH   6   7
ENDBRANCH   1   5
BRANCH   2  18
HETATM   18  C   UNL     1      24.992  43.820  50.718  1.00  0.00     0.227 C 
BRANCH  18  19
HETATM   19  N   UNL     1      24.072  44.779  50.129  1.00  0.00    -0.349 N 
HETATM   20  C   UNL     1      24.508  45.976  49.628  1.00  0.00     0.241 C 
HETATM   21  O   UNL     1      25.694  46.283  49.567  1.00  0.00    -0.269 OA
HETATM   22  H   UNL     1      23.099  44.512  50.059  1.00  0.00     0.163 HD
BRANCH  20  23
HETATM   23  C   UNL     1      23.410  46.841  49.136  1.00  0.00     0.075 C 
HETATM   24  C   UNL     1      23.385  48.140  49.471  1.00  0.00     0.017 C 
BRANCH  24  25
HETATM   25  C   UNL     1      22.348  49.093  49.041  1.00  0.00    -0.036 A 
HETATM   26  C   UNL     1      22.582  50.471  48.932  1.00  0.00     0.011 A 
HETATM   27  C   UNL     1      21.572  51.333  48.495  1.00  0.00     0.001 A 
HETATM   28  C   UNL     1      20.322  50.825  48.147  1.00  0.00     0.000 A 
HETATM   29  C   UNL     1      20.083  49.457  48.231  1.00  0.00     0.001 A 
HETATM   30  C   UNL     1      21.092  48.595  48.671  1.00  0.00     0.011 A 
ENDBRANCH  24  25
ENDBRANCH  20  23
ENDBRANCH  18  19
ENDBRANCH   2  18
TORSDOF 6
ENDMDL
MODEL 8
REMARK VINA RESULT:      -8.6      2.299      9.887
REMARK  6 active torsions:
REMARK  status: ('A' for Active; 'I' for Inactive)
REMARK    1  A    between atoms: C_7  and  C_8 
REMARK    2  A    between atoms: N_9  and  N_10 
REMARK       I    between atoms: N_10  and  C_11 
REMARK    3  A    between atoms: C_11  and  C_12 
REMARK    4  A    between atoms: C_12  and  N_13 
REMARK       I    between atoms: N_13  and  C_14 
REMARK    5  A    between atoms: C_14  and  C_15 
REMARK    6  A    between atoms: C_16  and  C_17 
ROOT
HETATM    1  N   UNL     1      26.072  44.880  50.382  1.00  0.00    -0.246 N 
HETATM    2  C   UNL     1      24.776  45.206  50.756  1.00  0.00     0.255 C 
HETATM    3  O   UNL     1      24.399  45.467  51.898  1.00  0.00    -0.270 OA
HETATM    4  H   UNL     1      26.262  44.618  49.412  1.00  0.00     0.192 HD
ENDROOT
BRANCH   1   5
HETATM    5  N   UNL     1      27.060  44.824  51.319  1.00  0.00    -0.184 NA
HETATM    6  C   UNL     1      27.059  43.773  52.071  1.00  0.00     0.153 C 
BRANCH   6   7
HETATM    7  C   UNL     1      28.074  43.615  53.098  1.00  0.00     0.018 A 
HETATM    8  C   UNL     1      28.859  42.479  53.253  1.00  0.00     0.018 A 
HETATM    9  C   UNL     1      28.898  41.205  52.490  1.00  0.00     0.069 C 
HETATM   10  N   UNL     1      29.700  42.696  54.318  1.00  0.00    -0.358 N 
HETATM   11  H   UNL     1      30.387  42.039  54.662  1.00  0.00     0.166 HD
HETATM   12  C   UNL     1      29.487  43.938  54.862  1.00  0.00     0.043 A 
HETATM   13  C   UNL     1      28.473  44.543  54.119  1.00  0.00     0.004 A 
HETATM   14  C   UNL     1      30.115  44.564  55.946  1.00  0.00     0.030 A 
HETATM   15  C   UNL     1      28.068  45.845  54.487  1.00  0.00     0.014 A 
HETATM   16  C   UNL     1      28.683  46.487  55.569  1.00  0.00     0.001 A 
HETATM   17  C   UNL     1      29.693  45.852  56.286  1.00  0.00     0.002 A 
ENDBRANCH   6   7
ENDBRANCH   1   5
BRANCH   2  18
HETATM   18  C   UNL     1      23.814  45.250  49.570  1.00  0.00     0.227 C 
BRANCH  18  19
HETATM   19  N   UNL     1      23.130  46.528  49.459  1.00  0.00    -0.349 N 
HETATM   20  C   UNL     1      23.821  47.707  49.388  1.00  0.00     0.241 C 
HETATM   21  O   UNL     1      25.045  47.762  49.330  1.00  0.00    -0.269 OA
HETATM   22  H   UNL     1      22.121  46.514  49.390  1.00  0.00     0.163 HD
BRANCH  20  23
HETATM   23  C   UNL     1      22.944  48.900  49.350  1.00  0.00     0.075 C 
HETATM   24  C   UNL     1      21.611  48.747  49.336  1.00  0.00     0.017 C 
BRANCH  24  25
HETATM   25  C   UNL     1      20.644  49.856  49.300  1.00  0.00    -0.036 A 
HETATM   26  C   UNL     1      19.497  49.889  50.106  1.00  0.00     0.011 A 
HETATM   27  C   UNL     1      18.621  50.977  50.054  1.00  0.00     0.001 A 
HETATM   28  C   UNL     1      18.889  52.051  49.208  1.00  0.00     0.000 A 
HETATM   29  C   UNL     1      20.034  52.040  48.417  1.00  0.00     0.001 A 
HETATM   30  C   UNL     1      20.909  50.951  48.466  1.00  0.00     0.011 A 
ENDBRANCH  24  25
ENDBRANCH  20  23
ENDBRANCH  18  19
ENDBRANCH   2  18
TORSDOF 6
ENDMDL
MODEL 9
REMARK VINA RESULT:      -8.5      2.583      4.101
REMARK  6 active torsions:
REMARK  status: ('A' for Active; 'I' for Inactive)
REMARK    1  A    between atoms: C_7  and  C_8 
REMARK    2  A    between atoms: N_9  and  N_10 
REMARK       I    between atoms: N_10  and  C_11 
REMARK    3  A    between atoms: C_11  and  C_12 
REMARK    4  A    between atoms: C_12  and  N_13 
REMARK       I    between atoms: N_13  and  C_14 
REMARK    5  A    between atoms: C_14  and  C_15 
REMARK    6  A    between atoms: C_16  and  C_17 
ROOT
HETATM    1  N   UNL     1      22.797  45.736  48.986  1.00  0.00    -0.246 N 
HETATM    2  C   UNL     1      23.998  45.828  49.675  1.00  0.00     0.255 C 
HETATM    3  O   UNL     1      24.644  46.857  49.866  1.00  0.00    -0.270 OA
HETATM    4  H   UNL     1      22.377  44.816  48.831  1.00  0.00     0.192 HD
ENDROOT
BRANCH   1   5
HETATM    5  N   UNL     1      22.234  46.853  48.445  1.00  0.00    -0.184 NA
HETATM    6  C   UNL     1      20.944  46.840  48.349  1.00  0.00     0.153 C 
BRANCH   6   7
HETATM    7  C   UNL     1      20.247  47.985  47.790  1.00  0.00     0.018 A 
HETATM    8  C   UNL     1      19.555  47.967  46.585  1.00  0.00     0.018 A 
HETATM    9  C   UNL     1      19.339  46.878  45.598  1.00  0.00     0.069 C 
HETATM   10  N   UNL     1      19.028  49.220  46.389  1.00  0.00    -0.358 N 
HETATM   11  H   UNL     1      18.472  49.501  45.593  1.00  0.00     0.166 HD
HETATM   12  C   UNL     1      19.354  50.054  47.430  1.00  0.00     0.043 A 
HETATM   13  C   UNL     1      20.118  49.310  48.328  1.00  0.00     0.004 A 
HETATM   14  C   UNL     1      19.028  51.401  47.639  1.00  0.00     0.030 A 
HETATM   15  C   UNL     1      20.581  49.954  49.497  1.00  0.00     0.014 A 
HETATM   16  C   UNL     1      20.267  51.299  49.723  1.00  0.00     0.001 A 
HETATM   17  C   UNL     1      19.500  52.010  48.804  1.00  0.00     0.002 A 
ENDBRANCH   6   7
ENDBRANCH   1   5
BRANCH   2  18
HETATM   18  C   UNL     1      24.459  44.483  50.235  1.00  0.00     0.227 C 
BRANCH  18  19
HETATM   19  N   UNL     1      25.669  44.601  51.033  1.00  0.00    -0.349 N 
HETATM   20  C   UNL     1      26.858  44.068  50.616  1.00  0.00     0.241 C 
HETATM   21  O   UNL     1      27.004  43.534  49.521  1.00  0.00    -0.269 OA
HETATM   22  H   UNL     1      25.613  45.134  51.891  1.00  0.00     0.163 HD
BRANCH  20  23
HETATM   23  C   UNL     1      27.953  44.233  51.600  1.00  0.00     0.075 C 
HETATM   24  C   UNL     1      27.716  44.019  52.903  1.00  0.00     0.017 C 
BRANCH  24  25
HETATM   25  C   UNL     1      28.723  44.152  53.968  1.00  0.00    -0.036 A 
HETATM   26  C   UNL     1      28.744  45.230  54.864  1.00  0.00     0.011 A 
HETATM   27  C   UNL     1      29.706  45.297  55.876  1.00  0.00     0.001 A 
HETATM   28  C   UNL     1      30.649  44.281  56.012  1.00  0.00     0.000 A 
HETATM   29  C   UNL     1      30.628  43.195  55.142  1.00  0.00     0.001 A 
HETATM   30  C   UNL     1      29.667  43.129  54.129  1.00  0.00     0.011 A 
ENDBRANCH  24  25
ENDBRANCH  20  23
ENDBRANCH  18  19
ENDBRANCH   2  18
TORSDOF 6
ENDMDL
MODEL 10
REMARK VINA RESULT:      -8.4      4.296      7.670
REMARK  6 active torsions:
REMARK  status: ('A' for Active; 'I' for Inactive)
REMARK    1  A    between atoms: C_7  and  C_8 
REMARK    2  A    between atoms: N_9  and  N_10 
REMARK       I    between atoms: N_10  and  C_11 
REMARK    3  A    between atoms: C_11  and  C_12 
REMARK    4  A    between atoms: C_12  and  N_13 
REMARK       I    between atoms: N_13  and  C_14 
REMARK    5  A    between atoms: C_14  and  C_15 
REMARK    6  A    between atoms: C_16  and  C_17 
ROOT
HETATM    1  N   UNL     1      25.802  41.480  50.868  1.00  0.00    -0.246 N 
HETATM    2  C   UNL     1      25.872  42.831  50.557  1.00  0.00     0.255 C 
HETATM    3  O   UNL     1      26.386  43.313  49.548  1.00  0.00    -0.270 OA
HETATM    4  H   UNL     1      25.408  41.193  51.767  1.00  0.00     0.192 HD
ENDROOT
BRANCH   1   5
HETATM    5  N   UNL     1      26.337  40.556  50.021  1.00  0.00    -0.184 NA
HETATM    6  C   UNL     1      27.533  40.160  50.308  1.00  0.00     0.153 C 
BRANCH   6   7
HETATM    7  C   UNL     1      28.191  39.172  49.470  1.00  0.00     0.018 A 
HETATM    8  C   UNL     1      29.189  38.313  49.911  1.00  0.00     0.018 A 
HETATM    9  C   UNL     1      29.827  38.156  51.244  1.00  0.00     0.069 C 
HETATM   10  N   UNL     1      29.563  37.527  48.848  1.00  0.00    -0.358 N 
HETATM   11  H   UNL     1      30.271  36.807  48.876  1.00  0.00     0.166 HD
HETATM   12  C   UNL     1      28.838  37.848  47.727  1.00  0.00     0.043 A 
HETATM   13  C   UNL     1      27.966  38.876  48.082  1.00  0.00     0.004 A 
HETATM   14  C   UNL     1      28.890  37.304  46.437  1.00  0.00     0.030 A 
HETATM   15  C   UNL     1      27.102  39.387  47.088  1.00  0.00     0.014 A 
HETATM   16  C   UNL     1      27.140  38.857  45.793  1.00  0.00     0.001 A 
HETATM   17  C   UNL     1      28.023  37.829  45.475  1.00  0.00     0.002 A 
ENDBRANCH   6   7
ENDBRANCH   1   5
BRANCH   2  18
HETATM   18  C   UNL     1      25.195  43.712  51.605  1.00  0.00     0.227 C 
BRANCH  18  19
HETATM   19  N   UNL     1      26.059  43.983  52.742  1.00  0.00    -0.349 N 
HETATM   20  C   UNL     1      26.693  45.186  52.891  1.00  0.00     0.241 C 
HETATM   21  O   UNL     1      26.515  46.134  52.133  1.00  0.00    -0.269 OA
HETATM   22  H   UNL     1      26.141  43.264  53.449  1.00  0.00     0.163 HD
BRANCH  20  23
HETATM   23  C   UNL     1      27.582  45.240  54.075  1.00  0.00     0.075 C 
HETATM   24  C   UNL     1      28.598  44.371  54.185  1.00  0.00     0.017 C 
BRANCH  24  25
HETATM   25  C   UNL     1      29.544  44.331  55.313  1.00  0.00    -0.036 A 
HETATM   26  C   UNL     1      30.498  43.315  55.468  1.00  0.00     0.011 A 
HETATM   27  C   UNL     1      31.391  43.334  56.542  1.00  0.00     0.001 A 
HETATM   28  C   UNL     1      31.352  44.377  57.465  1.00  0.00     0.000 A 
HETATM   29  C   UNL     1      30.423  45.402  57.313  1.00  0.00     0.001 A 
HETATM   30  C   UNL     1      29.528  45.382  56.239  1.00  0.00     0.011 A 
ENDBRANCH  24  25
ENDBRANCH  20  23
ENDBRANCH  18  19
ENDBRANCH   2  18
TORSDOF 6
ENDMDL
