MODEL 1
REMARK VINA RESULT:     -10.7      0.000      0.000
REMARK  6 active torsions:
REMARK  status: ('A' for Active; 'I' for Inactive)
REMARK    1  A    between atoms: C_6  and  N_7 
REMARK       I    between atoms: N_7  and  C_8 
REMARK    2  A    between atoms: C_8  and  C_9 
REMARK    3  A    between atoms: C_9  and  S_10 
REMARK    4  A    between atoms: S_10  and  C_11 
REMARK    5  A    between atoms: N_16  and  C_18 
REMARK    6  A    between atoms: C_18  and  C_19 
ROOT
HETATM    1  C   UNL     1      24.873  47.110  50.287  1.00  0.00     0.169 A 
HETATM    2  N   UNL     1      24.865  48.353  49.934  1.00  0.00    -0.228 NA
HETATM    3  C   UNL     1      23.814  48.769  49.155  1.00  0.00     0.052 A 
HETATM    4  C   UNL     1      22.832  47.957  48.736  1.00  0.00     0.060 A 
HETATM    5  C   UNL     1      21.640  48.397  47.966  1.00  0.00     0.281 C 
HETATM    6  N   UNL     1      21.463  49.905  47.998  1.00  0.00    -0.063 N 
HETATM    7  H   UNL     1      21.190  50.141  48.960  1.00  0.00     0.280 HD
HETATM    8  C   UNL     1      22.779  50.603  47.725  1.00  0.00     0.241 C 
HETATM    9  C   UNL     1      23.796  50.239  48.813  1.00  0.00     0.088 C 
HETATM   10  C   UNL     1      22.900  46.532  49.106  1.00  0.00     0.257 A 
HETATM   11  O   UNL     1      22.043  45.751  48.717  1.00  0.00    -0.267 OA
HETATM   12  N   UNL     1      23.954  46.192  49.891  1.00  0.00    -0.302 N 
HETATM   13  H   UNL     1      24.038  45.240  50.217  1.00  0.00     0.171 HD
ENDROOT
BRANCH   1  14
HETATM   14  S   UNL     1      26.080  46.435  51.328  1.00  0.00    -0.083 SA
BRANCH  14  15
HETATM   15  C   UNL     1      25.979  44.688  50.823  1.00  0.00     0.185 C 
BRANCH  15  16
HETATM   16  C   UNL     1      25.158  43.827  51.769  1.00  0.00     0.231 C 
HETATM   17  N   UNL     1      25.670  43.413  52.967  1.00  0.00    -0.327 N 
HETATM   18  H   UNL     1      24.960  42.917  53.496  1.00  0.00     0.169 HD
HETATM   19  O   UNL     1      23.989  43.497  51.527  1.00  0.00    -0.272 OA
BRANCH  17  20
HETATM   20  C   UNL     1      26.924  43.520  53.597  1.00  0.00     0.035 A 
HETATM   21  C   UNL     1      27.396  44.631  54.295  1.00  0.00     0.037 A 
HETATM   22  C   UNL     1      28.677  44.639  54.890  1.00  0.00    -0.054 A 
HETATM   23  C   UNL     1      29.514  43.517  54.754  1.00  0.00    -0.056 A 
HETATM   24  C   UNL     1      29.141  45.893  55.584  1.00  0.00     0.049 C 
HETATM   25  C   UNL     1      30.898  43.485  55.342  1.00  0.00     0.049 C 
HETATM   26  C   UNL     1      29.044  42.407  54.045  1.00  0.00     0.009 A 
HETATM   27  C   UNL     1      27.770  42.413  53.471  1.00  0.00     0.030 A 
ENDBRANCH  17  20
ENDBRANCH  15  16
ENDBRANCH  14  15
ENDBRANCH   1  14
BRANCH   6  28
HETATM   28  C   UNL     1      20.327  50.352  47.110  1.00  0.00     0.273 C 
BRANCH  28  29
HETATM   29  C   UNL     1      19.248  51.093  47.856  1.00  0.00    -0.030 A 
HETATM   30  C   UNL     1      18.009  51.357  47.244  1.00  0.00     0.048 A 
HETATM   31  C   UNL     1      17.041  52.001  47.986  1.00  0.00     0.105 A 
HETATM   32  C   UNL     1      17.263  52.404  49.278  1.00  0.00     0.105 A 
HETATM   33  O   UNL     1      15.788  52.304  47.554  1.00  0.00    -0.323 OA
HETATM   34  O   UNL     1      16.180  53.016  49.824  1.00  0.00    -0.323 OA
HETATM   35  C   UNL     1      18.470  52.188  49.905  1.00  0.00     0.040 A 
HETATM   36  C   UNL     1      15.246  52.959  48.726  1.00  0.00     0.352 A 
HETATM   37  C   UNL     1      19.471  51.525  49.185  1.00  0.00     0.012 A 
ENDBRANCH  28  29
ENDBRANCH   6  28
TORSDOF 6
ENDMDL
MODEL 2
REMARK VINA RESULT:     -10.2      2.107      3.917
REMARK  6 active torsions:
REMARK  status: ('A' for Active; 'I' for Inactive)
REMARK    1  A    between atoms: C_6  and  N_7 
REMARK       I    between atoms: N_7  and  C_8 
REMARK    2  A    between atoms: C_8  and  C_9 
REMARK    3  A    between atoms: C_9  and  S_10 
REMARK    4  A    between atoms: S_10  and  C_11 
REMARK    5  A    between atoms: N_16  and  C_18 
REMARK    6  A    between atoms: C_18  and  C_19 
ROOT
HETATM    1  C   UNL     1      25.550  44.102  53.004  1.00  0.00     0.169 A 
HETATM    2  N   UNL     1      25.599  45.367  52.745  1.00  0.00    -0.228 NA
HETATM    3  C   UNL     1      24.998  45.786  51.583  1.00  0.00     0.052 A 
HETATM    4  C   UNL     1      24.396  44.956  50.717  1.00  0.00     0.060 A 
HETATM    5  C   UNL     1      23.665  45.390  49.499  1.00  0.00     0.281 C 
HETATM    6  N   UNL     1      23.362  46.877  49.512  1.00  0.00    -0.063 N 
HETATM    7  H   UNL     1      22.655  47.021  50.244  1.00  0.00     0.280 HD
HETATM    8  C   UNL     1      24.589  47.668  49.920  1.00  0.00     0.241 C 
HETATM    9  C   UNL     1      25.013  47.275  51.340  1.00  0.00     0.088 C 
HETATM   10  C   UNL     1      24.409  43.512  51.011  1.00  0.00     0.257 A 
HETATM   11  O   UNL     1      23.901  42.718  50.232  1.00  0.00    -0.267 OA
HETATM   12  N   UNL     1      25.003  43.169  52.183  1.00  0.00    -0.302 N 
HETATM   13  H   UNL     1      25.008  42.201  52.467  1.00  0.00     0.171 HD
ENDROOT
BRANCH   1  14
HETATM   14  S   UNL     1      26.190  43.414  54.458  1.00  0.00    -0.083 SA
BRANCH  14  15
HETATM   15  C   UNL     1      27.318  42.177  53.741  1.00  0.00     0.185 C 
BRANCH  15  16
HETATM   16  C   UNL     1      28.313  42.761  52.752  1.00  0.00     0.231 C 
HETATM   17  N   UNL     1      29.364  43.525  53.179  1.00  0.00    -0.327 N 
HETATM   18  H   UNL     1      29.962  43.763  52.395  1.00  0.00     0.169 HD
HETATM   19  O   UNL     1      28.249  42.547  51.534  1.00  0.00    -0.272 OA
BRANCH  17  20
HETATM   20  C   UNL     1      29.775  44.034  54.425  1.00  0.00     0.035 A 
HETATM   21  C   UNL     1      30.707  43.449  55.280  1.00  0.00     0.037 A 
HETATM   22  C   UNL     1      31.048  44.040  56.517  1.00  0.00    -0.054 A 
HETATM   23  C   UNL     1      30.415  45.232  56.915  1.00  0.00    -0.056 A 
HETATM   24  C   UNL     1      32.024  43.324  57.413  1.00  0.00     0.049 C 
HETATM   25  C   UNL     1      30.720  45.888  58.234  1.00  0.00     0.049 C 
HETATM   26  C   UNL     1      29.474  45.814  56.061  1.00  0.00     0.009 A 
HETATM   27  C   UNL     1      29.155  45.219  54.838  1.00  0.00     0.030 A 
ENDBRANCH  17  20
ENDBRANCH  15  16
ENDBRANCH  14  15
ENDBRANCH   1  14
BRANCH   6  28
HETATM   28  C   UNL     1      22.734  47.331  48.216  1.00  0.00     0.273 C 
BRANCH  28  29
HETATM   29  C   UNL     1      21.497  48.167  48.419  1.00  0.00    -0.030 A 
HETATM   30  C   UNL     1      21.546  49.338  49.196  1.00  0.00     0.048 A 
HETATM   31  C   UNL     1      20.395  50.089  49.315  1.00  0.00     0.105 A 
HETATM   32  C   UNL     1      19.217  49.714  48.721  1.00  0.00     0.105 A 
HETATM   33  O   UNL     1      20.283  51.256  50.003  1.00  0.00    -0.323 OA
HETATM   34  O   UNL     1      18.211  50.593  48.963  1.00  0.00    -0.323 OA
HETATM   35  C   UNL     1      19.120  48.561  47.974  1.00  0.00     0.040 A 
HETATM   36  C   UNL     1      18.886  51.568  49.784  1.00  0.00     0.352 A 
HETATM   37  C   UNL     1      20.273  47.781  47.821  1.00  0.00     0.012 A 
ENDBRANCH  28  29
ENDBRANCH   6  28
TORSDOF 6
ENDMDL
MODEL 3
REMARK VINA RESULT:     -10.0      1.698      2.449
REMARK  6 active torsions:
REMARK  status: ('A' for Active; 'I' for Inactive)
REMARK    1  A    between atoms: C_6  and  N_7 
REMARK       I    between atoms: N_7  and  C_8 
REMARK    2  A    between atoms: C_8  and  C_9 
REMARK    3  A    between atoms: C_9  and  S_10 
REMARK    4  A    between atoms: S_10  and  C_11 
REMARK    5  A    between atoms: N_16  and  C_18 
REMARK    6  A    between atoms: C_18  and  C_19 
ROOT
HETATM    1  C   UNL     1      24.868  44.937  49.352  1.00  0.00     0.169 A 
HETATM    2  N   UNL     1      23.675  45.226  48.949  1.00  0.00    -0.228 NA
HETATM    3  C   UNL     1      23.296  46.543  49.028  1.00  0.00     0.052 A 
HETATM    4  C   UNL     1      24.084  47.515  49.514  1.00  0.00     0.060 A 
HETATM    5  C   UNL     1      23.732  48.959  49.532  1.00  0.00     0.281 C 
HETATM    6  N   UNL     1      22.550  49.272  48.633  1.00  0.00    -0.063 N 
HETATM    7  H   UNL     1      22.882  49.148  47.668  1.00  0.00     0.280 HD
HETATM    8  C   UNL     1      21.435  48.270  48.850  1.00  0.00     0.241 C 
HETATM    9  C   UNL     1      21.923  46.862  48.490  1.00  0.00     0.088 C 
HETATM   10  C   UNL     1      25.416  47.145  50.021  1.00  0.00     0.257 A 
HETATM   11  O   UNL     1      26.153  47.995  50.502  1.00  0.00    -0.267 OA
HETATM   12  N   UNL     1      25.734  45.831  49.896  1.00  0.00    -0.302 N 
HETATM   13  H   UNL     1      26.649  45.516  50.183  1.00  0.00     0.171 HD
ENDROOT
BRANCH   1  14
HETATM   14  S   UNL     1      25.535  43.342  49.254  1.00  0.00    -0.083 SA
BRANCH  14  15
HETATM   15  C   UNL     1      26.580  43.354  50.746  1.00  0.00     0.185 C 
BRANCH  15  16
HETATM   16  C   UNL     1      26.677  42.001  51.431  1.00  0.00     0.231 C 
HETATM   17  N   UNL     1      27.283  41.871  52.650  1.00  0.00    -0.327 N 
HETATM   18  H   UNL     1      27.187  40.919  52.987  1.00  0.00     0.169 HD
HETATM   19  O   UNL     1      26.184  40.972  50.950  1.00  0.00    -0.272 OA
BRANCH  17  20
HETATM   20  C   UNL     1      27.988  42.742  53.501  1.00  0.00     0.035 A 
HETATM   21  C   UNL     1      27.510  43.945  54.019  1.00  0.00     0.037 A 
HETATM   22  C   UNL     1      28.302  44.752  54.865  1.00  0.00    -0.054 A 
HETATM   23  C   UNL     1      29.615  44.355  55.174  1.00  0.00    -0.056 A 
HETATM   24  C   UNL     1      27.738  46.064  55.344  1.00  0.00     0.049 C 
HETATM   25  C   UNL     1      30.511  45.191  56.047  1.00  0.00     0.049 C 
HETATM   26  C   UNL     1      30.098  43.153  54.648  1.00  0.00     0.009 A 
HETATM   27  C   UNL     1      29.297  42.364  53.819  1.00  0.00     0.030 A 
ENDBRANCH  17  20
ENDBRANCH  15  16
ENDBRANCH  14  15
ENDBRANCH   1  14
BRANCH   6  28
HETATM   28  C   UNL     1      22.121  50.714  48.756  1.00  0.00     0.273 C 
BRANCH  28  29
HETATM   29  C   UNL     1      20.641  50.910  48.550  1.00  0.00    -0.030 A 
HETATM   30  C   UNL     1      19.817  51.304  49.621  1.00  0.00     0.048 A 
HETATM   31  C   UNL     1      18.477  51.511  49.369  1.00  0.00     0.105 A 
HETATM   32  C   UNL     1      17.933  51.323  48.124  1.00  0.00     0.105 A 
HETATM   33  O   UNL     1      17.557  51.918  50.283  1.00  0.00    -0.323 OA
HETATM   34  O   UNL     1      16.601  51.583  48.095  1.00  0.00    -0.323 OA
HETATM   35  C   UNL     1      18.700  50.913  47.055  1.00  0.00     0.040 A 
HETATM   36  C   UNL     1      16.361  51.953  49.469  1.00  0.00     0.352 A 
HETATM   37  C   UNL     1      20.068  50.706  47.273  1.00  0.00     0.012 A 
ENDBRANCH  28  29
ENDBRANCH   6  28
TORSDOF 6
ENDMDL
MODEL 4
REMARK VINA RESULT:      -9.8      1.723      2.448
REMARK  6 active torsions:
REMARK  status: ('A' for Active; 'I' for Inactive)
REMARK    1  A    between atoms: C_6  and  N_7 
REMARK       I    between atoms: N_7  and  C_8 
REMARK    2  A    between atoms: C_8  and  C_9 
REMARK    3  A    between atoms: C_9  and  S_10 
REMARK    4  A    between atoms: S_10  and  C_11 
REMARK    5  A    between atoms: N_16  and  C_18 
REMARK    6  A    between atoms: C_18  and  C_19 
ROOT
HETATM    1  C   UNL     1      24.917  44.690  50.595  1.00  0.00     0.169 A 
HETATM    2  N   UNL     1      25.534  45.822  50.509  1.00  0.00    -0.228 NA
HETATM    3  C   UNL     1      24.906  46.818  49.803  1.00  0.00     0.052 A 
HETATM    4  C   UNL     1      23.720  46.664  49.195  1.00  0.00     0.060 A 
HETATM    5  C   UNL     1      22.979  47.748  48.499  1.00  0.00     0.281 C 
HETATM    6  N   UNL     1      23.522  49.123  48.840  1.00  0.00    -0.063 N 
HETATM    7  H   UNL     1      23.272  49.296  49.822  1.00  0.00     0.280 HD
HETATM    8  C   UNL     1      25.035  49.136  48.758  1.00  0.00     0.241 C 
HETATM    9  C   UNL     1      25.619  48.148  49.776  1.00  0.00     0.088 C 
HETATM   10  C   UNL     1      23.069  45.344  49.261  1.00  0.00     0.257 A 
HETATM   11  O   UNL     1      22.003  45.151  48.693  1.00  0.00    -0.267 OA
HETATM   12  N   UNL     1      23.734  44.411  49.989  1.00  0.00    -0.302 N 
HETATM   13  H   UNL     1      23.323  43.497  50.112  1.00  0.00     0.171 HD
ENDROOT
BRANCH   1  14
HETATM   14  S   UNL     1      25.528  43.352  51.508  1.00  0.00    -0.083 SA
BRANCH  14  15
HETATM   15  C   UNL     1      27.308  43.733  51.457  1.00  0.00     0.185 C 
BRANCH  15  16
HETATM   16  C   UNL     1      28.195  42.535  51.753  1.00  0.00     0.231 C 
HETATM   17  N   UNL     1      28.952  42.482  52.890  1.00  0.00    -0.327 N 
HETATM   18  H   UNL     1      29.417  41.584  52.959  1.00  0.00     0.169 HD
HETATM   19  O   UNL     1      28.247  41.543  51.013  1.00  0.00    -0.272 OA
BRANCH  17  20
HETATM   20  C   UNL     1      29.215  43.377  53.944  1.00  0.00     0.035 A 
HETATM   21  C   UNL     1      28.476  44.518  54.253  1.00  0.00     0.037 A 
HETATM   22  C   UNL     1      28.827  45.356  55.334  1.00  0.00    -0.054 A 
HETATM   23  C   UNL     1      29.966  45.056  56.104  1.00  0.00    -0.056 A 
HETATM   24  C   UNL     1      28.013  46.600  55.577  1.00  0.00     0.049 C 
HETATM   25  C   UNL     1      30.402  45.930  57.249  1.00  0.00     0.049 C 
HETATM   26  C   UNL     1      30.713  43.916  55.789  1.00  0.00     0.009 A 
HETATM   27  C   UNL     1      30.345  43.095  54.721  1.00  0.00     0.030 A 
ENDBRANCH  17  20
ENDBRANCH  15  16
ENDBRANCH  14  15
ENDBRANCH   1  14
BRANCH   6  28
HETATM   28  C   UNL     1      22.848  50.206  48.031  1.00  0.00     0.273 C 
BRANCH  28  29
HETATM   29  C   UNL     1      21.544  50.666  48.628  1.00  0.00    -0.030 A 
HETATM   30  C   UNL     1      20.453  50.986  47.799  1.00  0.00     0.048 A 
HETATM   31  C   UNL     1      19.268  51.362  48.398  1.00  0.00     0.105 A 
HETATM   32  C   UNL     1      19.138  51.450  49.761  1.00  0.00     0.105 A 
HETATM   33  O   UNL     1      18.119  51.674  47.744  1.00  0.00    -0.323 OA
HETATM   34  O   UNL     1      17.892  51.834  50.139  1.00  0.00    -0.323 OA
HETATM   35  C   UNL     1      20.189  51.170  50.606  1.00  0.00     0.040 A 
HETATM   36  C   UNL     1      17.247  51.984  48.857  1.00  0.00     0.352 A 
HETATM   37  C   UNL     1      21.403  50.773  50.032  1.00  0.00     0.012 A 
ENDBRANCH  28  29
ENDBRANCH   6  28
TORSDOF 6
ENDMDL
MODEL 5
REMARK VINA RESULT:      -9.6      1.884      2.691
REMARK  6 active torsions:
REMARK  status: ('A' for Active; 'I' for Inactive)
REMARK    1  A    between atoms: C_6  and  N_7 
REMARK       I    between atoms: N_7  and  C_8 
REMARK    2  A    between atoms: C_8  and  C_9 
REMARK    3  A    between atoms: C_9  and  S_10 
REMARK    4  A    between atoms: S_10  and  C_11 
REMARK    5  A    between atoms: N_16  and  C_18 
REMARK    6  A    between atoms: C_18  and  C_19 
ROOT
HETATM    1  C   UNL     1      26.174  46.390  49.679  1.00  0.00     0.169 A 
HETATM    2  N   UNL     1      24.882  46.385  49.684  1.00  0.00    -0.228 NA
HETATM    3  C   UNL     1      24.256  47.568  49.379  1.00  0.00     0.052 A 
HETATM    4  C   UNL     1      24.912  48.707  49.104  1.00  0.00     0.060 A 
HETATM    5  C   UNL     1      24.263  49.977  48.688  1.00  0.00     0.281 C 
HETATM    6  N   UNL     1      22.820  49.771  48.264  1.00  0.00    -0.063 N 
HETATM    7  H   UNL     1      22.853  49.251  47.378  1.00  0.00     0.280 HD
HETATM    8  C   UNL     1      22.089  48.898  49.263  1.00  0.00     0.241 C 
HETATM    9  C   UNL     1      22.749  47.516  49.327  1.00  0.00     0.088 C 
HETATM   10  C   UNL     1      26.384  48.696  49.165  1.00  0.00     0.257 A 
HETATM   11  O   UNL     1      27.019  49.720  48.955  1.00  0.00    -0.267 OA
HETATM   12  N   UNL     1      26.938  47.491  49.454  1.00  0.00    -0.302 N 
HETATM   13  H   UNL     1      27.944  47.402  49.469  1.00  0.00     0.171 HD
ENDROOT
BRANCH   1  14
HETATM   14  S   UNL     1      27.123  44.971  49.967  1.00  0.00    -0.083 SA
BRANCH  14  15
HETATM   15  C   UNL     1      26.727  44.688  51.722  1.00  0.00     0.185 C 
BRANCH  15  16
HETATM   16  C   UNL     1      26.850  43.235  52.147  1.00  0.00     0.231 C 
HETATM   17  N   UNL     1      27.532  42.888  53.280  1.00  0.00    -0.327 N 
HETATM   18  H   UNL     1      27.446  41.891  53.448  1.00  0.00     0.169 HD
HETATM   19  O   UNL     1      26.315  42.309  51.523  1.00  0.00    -0.272 OA
BRANCH  17  20
HETATM   20  C   UNL     1      28.301  43.591  54.226  1.00  0.00     0.035 A 
HETATM   21  C   UNL     1      29.530  43.186  54.745  1.00  0.00     0.037 A 
HETATM   22  C   UNL     1      30.222  43.966  55.697  1.00  0.00    -0.054 A 
HETATM   23  C   UNL     1      29.652  45.165  56.161  1.00  0.00    -0.056 A 
HETATM   24  C   UNL     1      31.520  43.441  56.253  1.00  0.00     0.049 C 
HETATM   25  C   UNL     1      30.333  46.019  57.196  1.00  0.00     0.049 C 
HETATM   26  C   UNL     1      28.415  45.567  55.647  1.00  0.00     0.009 A 
HETATM   27  C   UNL     1      27.748  44.786  54.699  1.00  0.00     0.030 A 
ENDBRANCH  17  20
ENDBRANCH  15  16
ENDBRANCH  14  15
ENDBRANCH   1  14
BRANCH   6  28
HETATM   28  C   UNL     1      22.133  51.082  47.966  1.00  0.00     0.273 C 
BRANCH  28  29
HETATM   29  C   UNL     1      20.632  50.999  48.065  1.00  0.00    -0.030 A 
HETATM   30  C   UNL     1      19.900  50.205  47.162  1.00  0.00     0.048 A 
HETATM   31  C   UNL     1      18.532  50.131  47.322  1.00  0.00     0.105 A 
HETATM   32  C   UNL     1      17.877  50.819  48.312  1.00  0.00     0.105 A 
HETATM   33  O   UNL     1      17.688  49.391  46.557  1.00  0.00    -0.323 OA
HETATM   34  O   UNL     1      16.536  50.604  48.293  1.00  0.00    -0.323 OA
HETATM   35  C   UNL     1      18.553  51.627  49.199  1.00  0.00     0.040 A 
HETATM   36  C   UNL     1      16.416  49.703  47.172  1.00  0.00     0.352 A 
HETATM   37  C   UNL     1      19.945  51.715  49.073  1.00  0.00     0.012 A 
ENDBRANCH  28  29
ENDBRANCH   6  28
TORSDOF 6
ENDMDL
MODEL 6
REMARK VINA RESULT:      -9.6     12.794     16.322
REMARK  6 active torsions:
REMARK  status: ('A' for Active; 'I' for Inactive)
REMARK    1  A    between atoms: C_6  and  N_7 
REMARK       I    between atoms: N_7  and  C_8 
REMARK    2  A    between atoms: C_8  and  C_9 
REMARK    3  A    between atoms: C_9  and  S_10 
REMARK    4  A    between atoms: S_10  and  C_11 
REMARK    5  A    between atoms: N_16  and  C_18 
REMARK    6  A    between atoms: C_18  and  C_19 
ROOT
HETATM    1  C   UNL     1      29.175  48.753  41.299  1.00  0.00     0.169 A 
HETATM    2  N   UNL     1      29.619  49.743  42.000  1.00  0.00    -0.228 NA
HETATM    3  C   UNL     1      30.982  49.864  42.110  1.00  0.00     0.052 A 
HETATM    4  C   UNL     1      31.852  49.007  41.552  1.00  0.00     0.060 A 
HETATM    5  C   UNL     1      33.329  49.161  41.582  1.00  0.00     0.281 C 
HETATM    6  N   UNL     1      33.750  50.559  41.999  1.00  0.00    -0.063 N 
HETATM    7  H   UNL     1      33.489  51.181  41.224  1.00  0.00     0.280 HD
HETATM    8  C   UNL     1      32.967  51.013  43.214  1.00  0.00     0.241 C 
HETATM    9  C   UNL     1      31.472  51.067  42.879  1.00  0.00     0.088 C 
HETATM   10  C   UNL     1      31.314  47.855  40.809  1.00  0.00     0.257 A 
HETATM   11  O   UNL     1      32.071  47.032  40.313  1.00  0.00    -0.267 OA
HETATM   12  N   UNL     1      29.960  47.805  40.723  1.00  0.00    -0.302 N 
HETATM   13  H   UNL     1      29.527  47.066  40.191  1.00  0.00     0.171 HD
ENDROOT
BRANCH   1  14
HETATM   14  S   UNL     1      27.491  48.494  40.995  1.00  0.00    -0.083 SA
BRANCH  14  15
HETATM   15  C   UNL     1      27.544  48.203  39.198  1.00  0.00     0.185 C 
BRANCH  15  16
HETATM   16  C   UNL     1      26.800  49.252  38.389  1.00  0.00     0.231 C 
HETATM   17  N   UNL     1      27.337  50.492  38.181  1.00  0.00    -0.327 N 
HETATM   18  H   UNL     1      26.742  51.030  37.561  1.00  0.00     0.169 HD
HETATM   19  O   UNL     1      25.706  49.031  37.853  1.00  0.00    -0.272 OA
BRANCH  17  20
HETATM   20  C   UNL     1      28.495  51.156  38.629  1.00  0.00     0.035 A 
HETATM   21  C   UNL     1      29.803  50.875  38.236  1.00  0.00     0.037 A 
HETATM   22  C   UNL     1      30.900  51.601  38.750  1.00  0.00    -0.054 A 
HETATM   23  C   UNL     1      30.680  52.611  39.703  1.00  0.00    -0.056 A 
HETATM   24  C   UNL     1      32.289  51.207  38.320  1.00  0.00     0.049 C 
HETATM   25  C   UNL     1      31.815  53.395  40.304  1.00  0.00     0.049 C 
HETATM   26  C   UNL     1      29.369  52.887  40.104  1.00  0.00     0.009 A 
HETATM   27  C   UNL     1      28.295  52.164  39.578  1.00  0.00     0.030 A 
ENDBRANCH  17  20
ENDBRANCH  15  16
ENDBRANCH  14  15
ENDBRANCH   1  14
BRANCH   6  28
HETATM   28  C   UNL     1      35.248  50.669  42.151  1.00  0.00     0.273 C 
BRANCH  28  29
HETATM   29  C   UNL     1      35.822  51.893  41.485  1.00  0.00    -0.030 A 
HETATM   30  C   UNL     1      35.382  52.284  40.207  1.00  0.00     0.048 A 
HETATM   31  C   UNL     1      35.909  53.435  39.661  1.00  0.00     0.105 A 
HETATM   32  C   UNL     1      36.854  54.184  40.315  1.00  0.00     0.105 A 
HETATM   33  O   UNL     1      35.570  53.962  38.455  1.00  0.00    -0.323 OA
HETATM   34  O   UNL     1      37.235  55.276  39.603  1.00  0.00    -0.323 OA
HETATM   35  C   UNL     1      37.330  53.823  41.556  1.00  0.00     0.040 A 
HETATM   36  C   UNL     1      36.425  55.130  38.417  1.00  0.00     0.352 A 
HETATM   37  C   UNL     1      36.807  52.666  42.145  1.00  0.00     0.012 A 
ENDBRANCH  28  29
ENDBRANCH   6  28
TORSDOF 6
ENDMDL
MODEL 7
REMARK VINA RESULT:      -9.6     12.224     14.604
REMARK  6 active torsions:
REMARK  status: ('A' for Active; 'I' for Inactive)
REMARK    1  A    between atoms: C_6  and  N_7 
REMARK       I    between atoms: N_7  and  C_8 
REMARK    2  A    between atoms: C_8  and  C_9 
REMARK    3  A    between atoms: C_9  and  S_10 
REMARK    4  A    between atoms: S_10  and  C_11 
REMARK    5  A    between atoms: N_16  and  C_18 
REMARK    6  A    between atoms: C_18  and  C_19 
ROOT
HETATM    1  C   UNL     1      33.441  52.847  39.481  1.00  0.00     0.169 A 
HETATM    2  N   UNL     1      32.601  53.305  40.350  1.00  0.00    -0.228 NA
HETATM    3  C   UNL     1      31.389  52.667  40.437  1.00  0.00     0.052 A 
HETATM    4  C   UNL     1      31.038  51.628  39.664  1.00  0.00     0.060 A 
HETATM    5  C   UNL     1      29.769  50.866  39.794  1.00  0.00     0.281 C 
HETATM    6  N   UNL     1      29.065  51.149  41.109  1.00  0.00    -0.063 N 
HETATM    7  H   UNL     1      29.643  50.722  41.843  1.00  0.00     0.280 HD
HETATM    8  C   UNL     1      29.027  52.639  41.385  1.00  0.00     0.241 C 
HETATM    9  C   UNL     1      30.455  53.182  41.506  1.00  0.00     0.088 C 
HETATM   10  C   UNL     1      31.993  51.167  38.642  1.00  0.00     0.257 A 
HETATM   11  O   UNL     1      31.700  50.245  37.893  1.00  0.00    -0.267 OA
HETATM   12  N   UNL     1      33.178  51.828  38.621  1.00  0.00    -0.302 N 
HETATM   13  H   UNL     1      33.895  51.535  37.975  1.00  0.00     0.171 HD
ENDROOT
BRANCH   1  14
HETATM   14  S   UNL     1      35.039  53.482  39.290  1.00  0.00    -0.083 SA
BRANCH  14  15
HETATM   15  C   UNL     1      35.959  51.930  39.041  1.00  0.00     0.185 C 
BRANCH  15  16
HETATM   16  C   UNL     1      36.861  51.563  40.208  1.00  0.00     0.231 C 
HETATM   17  N   UNL     1      36.352  50.970  41.330  1.00  0.00    -0.327 N 
HETATM   18  H   UNL     1      37.104  50.729  41.968  1.00  0.00     0.169 HD
HETATM   19  O   UNL     1      38.086  51.741  40.188  1.00  0.00    -0.272 OA
BRANCH  17  20
HETATM   20  C   UNL     1      35.059  50.638  41.774  1.00  0.00     0.035 A 
HETATM   21  C   UNL     1      34.342  51.297  42.772  1.00  0.00     0.037 A 
HETATM   22  C   UNL     1      33.046  50.881  43.148  1.00  0.00    -0.054 A 
HETATM   23  C   UNL     1      32.469  49.758  42.527  1.00  0.00    -0.056 A 
HETATM   24  C   UNL     1      32.353  51.608  44.271  1.00  0.00     0.049 C 
HETATM   25  C   UNL     1      31.104  49.255  42.910  1.00  0.00     0.049 C 
HETATM   26  C   UNL     1      33.191  49.092  41.532  1.00  0.00     0.009 A 
HETATM   27  C   UNL     1      34.469  49.523  41.168  1.00  0.00     0.030 A 
ENDBRANCH  17  20
ENDBRANCH  15  16
ENDBRANCH  14  15
ENDBRANCH   1  14
BRANCH   6  28
HETATM   28  C   UNL     1      27.717  50.471  41.177  1.00  0.00     0.273 C 
BRANCH  28  29
HETATM   29  C   UNL     1      27.648  49.208  40.359  1.00  0.00    -0.030 A 
HETATM   30  C   UNL     1      28.300  48.039  40.794  1.00  0.00     0.048 A 
HETATM   31  C   UNL     1      28.170  46.899  40.029  1.00  0.00     0.105 A 
HETATM   32  C   UNL     1      27.450  46.884  38.861  1.00  0.00     0.105 A 
HETATM   33  O   UNL     1      28.711  45.687  40.322  1.00  0.00    -0.323 OA
HETATM   34  O   UNL     1      27.449  45.663  38.268  1.00  0.00    -0.323 OA
HETATM   35  C   UNL     1      26.819  48.013  38.388  1.00  0.00     0.040 A 
HETATM   36  C   UNL     1      28.257  44.905  39.192  1.00  0.00     0.352 A 
HETATM   37  C   UNL     1      26.919  49.185  39.146  1.00  0.00     0.012 A 
ENDBRANCH  28  29
ENDBRANCH   6  28
TORSDOF 6
ENDMDL
MODEL 8
REMARK VINA RESULT:      -9.4     11.229     13.693
REMARK  6 active torsions:
REMARK  status: ('A' for Active; 'I' for Inactive)
REMARK    1  A    between atoms: C_6  and  N_7 
REMARK       I    between atoms: N_7  and  C_8 
REMARK    2  A    between atoms: C_8  and  C_9 
REMARK    3  A    between atoms: C_9  and  S_10 
REMARK    4  A    between atoms: S_10  and  C_11 
REMARK    5  A    between atoms: N_16  and  C_18 
REMARK    6  A    between atoms: C_18  and  C_19 
ROOT
HETATM    1  C   UNL     1      31.340  49.379  41.570  1.00  0.00     0.169 A 
HETATM    2  N   UNL     1      31.415  48.683  40.484  1.00  0.00    -0.228 NA
HETATM    3  C   UNL     1      30.228  48.282  39.922  1.00  0.00     0.052 A 
HETATM    4  C   UNL     1      29.025  48.555  40.450  1.00  0.00     0.060 A 
HETATM    5  C   UNL     1      27.726  48.207  39.820  1.00  0.00     0.281 C 
HETATM    6  N   UNL     1      27.882  47.828  38.358  1.00  0.00    -0.063 N 
HETATM    7  H   UNL     1      28.132  48.692  37.861  1.00  0.00     0.280 HD
HETATM    8  C   UNL     1      29.036  46.862  38.178  1.00  0.00     0.241 C 
HETATM    9  C   UNL     1      30.344  47.528  38.620  1.00  0.00     0.088 C 
HETATM   10  C   UNL     1      28.975  49.299  41.721  1.00  0.00     0.257 A 
HETATM   11  O   UNL     1      27.900  49.540  42.253  1.00  0.00    -0.267 OA
HETATM   12  N   UNL     1      30.181  49.681  42.212  1.00  0.00    -0.302 N 
HETATM   13  H   UNL     1      30.217  50.232  43.056  1.00  0.00     0.171 HD
ENDROOT
BRANCH   1  14
HETATM   14  S   UNL     1      32.731  50.029  42.369  1.00  0.00    -0.083 SA
BRANCH  14  15
HETATM   15  C   UNL     1      33.806  50.319  40.928  1.00  0.00     0.185 C 
BRANCH  15  16
HETATM   16  C   UNL     1      34.058  51.790  40.642  1.00  0.00     0.231 C 
HETATM   17  N   UNL     1      33.053  52.603  40.196  1.00  0.00    -0.327 N 
HETATM   18  H   UNL     1      33.381  53.560  40.134  1.00  0.00     0.169 HD
HETATM   19  O   UNL     1      35.156  52.329  40.834  1.00  0.00    -0.272 OA
BRANCH  17  20
HETATM   20  C   UNL     1      31.713  52.400  39.817  1.00  0.00     0.035 A 
HETATM   21  C   UNL     1      30.589  52.743  40.568  1.00  0.00     0.037 A 
HETATM   22  C   UNL     1      29.282  52.493  40.097  1.00  0.00    -0.054 A 
HETATM   23  C   UNL     1      29.100  51.856  38.856  1.00  0.00    -0.056 A 
HETATM   24  C   UNL     1      28.116  52.842  40.986  1.00  0.00     0.049 C 
HETATM   25  C   UNL     1      27.730  51.540  38.321  1.00  0.00     0.049 C 
HETATM   26  C   UNL     1      30.227  51.504  38.107  1.00  0.00     0.009 A 
HETATM   27  C   UNL     1      31.513  51.768  38.585  1.00  0.00     0.030 A 
ENDBRANCH  17  20
ENDBRANCH  15  16
ENDBRANCH  14  15
ENDBRANCH   1  14
BRANCH   6  28
HETATM   28  C   UNL     1      26.578  47.354  37.762  1.00  0.00     0.273 C 
BRANCH  28  29
HETATM   29  C   UNL     1      25.368  47.944  38.439  1.00  0.00    -0.030 A 
HETATM   30  C   UNL     1      24.819  49.159  37.987  1.00  0.00     0.048 A 
HETATM   31  C   UNL     1      23.687  49.634  38.615  1.00  0.00     0.105 A 
HETATM   32  C   UNL     1      23.107  48.973  39.668  1.00  0.00     0.105 A 
HETATM   33  O   UNL     1      23.020  50.770  38.283  1.00  0.00    -0.323 OA
HETATM   34  O   UNL     1      22.003  49.611  40.136  1.00  0.00    -0.323 OA
HETATM   35  C   UNL     1      23.628  47.796  40.157  1.00  0.00     0.040 A 
HETATM   36  C   UNL     1      21.953  50.757  39.261  1.00  0.00     0.352 A 
HETATM   37  C   UNL     1      24.770  47.277  39.534  1.00  0.00     0.012 A 
ENDBRANCH  28  29
ENDBRANCH   6  28
TORSDOF 6
ENDMDL
MODEL 9
REMARK VINA RESULT:      -9.4     12.306     16.122
REMARK  6 active torsions:
REMARK  status: ('A' for Active; 'I' for Inactive)
REMARK    1  A    between atoms: C_6  and  N_7 
REMARK       I    between atoms: N_7  and  C_8 
REMARK    2  A    between atoms: C_8  and  C_9 
REMARK    3  A    between atoms: C_9  and  S_10 
REMARK    4  A    between atoms: S_10  and  C_11 
REMARK    5  A    between atoms: N_16  and  C_18 
REMARK    6  A    between atoms: C_18  and  C_19 
ROOT
HETATM    1  C   UNL     1      29.936  48.161  40.417  1.00  0.00     0.169 A 
HETATM    2  N   UNL     1      30.352  48.797  39.371  1.00  0.00    -0.228 NA
HETATM    3  C   UNL     1      31.361  49.709  39.561  1.00  0.00     0.052 A 
HETATM    4  C   UNL     1      31.904  49.978  40.759  1.00  0.00     0.060 A 
HETATM    5  C   UNL     1      33.052  50.895  40.980  1.00  0.00     0.281 C 
HETATM    6  N   UNL     1      33.776  51.228  39.688  1.00  0.00    -0.063 N 
HETATM    7  H   UNL     1      34.250  50.365  39.394  1.00  0.00     0.280 HD
HETATM    8  C   UNL     1      32.787  51.584  38.598  1.00  0.00     0.241 C 
HETATM    9  C   UNL     1      31.872  50.387  38.314  1.00  0.00     0.088 C 
HETATM   10  C   UNL     1      31.367  49.281  41.940  1.00  0.00     0.257 A 
HETATM   11  O   UNL     1      31.811  49.521  43.054  1.00  0.00    -0.267 OA
HETATM   12  N   UNL     1      30.385  48.380  41.680  1.00  0.00    -0.302 N 
HETATM   13  H   UNL     1      30.003  47.836  42.438  1.00  0.00     0.171 HD
ENDROOT
BRANCH   1  14
HETATM   14  S   UNL     1      28.726  46.926  40.347  1.00  0.00    -0.083 SA
BRANCH  14  15
HETATM   15  C   UNL     1      27.530  47.730  39.233  1.00  0.00     0.185 C 
BRANCH  15  16
HETATM   16  C   UNL     1      26.356  48.367  39.959  1.00  0.00     0.231 C 
HETATM   17  N   UNL     1      26.379  49.689  40.309  1.00  0.00    -0.327 N 
HETATM   18  H   UNL     1      25.488  49.958  40.713  1.00  0.00     0.169 HD
HETATM   19  O   UNL     1      25.320  47.746  40.229  1.00  0.00    -0.272 OA
BRANCH  17  20
HETATM   20  C   UNL     1      27.340  50.715  40.235  1.00  0.00     0.035 A 
HETATM   21  C   UNL     1      27.763  51.357  39.072  1.00  0.00     0.037 A 
HETATM   22  C   UNL     1      28.740  52.376  39.105  1.00  0.00    -0.054 A 
HETATM   23  C   UNL     1      29.326  52.738  40.332  1.00  0.00    -0.056 A 
HETATM   24  C   UNL     1      29.188  52.988  37.803  1.00  0.00     0.049 C 
HETATM   25  C   UNL     1      30.392  53.796  40.420  1.00  0.00     0.049 C 
HETATM   26  C   UNL     1      28.908  52.088  41.497  1.00  0.00     0.009 A 
HETATM   27  C   UNL     1      27.934  51.088  41.446  1.00  0.00     0.030 A 
ENDBRANCH  17  20
ENDBRANCH  15  16
ENDBRANCH  14  15
ENDBRANCH   1  14
BRANCH   6  28
HETATM   28  C   UNL     1      34.859  52.258  39.904  1.00  0.00     0.273 C 
BRANCH  28  29
HETATM   29  C   UNL     1      35.748  51.944  41.080  1.00  0.00    -0.030 A 
HETATM   30  C   UNL     1      35.998  52.917  42.065  1.00  0.00     0.048 A 
HETATM   31  C   UNL     1      36.785  52.565  43.142  1.00  0.00     0.105 A 
HETATM   32  C   UNL     1      37.340  51.316  43.260  1.00  0.00     0.105 A 
HETATM   33  O   UNL     1      37.097  53.374  44.188  1.00  0.00    -0.323 OA
HETATM   34  O   UNL     1      38.075  51.180  44.394  1.00  0.00    -0.323 OA
HETATM   35  C   UNL     1      37.141  50.344  42.305  1.00  0.00     0.040 A 
HETATM   36  C   UNL     1      37.928  52.491  44.979  1.00  0.00     0.352 A 
HETATM   37  C   UNL     1      36.336  50.663  41.205  1.00  0.00     0.012 A 
ENDBRANCH  28  29
ENDBRANCH   6  28
TORSDOF 6
ENDMDL
MODEL 10
REMARK VINA RESULT:      -9.3      3.259     11.701
REMARK  6 active torsions:
REMARK  status: ('A' for Active; 'I' for Inactive)
REMARK    1  A    between atoms: C_6  and  N_7 
REMARK       I    between atoms: N_7  and  C_8 
REMARK    2  A    between atoms: C_8  and  C_9 
REMARK    3  A    between atoms: C_9  and  S_10 
REMARK    4  A    between atoms: S_10  and  C_11 
REMARK    5  A    between atoms: N_16  and  C_18 
REMARK    6  A    between atoms: C_18  and  C_19 
ROOT
HETATM    1  C   UNL     1      23.790  44.227  49.379  1.00  0.00     0.169 A 
HETATM    2  N   UNL     1      24.154  43.136  49.967  1.00  0.00    -0.228 NA
HETATM    3  C   UNL     1      25.440  43.089  50.445  1.00  0.00     0.052 A 
HETATM    4  C   UNL     1      26.321  44.093  50.311  1.00  0.00     0.060 A 
HETATM    5  C   UNL     1      27.689  44.103  50.891  1.00  0.00     0.281 C 
HETATM    6  N   UNL     1      27.872  43.023  51.942  1.00  0.00    -0.063 N 
HETATM    7  H   UNL     1      27.300  43.306  52.747  1.00  0.00     0.280 HD
HETATM    8  C   UNL     1      27.321  41.700  51.450  1.00  0.00     0.241 C 
HETATM    9  C   UNL     1      25.817  41.829  51.185  1.00  0.00     0.088 C 
HETATM   10  C   UNL     1      25.894  45.301  49.583  1.00  0.00     0.257 A 
HETATM   11  O   UNL     1      26.676  46.226  49.409  1.00  0.00    -0.267 OA
HETATM   12  N   UNL     1      24.606  45.289  49.154  1.00  0.00    -0.302 N 
HETATM   13  H   UNL     1      24.236  46.103  48.686  1.00  0.00     0.171 HD
ENDROOT
BRANCH   1  14
HETATM   14  S   UNL     1      22.185  44.486  48.785  1.00  0.00    -0.083 SA
BRANCH  14  15
HETATM   15  C   UNL     1      22.403  46.121  48.013  1.00  0.00     0.185 C 
BRANCH  15  16
HETATM   16  C   UNL     1      21.540  46.331  46.779  1.00  0.00     0.231 C 
HETATM   17  N   UNL     1      20.663  47.377  46.704  1.00  0.00    -0.327 N 
HETATM   18  H   UNL     1      20.232  47.405  45.786  1.00  0.00     0.169 HD
HETATM   19  O   UNL     1      21.614  45.604  45.780  1.00  0.00    -0.272 OA
BRANCH  17  20
HETATM   20  C   UNL     1      20.245  48.383  47.595  1.00  0.00     0.035 A 
HETATM   21  C   UNL     1      19.711  48.179  48.867  1.00  0.00     0.037 A 
HETATM   22  C   UNL     1      19.316  49.261  49.684  1.00  0.00    -0.054 A 
HETATM   23  C   UNL     1      19.432  50.577  49.200  1.00  0.00    -0.056 A 
HETATM   24  C   UNL     1      18.699  48.963  51.026  1.00  0.00     0.049 C 
HETATM   25  C   UNL     1      19.000  51.763  50.018  1.00  0.00     0.049 C 
HETATM   26  C   UNL     1      19.959  50.781  47.921  1.00  0.00     0.009 A 
HETATM   27  C   UNL     1      20.352  49.699  47.130  1.00  0.00     0.030 A 
ENDBRANCH  17  20
ENDBRANCH  15  16
ENDBRANCH  14  15
ENDBRANCH   1  14
BRANCH   6  28
HETATM   28  C   UNL     1      29.298  42.958  52.432  1.00  0.00     0.273 C 
BRANCH  28  29
HETATM   29  C   UNL     1      29.489  43.593  53.785  1.00  0.00    -0.030 A 
HETATM   30  C   UNL     1      30.501  43.139  54.651  1.00  0.00     0.048 A 
HETATM   31  C   UNL     1      30.660  43.783  55.860  1.00  0.00     0.105 A 
HETATM   32  C   UNL     1      29.852  44.825  56.242  1.00  0.00     0.105 A 
HETATM   33  O   UNL     1      31.603  43.487  56.793  1.00  0.00    -0.323 OA
HETATM   34  O   UNL     1      30.181  45.315  57.464  1.00  0.00    -0.323 OA
HETATM   35  C   UNL     1      28.835  45.283  55.434  1.00  0.00     0.040 A 
HETATM   36  C   UNL     1      31.288  44.460  57.818  1.00  0.00     0.352 A 
HETATM   37  C   UNL     1      28.653  44.660  54.194  1.00  0.00     0.012 A 
ENDBRANCH  28  29
ENDBRANCH   6  28
TORSDOF 6
ENDMDL
