MODEL 1
REMARK VINA RESULT:      -9.7      0.000      0.000
REMARK  3 active torsions:
REMARK  status: ('A' for Active; 'I' for Inactive)
REMARK    1  A    between atoms: C_4  and  C_5 
REMARK    2  A    between atoms: C_5  and  C_6 
REMARK    3  A    between atoms: C_6  and  N_7 
ROOT
HETATM    1  N   UNL     1      26.723  45.237  52.239  1.00  0.00    -0.071 N 
HETATM    2  H   UNL     1      27.424  45.938  52.520  1.00  0.00     0.279 HD
HETATM    3  C   UNL     1      25.357  45.873  52.381  1.00  0.00     0.237 C 
HETATM    4  C   UNL     1      25.246  47.074  51.469  1.00  0.00     0.065 C 
HETATM    5  C   UNL     1      25.446  46.706  49.983  1.00  0.00     0.076 C 
HETATM    6  N   UNL     1      25.594  47.969  49.237  1.00  0.00    -0.373 N 
HETATM    7  C   UNL     1      24.412  48.666  48.934  1.00  0.00     0.056 A 
HETATM    8  C   UNL     1      23.183  48.005  48.768  1.00  0.00     0.065 A 
HETATM    9  N   UNL     1      23.178  46.605  48.960  1.00  0.00    -0.321 N 
HETATM   10  C   UNL     1      24.263  45.908  49.475  1.00  0.00     0.045 A 
HETATM   11  C   UNL     1      22.167  45.713  48.695  1.00  0.00     0.097 A 
HETATM   12  C   UNL     1      22.631  44.440  48.926  1.00  0.00     0.020 A 
HETATM   13  C   UNL     1      23.958  44.558  49.397  1.00  0.00     0.029 A 
HETATM   14  C   UNL     1      24.469  50.035  48.652  1.00  0.00     0.031 A 
HETATM   15  C   UNL     1      23.317  50.741  48.293  1.00  0.00     0.002 A 
HETATM   16  C   UNL     1      22.098  50.077  48.176  1.00  0.00     0.002 A 
HETATM   17  C   UNL     1      22.027  48.703  48.400  1.00  0.00     0.032 A 
HETATM   18  C   UNL     1      26.787  45.957  49.830  1.00  0.00     0.065 C 
HETATM   19  C   UNL     1      27.015  44.821  50.817  1.00  0.00     0.237 C 
HETATM   20  H   UNL     1      26.329  48.593  49.559  1.00  0.00     0.161 HD
ENDROOT
BRANCH   1  21
HETATM   21  C   UNL     1      26.831  44.078  53.228  1.00  0.00     0.239 C 
BRANCH  21  22
HETATM   22  C   UNL     1      28.172  43.347  53.139  1.00  0.00     0.066 C 
BRANCH  22  23
HETATM   23  C   UNL     1      29.074  43.822  54.250  1.00  0.00    -0.057 A 
HETATM   24  C   UNL     1      30.190  43.061  54.630  1.00  0.00     0.007 A 
HETATM   25  C   UNL     1      30.981  43.460  55.707  1.00  0.00     0.001 A 
HETATM   26  C   UNL     1      30.668  44.621  56.413  1.00  0.00     0.000 A 
HETATM   27  C   UNL     1      29.566  45.386  56.038  1.00  0.00     0.001 A 
HETATM   28  C   UNL     1      28.771  44.991  54.962  1.00  0.00     0.007 A 
ENDBRANCH  22  23
ENDBRANCH  21  22
ENDBRANCH   1  21
TORSDOF 3
ENDMDL
MODEL 2
REMARK VINA RESULT:      -9.1      1.988      4.195
REMARK  3 active torsions:
REMARK  status: ('A' for Active; 'I' for Inactive)
REMARK    1  A    between atoms: C_4  and  C_5 
REMARK    2  A    between atoms: C_5  and  C_6 
REMARK    3  A    between atoms: C_6  and  N_7 
ROOT
HETATM    1  N   UNL     1      28.442  42.489  53.519  1.00  0.00    -0.071 N 
HETATM    2  H   UNL     1      28.289  41.648  52.944  1.00  0.00     0.279 HD
HETATM    3  C   UNL     1      28.598  43.664  52.578  1.00  0.00     0.237 C 
HETATM    4  C   UNL     1      27.338  43.848  51.763  1.00  0.00     0.065 C 
HETATM    5  C   UNL     1      26.098  44.108  52.645  1.00  0.00     0.076 C 
HETATM    6  N   UNL     1      24.912  43.991  51.777  1.00  0.00    -0.373 N 
HETATM    7  C   UNL     1      24.607  45.102  50.972  1.00  0.00     0.056 A 
HETATM    8  C   UNL     1      24.954  46.410  51.351  1.00  0.00     0.065 A 
HETATM    9  N   UNL     1      25.663  46.558  52.564  1.00  0.00    -0.321 N 
HETATM   10  C   UNL     1      26.179  45.483  53.275  1.00  0.00     0.045 A 
HETATM   11  C   UNL     1      25.966  47.717  53.237  1.00  0.00     0.097 A 
HETATM   12  C   UNL     1      26.569  47.390  54.429  1.00  0.00     0.020 A 
HETATM   13  C   UNL     1      26.685  45.983  54.465  1.00  0.00     0.029 A 
HETATM   14  C   UNL     1      23.818  44.933  49.829  1.00  0.00     0.031 A 
HETATM   15  C   UNL     1      23.452  46.029  49.043  1.00  0.00     0.002 A 
HETATM   16  C   UNL     1      23.843  47.315  49.410  1.00  0.00     0.002 A 
HETATM   17  C   UNL     1      24.584  47.514  50.573  1.00  0.00     0.032 A 
HETATM   18  C   UNL     1      25.980  42.975  53.687  1.00  0.00     0.065 C 
HETATM   19  C   UNL     1      27.260  42.650  54.444  1.00  0.00     0.237 C 
HETATM   20  H   UNL     1      24.819  43.117  51.266  1.00  0.00     0.161 HD
ENDROOT
BRANCH   1  21
HETATM   21  C   UNL     1      29.756  42.282  54.269  1.00  0.00     0.239 C 
BRANCH  21  22
HETATM   22  C   UNL     1      30.621  43.543  54.308  1.00  0.00     0.066 C 
BRANCH  22  23
HETATM   23  C   UNL     1      30.573  44.139  55.691  1.00  0.00    -0.057 A 
HETATM   24  C   UNL     1      29.771  45.260  55.952  1.00  0.00     0.007 A 
HETATM   25  C   UNL     1      29.784  45.858  57.212  1.00  0.00     0.001 A 
HETATM   26  C   UNL     1      30.594  45.343  58.222  1.00  0.00     0.000 A 
HETATM   27  C   UNL     1      31.388  44.225  57.975  1.00  0.00     0.001 A 
HETATM   28  C   UNL     1      31.379  43.624  56.715  1.00  0.00     0.007 A 
ENDBRANCH  22  23
ENDBRANCH  21  22
ENDBRANCH   1  21
TORSDOF 3
ENDMDL
MODEL 3
REMARK VINA RESULT:      -9.0      2.075      4.116
REMARK  3 active torsions:
REMARK  status: ('A' for Active; 'I' for Inactive)
REMARK    1  A    between atoms: C_4  and  C_5 
REMARK    2  A    between atoms: C_5  and  C_6 
REMARK    3  A    between atoms: C_6  and  N_7 
ROOT
HETATM    1  N   UNL     1      27.858  43.572  53.166  1.00  0.00    -0.071 N 
HETATM    2  H   UNL     1      27.925  42.552  53.297  1.00  0.00     0.279 HD
HETATM    3  C   UNL     1      27.865  43.844  51.677  1.00  0.00     0.237 C 
HETATM    4  C   UNL     1      26.673  43.184  51.022  1.00  0.00     0.065 C 
HETATM    5  C   UNL     1      25.331  43.695  51.591  1.00  0.00     0.076 C 
HETATM    6  N   UNL     1      24.275  42.797  51.089  1.00  0.00    -0.373 N 
HETATM    7  C   UNL     1      23.833  43.016  49.773  1.00  0.00     0.056 A 
HETATM    8  C   UNL     1      23.881  44.287  49.177  1.00  0.00     0.065 A 
HETATM    9  N   UNL     1      24.435  45.335  49.946  1.00  0.00    -0.321 N 
HETATM   10  C   UNL     1      25.085  45.124  51.155  1.00  0.00     0.045 A 
HETATM   11  C   UNL     1      24.443  46.681  49.671  1.00  0.00     0.097 A 
HETATM   12  C   UNL     1      24.988  47.347  50.744  1.00  0.00     0.020 A 
HETATM   13  C   UNL     1      25.374  46.370  51.688  1.00  0.00     0.029 A 
HETATM   14  C   UNL     1      23.198  41.983  49.075  1.00  0.00     0.031 A 
HETATM   15  C   UNL     1      22.698  42.191  47.787  1.00  0.00     0.002 A 
HETATM   16  C   UNL     1      22.795  43.447  47.192  1.00  0.00     0.002 A 
HETATM   17  C   UNL     1      23.375  44.506  47.890  1.00  0.00     0.032 A 
HETATM   18  C   UNL     1      25.344  43.528  53.125  1.00  0.00     0.065 C 
HETATM   19  C   UNL     1      26.588  44.051  53.828  1.00  0.00     0.237 C 
HETATM   20  H   UNL     1      24.401  41.807  51.286  1.00  0.00     0.161 HD
ENDROOT
BRANCH   1  21
HETATM   21  C   UNL     1      29.113  44.183  53.784  1.00  0.00     0.239 C 
BRANCH  21  22
HETATM   22  C   UNL     1      28.798  45.186  54.895  1.00  0.00     0.066 C 
BRANCH  22  23
HETATM   23  C   UNL     1      29.782  45.008  56.022  1.00  0.00    -0.057 A 
HETATM   24  C   UNL     1      30.719  43.964  55.987  1.00  0.00     0.007 A 
HETATM   25  C   UNL     1      31.579  43.752  57.064  1.00  0.00     0.001 A 
HETATM   26  C   UNL     1      31.515  44.580  58.184  1.00  0.00     0.000 A 
HETATM   27  C   UNL     1      30.595  45.624  58.224  1.00  0.00     0.001 A 
HETATM   28  C   UNL     1      29.731  45.839  57.150  1.00  0.00     0.007 A 
ENDBRANCH  22  23
ENDBRANCH  21  22
ENDBRANCH   1  21
TORSDOF 3
ENDMDL
MODEL 4
REMARK VINA RESULT:      -8.9      1.663      8.521
REMARK  3 active torsions:
REMARK  status: ('A' for Active; 'I' for Inactive)
REMARK    1  A    between atoms: C_4  and  C_5 
REMARK    2  A    between atoms: C_5  and  C_6 
REMARK    3  A    between atoms: C_6  and  N_7 
ROOT
HETATM    1  N   UNL     1      25.047  46.461  51.647  1.00  0.00    -0.071 N 
HETATM    2  H   UNL     1      24.519  47.171  52.175  1.00  0.00     0.279 HD
HETATM    3  C   UNL     1      26.519  46.781  51.794  1.00  0.00     0.237 C 
HETATM    4  C   UNL     1      26.923  46.713  53.250  1.00  0.00     0.065 C 
HETATM    5  C   UNL     1      26.677  45.318  53.864  1.00  0.00     0.076 C 
HETATM    6  N   UNL     1      26.838  45.450  55.324  1.00  0.00    -0.373 N 
HETATM    7  C   UNL     1      28.155  45.465  55.815  1.00  0.00     0.056 A 
HETATM    8  C   UNL     1      29.203  44.810  55.146  1.00  0.00     0.065 A 
HETATM    9  N   UNL     1      28.883  44.166  53.930  1.00  0.00    -0.321 N 
HETATM   10  C   UNL     1      27.656  44.312  53.295  1.00  0.00     0.045 A 
HETATM   11  C   UNL     1      29.669  43.325  53.179  1.00  0.00     0.097 A 
HETATM   12  C   UNL     1      28.920  42.839  52.133  1.00  0.00     0.020 A 
HETATM   13  C   UNL     1      27.646  43.443  52.216  1.00  0.00     0.029 A 
HETATM   14  C   UNL     1      28.420  46.024  57.070  1.00  0.00     0.031 A 
HETATM   15  C   UNL     1      29.710  46.001  57.606  1.00  0.00     0.002 A 
HETATM   16  C   UNL     1      30.747  45.386  56.909  1.00  0.00     0.002 A 
HETATM   17  C   UNL     1      30.496  44.776  55.681  1.00  0.00     0.032 A 
HETATM   18  C   UNL     1      25.204  44.922  53.629  1.00  0.00     0.065 C 
HETATM   19  C   UNL     1      24.699  45.102  52.204  1.00  0.00     0.237 C 
HETATM   20  H   UNL     1      26.259  46.154  55.774  1.00  0.00     0.161 HD
ENDROOT
BRANCH   1  21
HETATM   21  C   UNL     1      24.655  46.616  50.179  1.00  0.00     0.239 C 
BRANCH  21  22
HETATM   22  C   UNL     1      25.274  47.854  49.529  1.00  0.00     0.066 C 
BRANCH  22  23
HETATM   23  C   UNL     1      24.176  48.766  49.044  1.00  0.00    -0.057 A 
HETATM   24  C   UNL     1      22.835  48.360  49.116  1.00  0.00     0.007 A 
HETATM   25  C   UNL     1      21.824  49.170  48.599  1.00  0.00     0.001 A 
HETATM   26  C   UNL     1      22.141  50.392  48.009  1.00  0.00     0.000 A 
HETATM   27  C   UNL     1      23.469  50.808  47.941  1.00  0.00     0.001 A 
HETATM   28  C   UNL     1      24.483  50.000  48.455  1.00  0.00     0.007 A 
ENDBRANCH  22  23
ENDBRANCH  21  22
ENDBRANCH   1  21
TORSDOF 3
ENDMDL
MODEL 5
REMARK VINA RESULT:      -8.8      2.210      8.474
REMARK  3 active torsions:
REMARK  status: ('A' for Active; 'I' for Inactive)
REMARK    1  A    between atoms: C_4  and  C_5 
REMARK    2  A    between atoms: C_5  and  C_6 
REMARK    3  A    between atoms: C_6  and  N_7 
ROOT
HETATM    1  N   UNL     1      26.055  43.178  52.107  1.00  0.00    -0.071 N 
HETATM    2  H   UNL     1      26.364  42.210  51.935  1.00  0.00     0.279 HD
HETATM    3  C   UNL     1      25.984  43.376  53.606  1.00  0.00     0.237 C 
HETATM    4  C   UNL     1      27.351  43.179  54.222  1.00  0.00     0.065 C 
HETATM    5  C   UNL     1      28.396  44.168  53.662  1.00  0.00     0.076 C 
HETATM    6  N   UNL     1      29.721  43.706  54.116  1.00  0.00    -0.373 N 
HETATM    7  C   UNL     1      30.083  44.026  55.436  1.00  0.00     0.056 A 
HETATM    8  C   UNL     1      29.584  45.168  56.084  1.00  0.00     0.065 A 
HETATM    9  N   UNL     1      28.666  45.964  55.365  1.00  0.00    -0.321 N 
HETATM   10  C   UNL     1      28.110  45.572  54.154  1.00  0.00     0.045 A 
HETATM   11  C   UNL     1      28.170  47.202  55.696  1.00  0.00     0.097 A 
HETATM   12  C   UNL     1      27.392  47.658  54.657  1.00  0.00     0.020 A 
HETATM   13  C   UNL     1      27.370  46.642  53.676  1.00  0.00     0.029 A 
HETATM   14  C   UNL     1      31.070  43.275  56.084  1.00  0.00     0.031 A 
HETATM   15  C   UNL     1      31.489  43.608  57.375  1.00  0.00     0.002 A 
HETATM   16  C   UNL     1      30.952  44.718  58.022  1.00  0.00     0.002 A 
HETATM   17  C   UNL     1      30.006  45.513  57.375  1.00  0.00     0.032 A 
HETATM   18  C   UNL     1      28.409  44.062  52.122  1.00  0.00     0.065 C 
HETATM   19  C   UNL     1      27.042  44.114  51.454  1.00  0.00     0.237 C 
HETATM   20  H   UNL     1      29.963  42.747  53.879  1.00  0.00     0.161 HD
ENDROOT
BRANCH   1  21
HETATM   21  C   UNL     1      24.647  43.305  51.528  1.00  0.00     0.239 C 
BRANCH  21  22
HETATM   22  C   UNL     1      24.649  43.530  50.014  1.00  0.00     0.066 C 
BRANCH  22  23
HETATM   23  C   UNL     1      24.064  44.885  49.710  1.00  0.00    -0.057 A 
HETATM   24  C   UNL     1      23.004  45.011  48.800  1.00  0.00     0.007 A 
HETATM   25  C   UNL     1      22.512  46.271  48.461  1.00  0.00     0.001 A 
HETATM   26  C   UNL     1      23.070  47.415  49.027  1.00  0.00     0.000 A 
HETATM   27  C   UNL     1      24.118  47.300  49.939  1.00  0.00     0.001 A 
HETATM   28  C   UNL     1      24.614  46.041  50.280  1.00  0.00     0.007 A 
ENDBRANCH  22  23
ENDBRANCH  21  22
ENDBRANCH   1  21
TORSDOF 3
ENDMDL
MODEL 6
REMARK VINA RESULT:      -8.7      1.802      8.297
REMARK  3 active torsions:
REMARK  status: ('A' for Active; 'I' for Inactive)
REMARK    1  A    between atoms: C_4  and  C_5 
REMARK    2  A    between atoms: C_5  and  C_6 
REMARK    3  A    between atoms: C_6  and  N_7 
ROOT
HETATM    1  N   UNL     1      24.200  43.946  49.677  1.00  0.00    -0.071 N 
HETATM    2  H   UNL     1      24.515  43.161  49.088  1.00  0.00     0.279 HD
HETATM    3  C   UNL     1      24.354  43.523  51.122  1.00  0.00     0.237 C 
HETATM    4  C   UNL     1      25.805  43.229  51.426  1.00  0.00     0.065 C 
HETATM    5  C   UNL     1      26.716  44.454  51.191  1.00  0.00     0.076 C 
HETATM    6  N   UNL     1      28.110  43.977  51.246  1.00  0.00    -0.373 N 
HETATM    7  C   UNL     1      28.660  43.779  52.525  1.00  0.00     0.056 A 
HETATM    8  C   UNL     1      28.226  44.516  53.640  1.00  0.00     0.065 A 
HETATM    9  N   UNL     1      27.180  45.441  53.429  1.00  0.00    -0.321 N 
HETATM   10  C   UNL     1      26.458  45.511  52.244  1.00  0.00     0.045 A 
HETATM   11  C   UNL     1      26.696  46.392  54.296  1.00  0.00     0.097 A 
HETATM   12  C   UNL     1      25.752  47.147  53.639  1.00  0.00     0.020 A 
HETATM   13  C   UNL     1      25.616  46.607  52.341  1.00  0.00     0.029 A 
HETATM   14  C   UNL     1      29.760  42.930  52.681  1.00  0.00     0.031 A 
HETATM   15  C   UNL     1      30.361  42.760  53.931  1.00  0.00     0.002 A 
HETATM   16  C   UNL     1      29.890  43.465  55.037  1.00  0.00     0.002 A 
HETATM   17  C   UNL     1      28.828  44.357  54.894  1.00  0.00     0.032 A 
HETATM   18  C   UNL     1      26.495  44.971  49.754  1.00  0.00     0.065 C 
HETATM   19  C   UNL     1      25.041  45.154  49.342  1.00  0.00     0.237 C 
HETATM   20  H   UNL     1      28.347  43.220  50.611  1.00  0.00     0.161 HD
ENDROOT
BRANCH   1  21
HETATM   21  C   UNL     1      22.717  44.158  49.381  1.00  0.00     0.239 C 
BRANCH  21  22
HETATM   22  C   UNL     1      22.477  44.941  48.088  1.00  0.00     0.066 C 
BRANCH  22  23
HETATM   23  C   UNL     1      21.611  46.138  48.383  1.00  0.00    -0.057 A 
HETATM   24  C   UNL     1      20.214  46.034  48.321  1.00  0.00     0.007 A 
HETATM   25  C   UNL     1      19.414  47.160  48.520  1.00  0.00     0.001 A 
HETATM   26  C   UNL     1      19.999  48.396  48.783  1.00  0.00     0.000 A 
HETATM   27  C   UNL     1      21.386  48.508  48.855  1.00  0.00     0.001 A 
HETATM   28  C   UNL     1      22.191  47.385  48.656  1.00  0.00     0.007 A 
ENDBRANCH  22  23
ENDBRANCH  21  22
ENDBRANCH   1  21
TORSDOF 3
ENDMDL
MODEL 7
REMARK VINA RESULT:      -8.5      3.870      6.929
REMARK  3 active torsions:
REMARK  status: ('A' for Active; 'I' for Inactive)
REMARK    1  A    between atoms: C_4  and  C_5 
REMARK    2  A    between atoms: C_5  and  C_6 
REMARK    3  A    between atoms: C_6  and  N_7 
ROOT
HETATM    1  N   UNL     1      25.847  42.603  49.220  1.00  0.00    -0.071 N 
HETATM    2  H   UNL     1      25.192  43.263  48.774  1.00  0.00     0.279 HD
HETATM    3  C   UNL     1      27.065  43.390  49.652  1.00  0.00     0.237 C 
HETATM    4  C   UNL     1      26.671  44.447  50.658  1.00  0.00     0.065 C 
HETATM    5  C   UNL     1      26.023  43.844  51.923  1.00  0.00     0.076 C 
HETATM    6  N   UNL     1      25.437  44.960  52.688  1.00  0.00    -0.373 N 
HETATM    7  C   UNL     1      26.322  45.722  53.471  1.00  0.00     0.056 A 
HETATM    8  C   UNL     1      27.499  45.172  54.006  1.00  0.00     0.065 A 
HETATM    9  N   UNL     1      27.779  43.824  53.688  1.00  0.00    -0.321 N 
HETATM   10  C   UNL     1      27.059  43.104  52.744  1.00  0.00     0.045 A 
HETATM   11  C   UNL     1      28.755  43.011  54.211  1.00  0.00     0.097 A 
HETATM   12  C   UNL     1      28.595  41.745  53.699  1.00  0.00     0.020 A 
HETATM   13  C   UNL     1      27.515  41.796  52.790  1.00  0.00     0.029 A 
HETATM   14  C   UNL     1      25.967  47.020  53.850  1.00  0.00     0.031 A 
HETATM   15  C   UNL     1      26.802  47.778  54.676  1.00  0.00     0.002 A 
HETATM   16  C   UNL     1      27.989  47.233  55.162  1.00  0.00     0.002 A 
HETATM   17  C   UNL     1      28.337  45.922  54.840  1.00  0.00     0.032 A 
HETATM   18  C   UNL     1      24.841  42.947  51.498  1.00  0.00     0.065 C 
HETATM   19  C   UNL     1      25.142  41.953  50.386  1.00  0.00     0.237 C 
HETATM   20  H   UNL     1      24.777  45.547  52.185  1.00  0.00     0.161 HD
ENDROOT
BRANCH   1  21
HETATM   21  C   UNL     1      26.264  41.599  48.147  1.00  0.00     0.239 C 
BRANCH  21  22
HETATM   22  C   UNL     1      25.990  40.150  48.554  1.00  0.00     0.066 C 
BRANCH  22  23
HETATM   23  C   UNL     1      27.300  39.431  48.749  1.00  0.00    -0.057 A 
HETATM   24  C   UNL     1      27.824  38.625  47.728  1.00  0.00     0.007 A 
HETATM   25  C   UNL     1      28.997  37.898  47.935  1.00  0.00     0.001 A 
HETATM   26  C   UNL     1      29.657  37.971  49.160  1.00  0.00     0.000 A 
HETATM   27  C   UNL     1      29.148  38.774  50.178  1.00  0.00     0.001 A 
HETATM   28  C   UNL     1      27.974  39.502  49.976  1.00  0.00     0.007 A 
ENDBRANCH  22  23
ENDBRANCH  21  22
ENDBRANCH   1  21
TORSDOF 3
ENDMDL
MODEL 8
REMARK VINA RESULT:      -8.5     11.072     12.538
REMARK  3 active torsions:
REMARK  status: ('A' for Active; 'I' for Inactive)
REMARK    1  A    between atoms: C_4  and  C_5 
REMARK    2  A    between atoms: C_5  and  C_6 
REMARK    3  A    between atoms: C_6  and  N_7 
ROOT
HETATM    1  N   UNL     1      29.409  52.952  40.313  1.00  0.00    -0.071 N 
HETATM    2  H   UNL     1      28.821  53.756  40.049  1.00  0.00     0.279 HD
HETATM    3  C   UNL     1      28.630  52.128  41.317  1.00  0.00     0.237 C 
HETATM    4  C   UNL     1      27.351  51.620  40.691  1.00  0.00     0.065 C 
HETATM    5  C   UNL     1      27.612  50.736  39.453  1.00  0.00     0.076 C 
HETATM    6  N   UNL     1      26.316  50.537  38.778  1.00  0.00    -0.373 N 
HETATM    7  C   UNL     1      25.461  49.565  39.326  1.00  0.00     0.056 A 
HETATM    8  C   UNL     1      25.957  48.453  40.027  1.00  0.00     0.065 A 
HETATM    9  N   UNL     1      27.357  48.372  40.194  1.00  0.00    -0.321 N 
HETATM   10  C   UNL     1      28.219  49.412  39.869  1.00  0.00     0.045 A 
HETATM   11  C   UNL     1      28.098  47.322  40.680  1.00  0.00     0.097 A 
HETATM   12  C   UNL     1      29.432  47.632  40.563  1.00  0.00     0.020 A 
HETATM   13  C   UNL     1      29.511  48.939  40.033  1.00  0.00     0.029 A 
HETATM   14  C   UNL     1      24.089  49.620  39.057  1.00  0.00     0.031 A 
HETATM   15  C   UNL     1      23.225  48.635  39.542  1.00  0.00     0.002 A 
HETATM   16  C   UNL     1      23.728  47.561  40.274  1.00  0.00     0.002 A 
HETATM   17  C   UNL     1      25.098  47.457  40.509  1.00  0.00     0.032 A 
HETATM   18  C   UNL     1      28.498  51.517  38.460  1.00  0.00     0.065 C 
HETATM   19  C   UNL     1      29.733  52.171  39.063  1.00  0.00     0.237 C 
HETATM   20  H   UNL     1      25.813  51.383  38.522  1.00  0.00     0.161 HD
ENDROOT
BRANCH   1  21
HETATM   21  C   UNL     1      30.652  53.515  40.998  1.00  0.00     0.239 C 
BRANCH  21  22
HETATM   22  C   UNL     1      30.965  52.816  42.323  1.00  0.00     0.066 C 
BRANCH  22  23
HETATM   23  C   UNL     1      31.811  51.598  42.057  1.00  0.00    -0.057 A 
HETATM   24  C   UNL     1      32.797  51.624  41.060  1.00  0.00     0.007 A 
HETATM   25  C   UNL     1      33.529  50.474  40.762  1.00  0.00     0.001 A 
HETATM   26  C   UNL     1      33.285  49.291  41.456  1.00  0.00     0.000 A 
HETATM   27  C   UNL     1      32.313  49.257  42.454  1.00  0.00     0.001 A 
HETATM   28  C   UNL     1      31.578  50.404  42.755  1.00  0.00     0.007 A 
ENDBRANCH  22  23
ENDBRANCH  21  22
ENDBRANCH   1  21
TORSDOF 3
ENDMDL
MODEL 9
REMARK VINA RESULT:      -8.4      3.066      4.479
REMARK  3 active torsions:
REMARK  status: ('A' for Active; 'I' for Inactive)
REMARK    1  A    between atoms: C_4  and  C_5 
REMARK    2  A    between atoms: C_5  and  C_6 
REMARK    3  A    between atoms: C_6  and  N_7 
ROOT
HETATM    1  N   UNL     1      25.999  45.412  52.096  1.00  0.00    -0.071 N 
HETATM    2  H   UNL     1      25.465  46.283  51.961  1.00  0.00     0.279 HD
HETATM    3  C   UNL     1      25.011  44.265  52.091  1.00  0.00     0.237 C 
HETATM    4  C   UNL     1      24.295  44.202  50.761  1.00  0.00     0.065 C 
HETATM    5  C   UNL     1      25.266  43.998  49.578  1.00  0.00     0.076 C 
HETATM    6  N   UNL     1      24.501  44.231  48.339  1.00  0.00    -0.373 N 
HETATM    7  C   UNL     1      23.688  43.176  47.891  1.00  0.00     0.056 A 
HETATM    8  C   UNL     1      23.996  41.834  48.169  1.00  0.00     0.065 A 
HETATM    9  N   UNL     1      25.142  41.589  48.958  1.00  0.00    -0.321 N 
HETATM   10  C   UNL     1      25.843  42.597  49.607  1.00  0.00     0.045 A 
HETATM   11  C   UNL     1      25.751  40.387  49.227  1.00  0.00     0.097 A 
HETATM   12  C   UNL     1      26.900  40.625  49.944  1.00  0.00     0.020 A 
HETATM   13  C   UNL     1      26.971  42.018  50.166  1.00  0.00     0.029 A 
HETATM   14  C   UNL     1      22.619  43.444  47.029  1.00  0.00     0.031 A 
HETATM   15  C   UNL     1      21.830  42.407  46.523  1.00  0.00     0.002 A 
HETATM   16  C   UNL     1      22.122  41.083  46.845  1.00  0.00     0.002 A 
HETATM   17  C   UNL     1      23.215  40.789  47.659  1.00  0.00     0.032 A 
HETATM   18  C   UNL     1      26.350  45.095  49.626  1.00  0.00     0.065 C 
HETATM   19  C   UNL     1      27.011  45.300  50.982  1.00  0.00     0.237 C 
HETATM   20  H   UNL     1      24.027  45.129  48.271  1.00  0.00     0.161 HD
ENDROOT
BRANCH   1  21
HETATM   21  C   UNL     1      26.646  45.497  53.477  1.00  0.00     0.239 C 
BRANCH  21  22
HETATM   22  C   UNL     1      27.070  44.129  54.017  1.00  0.00     0.066 C 
BRANCH  22  23
HETATM   23  C   UNL     1      28.431  44.244  54.653  1.00  0.00    -0.057 A 
HETATM   24  C   UNL     1      29.361  43.201  54.530  1.00  0.00     0.007 A 
HETATM   25  C   UNL     1      30.592  43.274  55.182  1.00  0.00     0.001 A 
HETATM   26  C   UNL     1      30.907  44.386  55.960  1.00  0.00     0.000 A 
HETATM   27  C   UNL     1      29.993  45.430  56.082  1.00  0.00     0.001 A 
HETATM   28  C   UNL     1      28.760  45.362  55.433  1.00  0.00     0.007 A 
ENDBRANCH  22  23
ENDBRANCH  21  22
ENDBRANCH   1  21
TORSDOF 3
ENDMDL
MODEL 10
REMARK VINA RESULT:      -8.2      1.717      3.151
REMARK  3 active torsions:
REMARK  status: ('A' for Active; 'I' for Inactive)
REMARK    1  A    between atoms: C_4  and  C_5 
REMARK    2  A    between atoms: C_5  and  C_6 
REMARK    3  A    between atoms: C_6  and  N_7 
ROOT
HETATM    1  N   UNL     1      26.711  42.090  50.389  1.00  0.00    -0.071 N 
HETATM    2  H   UNL     1      26.399  41.493  49.609  1.00  0.00     0.279 HD
HETATM    3  C   UNL     1      27.029  43.456  49.821  1.00  0.00     0.237 C 
HETATM    4  C   UNL     1      25.791  44.062  49.201  1.00  0.00     0.065 C 
HETATM    5  C   UNL     1      24.643  44.229  50.220  1.00  0.00     0.076 C 
HETATM    6  N   UNL     1      23.425  44.557  49.457  1.00  0.00    -0.373 N 
HETATM    7  C   UNL     1      23.284  45.891  49.037  1.00  0.00     0.056 A 
HETATM    8  C   UNL     1      23.858  46.957  49.750  1.00  0.00     0.065 A 
HETATM    9  N   UNL     1      24.623  46.627  50.890  1.00  0.00    -0.321 N 
HETATM   10  C   UNL     1      24.976  45.323  51.214  1.00  0.00     0.045 A 
HETATM   11  C   UNL     1      25.139  47.471  51.843  1.00  0.00     0.097 A 
HETATM   12  C   UNL     1      25.719  46.715  52.835  1.00  0.00     0.020 A 
HETATM   13  C   UNL     1      25.599  45.361  52.451  1.00  0.00     0.029 A 
HETATM   14  C   UNL     1      22.438  46.193  47.964  1.00  0.00     0.031 A 
HETATM   15  C   UNL     1      22.235  47.516  47.563  1.00  0.00     0.002 A 
HETATM   16  C   UNL     1      22.848  48.559  48.253  1.00  0.00     0.002 A 
HETATM   17  C   UNL     1      23.652  48.286  49.359  1.00  0.00     0.032 A 
HETATM   18  C   UNL     1      24.373  42.867  50.894  1.00  0.00     0.065 C 
HETATM   19  C   UNL     1      25.605  42.142  51.416  1.00  0.00     0.237 C 
HETATM   20  H   UNL     1      23.169  43.901  48.723  1.00  0.00     0.161 HD
ENDROOT
BRANCH   1  21
HETATM   21  C   UNL     1      27.996  41.473  50.936  1.00  0.00     0.239 C 
BRANCH  21  22
HETATM   22  C   UNL     1      27.888  41.090  52.413  1.00  0.00     0.066 C 
BRANCH  22  23
HETATM   23  C   UNL     1      28.546  42.154  53.254  1.00  0.00    -0.057 A 
HETATM   24  C   UNL     1      29.944  42.245  53.315  1.00  0.00     0.007 A 
HETATM   25  C   UNL     1      30.554  43.180  54.151  1.00  0.00     0.001 A 
HETATM   26  C   UNL     1      29.776  44.033  54.931  1.00  0.00     0.000 A 
HETATM   27  C   UNL     1      28.386  43.956  54.871  1.00  0.00     0.001 A 
HETATM   28  C   UNL     1      27.771  43.021  54.037  1.00  0.00     0.007 A 
ENDBRANCH  22  23
ENDBRANCH  21  22
ENDBRANCH   1  21
TORSDOF 3
ENDMDL
