MODEL 1
REMARK VINA RESULT:      -8.3      0.000      0.000
REMARK  3 active torsions:
REMARK  status: ('A' for Active; 'I' for Inactive)
REMARK    1  A    between atoms: C_2  and  N_3 
REMARK       I    between atoms: N_3  and  C_4 
REMARK    2  A    between atoms: C_4  and  C_5 
REMARK    3  A    between atoms: C_5  and  C_6 
ROOT
HETATM    1  C   UNL     1      25.841  45.942  51.582  1.00  0.00     0.286 C 
HETATM    2  N   UNL     1      25.875  44.448  51.268  1.00  0.00    -0.056 N 
HETATM    3  H   UNL     1      26.450  44.314  50.427  1.00  0.00     0.278 HD
HETATM    4  H   UNL     1      26.411  43.979  52.031  1.00  0.00     0.278 HD
HETATM    5  C   UNL     1      24.523  43.811  51.101  1.00  0.00     0.209 C 
HETATM    6  C   UNL     1      23.764  44.563  49.981  1.00  0.00     0.115 C 
HETATM    7  N   UNL     1      23.753  46.005  50.216  1.00  0.00    -0.353 N 
HETATM    8  C   UNL     1      24.777  46.716  50.784  1.00  0.00     0.249 C 
HETATM    9  O   UNL     1      24.782  47.942  50.729  1.00  0.00    -0.271 OA
HETATM   10  C   UNL     1      24.702  42.324  50.797  1.00  0.00     0.035 C 
HETATM   11  C   UNL     1      25.264  42.055  49.403  1.00  0.00     0.002 C 
HETATM   12  C   UNL     1      24.454  42.767  48.325  1.00  0.00     0.002 C 
HETATM   13  C   UNL     1      24.344  44.265  48.590  1.00  0.00     0.027 C 
HETATM   14  H   UNL     1      23.086  46.578  49.701  1.00  0.00     0.163 HD
ENDROOT
BRANCH   1  15
HETATM   15  C   UNL     1      25.634  46.213  53.079  1.00  0.00     0.146 C 
BRANCH  15  16
HETATM   16  C   UNL     1      26.507  45.296  53.901  1.00  0.00     0.224 C 
HETATM   17  N   UNL     1      27.817  45.701  54.007  1.00  0.00    -0.327 N 
HETATM   18  H   UNL     1      28.113  46.513  53.472  1.00  0.00     0.169 HD
HETATM   19  O   UNL     1      25.988  44.303  54.414  1.00  0.00    -0.273 OA
BRANCH  17  20
HETATM   20  C   UNL     1      28.848  45.061  54.732  1.00  0.00     0.034 A 
HETATM   21  C   UNL     1      29.355  45.736  55.852  1.00  0.00     0.031 A 
HETATM   22  C   UNL     1      30.385  45.175  56.616  1.00  0.00     0.026 A 
HETATM   23  C   UNL     1      30.903  43.931  56.272  1.00  0.00     0.034 A 
HETATM   24  C   UNL     1      30.400  43.246  55.170  1.00  0.00     0.026 A 
HETATM   25 CL   UNL     1      32.166  43.239  57.209  1.00  0.00    -0.084 Cl
HETATM   26  C   UNL     1      29.376  43.811  54.401  1.00  0.00     0.031 A 
ENDBRANCH  17  20
ENDBRANCH  15  16
ENDBRANCH   1  15
TORSDOF 3
ENDMDL
MODEL 2
REMARK VINA RESULT:      -8.1      2.626      3.773
REMARK  3 active torsions:
REMARK  status: ('A' for Active; 'I' for Inactive)
REMARK    1  A    between atoms: C_2  and  N_3 
REMARK       I    between atoms: N_3  and  C_4 
REMARK    2  A    between atoms: C_4  and  C_5 
REMARK    3  A    between atoms: C_5  and  C_6 
ROOT
HETATM    1  C   UNL     1      27.181  41.245  51.374  1.00  0.00     0.286 C 
HETATM    2  N   UNL     1      26.446  42.493  51.856  1.00  0.00    -0.056 N 
HETATM    3  H   UNL     1      25.438  42.294  51.843  1.00  0.00     0.278 HD
HETATM    4  H   UNL     1      26.675  42.622  52.866  1.00  0.00     0.278 HD
HETATM    5  C   UNL     1      26.755  43.743  51.079  1.00  0.00     0.209 C 
HETATM    6  C   UNL     1      26.426  43.486  49.589  1.00  0.00     0.115 C 
HETATM    7  N   UNL     1      27.068  42.268  49.100  1.00  0.00    -0.353 N 
HETATM    8  C   UNL     1      27.268  41.133  49.842  1.00  0.00     0.249 C 
HETATM    9  O   UNL     1      27.597  40.087  49.291  1.00  0.00    -0.271 OA
HETATM   10  C   UNL     1      25.962  44.910  51.666  1.00  0.00     0.035 C 
HETATM   11  C   UNL     1      24.464  44.823  51.387  1.00  0.00     0.002 C 
HETATM   12  C   UNL     1      24.180  44.628  49.902  1.00  0.00     0.002 C 
HETATM   13  C   UNL     1      24.912  43.415  49.337  1.00  0.00     0.027 C 
HETATM   14  H   UNL     1      27.138  42.124  48.093  1.00  0.00     0.163 HD
ENDROOT
BRANCH   1  15
HETATM   15  C   UNL     1      28.596  41.145  51.960  1.00  0.00     0.146 C 
BRANCH  15  16
HETATM   16  C   UNL     1      28.644  41.795  53.322  1.00  0.00     0.224 C 
HETATM   17  N   UNL     1      29.629  42.743  53.466  1.00  0.00    -0.327 N 
HETATM   18  H   UNL     1      30.286  42.873  52.701  1.00  0.00     0.169 HD
HETATM   19  O   UNL     1      27.809  41.451  54.161  1.00  0.00    -0.273 OA
BRANCH  17  20
HETATM   20  C   UNL     1      29.891  43.529  54.611  1.00  0.00     0.034 A 
HETATM   21  C   UNL     1      29.098  44.671  54.798  1.00  0.00     0.031 A 
HETATM   22  C   UNL     1      29.302  45.508  55.901  1.00  0.00     0.026 A 
HETATM   23  C   UNL     1      30.291  45.200  56.829  1.00  0.00     0.034 A 
HETATM   24  C   UNL     1      31.076  44.063  56.663  1.00  0.00     0.026 A 
HETATM   25 CL   UNL     1      30.543  46.225  58.186  1.00  0.00    -0.084 Cl
HETATM   26  C   UNL     1      30.877  43.231  55.554  1.00  0.00     0.031 A 
ENDBRANCH  17  20
ENDBRANCH  15  16
ENDBRANCH   1  15
TORSDOF 3
ENDMDL
MODEL 3
REMARK VINA RESULT:      -8.0      3.848      7.363
REMARK  3 active torsions:
REMARK  status: ('A' for Active; 'I' for Inactive)
REMARK    1  A    between atoms: C_2  and  N_3 
REMARK       I    between atoms: N_3  and  C_4 
REMARK    2  A    between atoms: C_4  and  C_5 
REMARK    3  A    between atoms: C_5  and  C_6 
ROOT
HETATM    1  C   UNL     1      26.884  42.898  51.361  1.00  0.00     0.286 C 
HETATM    2  N   UNL     1      27.365  43.866  52.440  1.00  0.00    -0.056 N 
HETATM    3  H   UNL     1      28.343  44.107  52.236  1.00  0.00     0.278 HD
HETATM    4  H   UNL     1      26.842  44.760  52.316  1.00  0.00     0.278 HD
HETATM    5  C   UNL     1      27.220  43.358  53.848  1.00  0.00     0.209 C 
HETATM    6  C   UNL     1      27.988  42.019  53.965  1.00  0.00     0.115 C 
HETATM    7  N   UNL     1      27.595  41.080  52.917  1.00  0.00    -0.353 N 
HETATM    8  C   UNL     1      27.257  41.431  51.635  1.00  0.00     0.249 C 
HETATM    9  O   UNL     1      27.170  40.572  50.764  1.00  0.00    -0.271 OA
HETATM   10  C   UNL     1      27.732  44.419  54.821  1.00  0.00     0.035 C 
HETATM   11  C   UNL     1      29.249  44.590  54.786  1.00  0.00     0.002 C 
HETATM   12  C   UNL     1      29.968  43.257  54.962  1.00  0.00     0.002 C 
HETATM   13  C   UNL     1      29.511  42.224  53.939  1.00  0.00     0.027 C 
HETATM   14  H   UNL     1      27.833  40.096  53.028  1.00  0.00     0.163 HD
ENDROOT
BRANCH   1  15
HETATM   15  C   UNL     1      25.368  42.991  51.138  1.00  0.00     0.146 C 
BRANCH  15  16
HETATM   16  C   UNL     1      24.932  44.437  51.104  1.00  0.00     0.224 C 
HETATM   17  N   UNL     1      25.214  45.088  49.926  1.00  0.00    -0.327 N 
HETATM   18  H   UNL     1      25.752  44.593  49.220  1.00  0.00     0.169 HD
HETATM   19  O   UNL     1      24.358  44.894  52.093  1.00  0.00    -0.273 OA
BRANCH  17  20
HETATM   20  C   UNL     1      24.898  46.427  49.601  1.00  0.00     0.034 A 
HETATM   21  C   UNL     1      23.565  46.708  49.271  1.00  0.00     0.031 A 
HETATM   22  C   UNL     1      23.174  48.007  48.925  1.00  0.00     0.026 A 
HETATM   23  C   UNL     1      24.113  49.033  48.920  1.00  0.00     0.034 A 
HETATM   24  C   UNL     1      25.438  48.770  49.257  1.00  0.00     0.026 A 
HETATM   25 CL   UNL     1      23.637  50.630  48.498  1.00  0.00    -0.084 Cl
HETATM   26  C   UNL     1      25.829  47.469  49.594  1.00  0.00     0.031 A 
ENDBRANCH  17  20
ENDBRANCH  15  16
ENDBRANCH   1  15
TORSDOF 3
ENDMDL
MODEL 4
REMARK VINA RESULT:      -7.6      5.837      9.113
REMARK  3 active torsions:
REMARK  status: ('A' for Active; 'I' for Inactive)
REMARK    1  A    between atoms: C_2  and  N_3 
REMARK       I    between atoms: N_3  and  C_4 
REMARK    2  A    between atoms: C_4  and  C_5 
REMARK    3  A    between atoms: C_5  and  C_6 
ROOT
HETATM    1  C   UNL     1      24.293  47.309  49.983  1.00  0.00     0.286 C 
HETATM    2  N   UNL     1      23.840  45.857  50.120  1.00  0.00    -0.056 N 
HETATM    3  H   UNL     1      23.885  45.604  51.115  1.00  0.00     0.278 HD
HETATM    4  H   UNL     1      22.824  45.821  49.886  1.00  0.00     0.278 HD
HETATM    5  C   UNL     1      24.612  44.876  49.282  1.00  0.00     0.209 C 
HETATM    6  C   UNL     1      26.111  44.993  49.650  1.00  0.00     0.115 C 
HETATM    7  N   UNL     1      26.574  46.377  49.582  1.00  0.00    -0.353 N 
HETATM    8  C   UNL     1      25.821  47.475  49.910  1.00  0.00     0.249 C 
HETATM    9  O   UNL     1      26.356  48.570  50.050  1.00  0.00    -0.271 OA
HETATM   10  C   UNL     1      24.056  43.471  49.510  1.00  0.00     0.035 C 
HETATM   11  C   UNL     1      24.383  42.909  50.892  1.00  0.00     0.002 C 
HETATM   12  C   UNL     1      25.875  42.990  51.192  1.00  0.00     0.002 C 
HETATM   13  C   UNL     1      26.411  44.410  51.039  1.00  0.00     0.027 C 
HETATM   14  H   UNL     1      27.577  46.556  49.554  1.00  0.00     0.163 HD
ENDROOT
BRANCH   1  15
HETATM   15  C   UNL     1      23.661  47.997  48.765  1.00  0.00     0.146 C 
BRANCH  15  16
HETATM   16  C   UNL     1      22.770  49.133  49.211  1.00  0.00     0.224 C 
HETATM   17  N   UNL     1      21.477  49.055  48.752  1.00  0.00    -0.327 N 
HETATM   18  H   UNL     1      21.243  48.311  48.099  1.00  0.00     0.169 HD
HETATM   19  O   UNL     1      23.253  49.997  49.944  1.00  0.00    -0.273 OA
BRANCH  17  20
HETATM   20  C   UNL     1      20.421  49.953  49.030  1.00  0.00     0.034 A 
HETATM   21  C   UNL     1      20.452  51.196  48.380  1.00  0.00     0.031 A 
HETATM   22  C   UNL     1      19.450  52.146  48.611  1.00  0.00     0.026 A 
HETATM   23  C   UNL     1      18.406  51.852  49.481  1.00  0.00     0.034 A 
HETATM   24  C   UNL     1      18.357  50.618  50.123  1.00  0.00     0.026 A 
HETATM   25 CL   UNL     1      17.173  53.016  49.766  1.00  0.00    -0.084 Cl
HETATM   26  C   UNL     1      19.364  49.672  49.898  1.00  0.00     0.031 A 
ENDBRANCH  17  20
ENDBRANCH  15  16
ENDBRANCH   1  15
TORSDOF 3
ENDMDL
MODEL 5
REMARK VINA RESULT:      -7.4      4.162      6.265
REMARK  3 active torsions:
REMARK  status: ('A' for Active; 'I' for Inactive)
REMARK    1  A    between atoms: C_2  and  N_3 
REMARK       I    between atoms: N_3  and  C_4 
REMARK    2  A    between atoms: C_4  and  C_5 
REMARK    3  A    between atoms: C_5  and  C_6 
ROOT
HETATM    1  C   UNL     1      22.905  48.602  49.377  1.00  0.00     0.286 C 
HETATM    2  N   UNL     1      22.054  49.856  49.566  1.00  0.00    -0.056 N 
HETATM    3  H   UNL     1      21.373  49.668  50.313  1.00  0.00     0.278 HD
HETATM    4  H   UNL     1      22.673  50.600  49.956  1.00  0.00     0.278 HD
HETATM    5  C   UNL     1      21.363  50.339  48.320  1.00  0.00     0.209 C 
HETATM    6  C   UNL     1      20.485  49.189  47.772  1.00  0.00     0.115 C 
HETATM    7  N   UNL     1      21.250  47.952  47.625  1.00  0.00    -0.353 N 
HETATM    8  C   UNL     1      22.257  47.548  48.462  1.00  0.00     0.249 C 
HETATM    9  O   UNL     1      22.682  46.398  48.405  1.00  0.00    -0.271 OA
HETATM   10  C   UNL     1      20.556  51.594  48.647  1.00  0.00     0.035 C 
HETATM   11  C   UNL     1      19.325  51.314  49.506  1.00  0.00     0.002 C 
HETATM   12  C   UNL     1      18.457  50.216  48.902  1.00  0.00     0.002 C 
HETATM   13  C   UNL     1      19.249  48.937  48.649  1.00  0.00     0.027 C 
HETATM   14  H   UNL     1      20.864  47.205  47.049  1.00  0.00     0.163 HD
ENDROOT
BRANCH   1  15
HETATM   15  C   UNL     1      24.305  48.930  48.843  1.00  0.00     0.146 C 
BRANCH  15  16
HETATM   16  C   UNL     1      25.357  48.216  49.659  1.00  0.00     0.224 C 
HETATM   17  N   UNL     1      24.854  47.373  50.621  1.00  0.00    -0.327 N 
HETATM   18  H   UNL     1      23.848  47.355  50.767  1.00  0.00     0.169 HD
HETATM   19  O   UNL     1      26.541  48.423  49.391  1.00  0.00    -0.273 OA
BRANCH  17  20
HETATM   20  C   UNL     1      25.596  46.559  51.508  1.00  0.00     0.034 A 
HETATM   21  C   UNL     1      25.786  47.040  52.811  1.00  0.00     0.031 A 
HETATM   22  C   UNL     1      26.519  46.299  53.745  1.00  0.00     0.026 A 
HETATM   23  C   UNL     1      27.053  45.067  53.384  1.00  0.00     0.034 A 
HETATM   24  C   UNL     1      26.861  44.571  52.098  1.00  0.00     0.026 A 
HETATM   25 CL   UNL     1      27.952  44.153  54.530  1.00  0.00    -0.084 Cl
HETATM   26  C   UNL     1      26.135  45.317  51.162  1.00  0.00     0.031 A 
ENDBRANCH  17  20
ENDBRANCH  15  16
ENDBRANCH   1  15
TORSDOF 3
ENDMDL
MODEL 6
REMARK VINA RESULT:      -7.3      3.903      7.539
REMARK  3 active torsions:
REMARK  status: ('A' for Active; 'I' for Inactive)
REMARK    1  A    between atoms: C_2  and  N_3 
REMARK       I    between atoms: N_3  and  C_4 
REMARK    2  A    between atoms: C_4  and  C_5 
REMARK    3  A    between atoms: C_5  and  C_6 
ROOT
HETATM    1  C   UNL     1      27.936  44.290  54.596  1.00  0.00     0.286 C 
HETATM    2  N   UNL     1      29.129  43.683  55.331  1.00  0.00    -0.056 N 
HETATM    3  H   UNL     1      28.826  43.443  56.283  1.00  0.00     0.278 HD
HETATM    4  H   UNL     1      29.340  42.765  54.882  1.00  0.00     0.278 HD
HETATM    5  C   UNL     1      30.356  44.553  55.362  1.00  0.00     0.209 C 
HETATM    6  C   UNL     1      29.977  45.907  56.008  1.00  0.00     0.115 C 
HETATM    7  N   UNL     1      28.805  46.500  55.368  1.00  0.00    -0.353 N 
HETATM    8  C   UNL     1      27.743  45.792  54.867  1.00  0.00     0.249 C 
HETATM    9  O   UNL     1      26.705  46.372  54.563  1.00  0.00    -0.271 OA
HETATM   10  C   UNL     1      31.468  43.828  56.118  1.00  0.00     0.035 C 
HETATM   11  C   UNL     1      31.211  43.727  57.620  1.00  0.00     0.002 C 
HETATM   12  C   UNL     1      30.899  45.090  58.228  1.00  0.00     0.002 C 
HETATM   13  C   UNL     1      29.737  45.778  57.520  1.00  0.00     0.027 C 
HETATM   14  H   UNL     1      28.609  47.487  55.526  1.00  0.00     0.163 HD
ENDROOT
BRANCH   1  15
HETATM   15  C   UNL     1      28.017  44.066  53.080  1.00  0.00     0.146 C 
BRANCH  15  16
HETATM   16  C   UNL     1      27.820  42.604  52.757  1.00  0.00     0.224 C 
HETATM   17  N   UNL     1      27.844  42.310  51.414  1.00  0.00    -0.327 N 
HETATM   18  H   UNL     1      27.905  43.082  50.754  1.00  0.00     0.169 HD
HETATM   19  O   UNL     1      27.680  41.815  53.692  1.00  0.00    -0.273 OA
BRANCH  17  20
HETATM   20  C   UNL     1      27.717  41.033  50.821  1.00  0.00     0.034 A 
HETATM   21  C   UNL     1      26.439  40.654  50.387  1.00  0.00     0.031 A 
HETATM   22  C   UNL     1      26.227  39.401  49.801  1.00  0.00     0.026 A 
HETATM   23  C   UNL     1      27.296  38.526  49.635  1.00  0.00     0.034 A 
HETATM   24  C   UNL     1      28.572  38.894  50.051  1.00  0.00     0.026 A 
HETATM   25 CL   UNL     1      27.040  36.987  48.914  1.00  0.00    -0.084 Cl
HETATM   26  C   UNL     1      28.781  40.145  50.645  1.00  0.00     0.031 A 
ENDBRANCH  17  20
ENDBRANCH  15  16
ENDBRANCH   1  15
TORSDOF 3
ENDMDL
MODEL 7
REMARK VINA RESULT:      -7.2      3.608      7.785
REMARK  3 active torsions:
REMARK  status: ('A' for Active; 'I' for Inactive)
REMARK    1  A    between atoms: C_2  and  N_3 
REMARK       I    between atoms: N_3  and  C_4 
REMARK    2  A    between atoms: C_4  and  C_5 
REMARK    3  A    between atoms: C_5  and  C_6 
ROOT
HETATM    1  C   UNL     1      27.898  44.350  54.493  1.00  0.00     0.286 C 
HETATM    2  N   UNL     1      29.048  43.654  55.218  1.00  0.00    -0.056 N 
HETATM    3  H   UNL     1      28.733  43.428  56.169  1.00  0.00     0.278 HD
HETATM    4  H   UNL     1      29.193  42.727  54.761  1.00  0.00     0.278 HD
HETATM    5  C   UNL     1      30.334  44.435  55.251  1.00  0.00     0.209 C 
HETATM    6  C   UNL     1      30.054  45.807  55.909  1.00  0.00     0.115 C 
HETATM    7  N   UNL     1      28.925  46.486  55.279  1.00  0.00    -0.353 N 
HETATM    8  C   UNL     1      27.813  45.860  54.777  1.00  0.00     0.249 C 
HETATM    9  O   UNL     1      26.818  46.514  54.482  1.00  0.00    -0.271 OA
HETATM   10  C   UNL     1      31.394  43.627  55.996  1.00  0.00     0.035 C 
HETATM   11  C   UNL     1      31.137  43.532  57.498  1.00  0.00     0.002 C 
HETATM   12  C   UNL     1      30.924  44.908  58.119  1.00  0.00     0.002 C 
HETATM   13  C   UNL     1      29.810  45.682  57.421  1.00  0.00     0.027 C 
HETATM   14  H   UNL     1      28.799  47.483  55.446  1.00  0.00     0.163 HD
ENDROOT
BRANCH   1  15
HETATM   15  C   UNL     1      27.958  44.133  52.975  1.00  0.00     0.146 C 
BRANCH  15  16
HETATM   16  C   UNL     1      26.611  44.416  52.353  1.00  0.00     0.224 C 
HETATM   17  N   UNL     1      26.623  45.400  51.392  1.00  0.00    -0.327 N 
HETATM   18  H   UNL     1      27.490  45.907  51.235  1.00  0.00     0.169 HD
HETATM   19  O   UNL     1      25.646  43.750  52.728  1.00  0.00    -0.273 OA
BRANCH  17  20
HETATM   20  C   UNL     1      25.524  45.852  50.626  1.00  0.00     0.034 A 
HETATM   21  C   UNL     1      25.258  47.229  50.642  1.00  0.00     0.031 A 
HETATM   22  C   UNL     1      24.181  47.755  49.919  1.00  0.00     0.026 A 
HETATM   23  C   UNL     1      23.373  46.908  49.167  1.00  0.00     0.034 A 
HETATM   24  C   UNL     1      23.634  45.542  49.134  1.00  0.00     0.026 A 
HETATM   25 CL   UNL     1      22.051  47.551  48.277  1.00  0.00    -0.084 Cl
HETATM   26  C   UNL     1      24.706  45.015  49.864  1.00  0.00     0.031 A 
ENDBRANCH  17  20
ENDBRANCH  15  16
ENDBRANCH   1  15
TORSDOF 3
ENDMDL
MODEL 8
REMARK VINA RESULT:      -7.2     16.197     17.564
REMARK  3 active torsions:
REMARK  status: ('A' for Active; 'I' for Inactive)
REMARK    1  A    between atoms: C_2  and  N_3 
REMARK       I    between atoms: N_3  and  C_4 
REMARK    2  A    between atoms: C_4  and  C_5 
REMARK    3  A    between atoms: C_5  and  C_6 
ROOT
HETATM    1  C   UNL     1      36.991  44.742  65.648  1.00  0.00     0.286 C 
HETATM    2  N   UNL     1      37.441  46.025  64.954  1.00  0.00    -0.056 N 
HETATM    3  H   UNL     1      38.262  46.386  65.455  1.00  0.00     0.278 HD
HETATM    4  H   UNL     1      37.802  45.763  64.011  1.00  0.00     0.278 HD
HETATM    5  C   UNL     1      36.377  47.082  64.837  1.00  0.00     0.209 C 
HETATM    6  C   UNL     1      35.857  47.410  66.258  1.00  0.00     0.115 C 
HETATM    7  N   UNL     1      35.464  46.202  66.979  1.00  0.00    -0.353 N 
HETATM    8  C   UNL     1      36.085  44.984  66.868  1.00  0.00     0.249 C 
HETATM    9  O   UNL     1      35.843  44.093  67.676  1.00  0.00    -0.271 OA
HETATM   10  C   UNL     1      36.956  48.303  64.124  1.00  0.00     0.035 C 
HETATM   11  C   UNL     1      37.964  49.076  64.970  1.00  0.00     0.002 C 
HETATM   12  C   UNL     1      37.394  49.429  66.339  1.00  0.00     0.002 C 
HETATM   13  C   UNL     1      36.889  48.197  67.082  1.00  0.00     0.027 C 
HETATM   14  H   UNL     1      34.882  46.296  67.810  1.00  0.00     0.163 HD
ENDROOT
BRANCH   1  15
HETATM   15  C   UNL     1      36.279  43.783  64.684  1.00  0.00     0.146 C 
BRANCH  15  16
HETATM   16  C   UNL     1      36.892  42.406  64.768  1.00  0.00     0.224 C 
HETATM   17  N   UNL     1      38.133  42.299  64.185  1.00  0.00    -0.327 N 
HETATM   18  H   UNL     1      38.498  43.104  63.682  1.00  0.00     0.169 HD
HETATM   19  O   UNL     1      36.262  41.523  65.352  1.00  0.00    -0.273 OA
BRANCH  17  20
HETATM   20  C   UNL     1      38.952  41.148  64.137  1.00  0.00     0.034 A 
HETATM   21  C   UNL     1      39.626  40.794  65.314  1.00  0.00     0.031 A 
HETATM   22  C   UNL     1      40.466  39.675  65.345  1.00  0.00     0.026 A 
HETATM   23  C   UNL     1      40.625  38.897  64.203  1.00  0.00     0.034 A 
HETATM   24  C   UNL     1      39.952  39.231  63.031  1.00  0.00     0.026 A 
HETATM   25 CL   UNL     1      41.654  37.521  64.238  1.00  0.00    -0.084 Cl
HETATM   26  C   UNL     1      39.119  40.356  62.998  1.00  0.00     0.031 A 
ENDBRANCH  17  20
ENDBRANCH  15  16
ENDBRANCH   1  15
TORSDOF 3
ENDMDL
MODEL 9
REMARK VINA RESULT:      -7.2      3.292      5.089
REMARK  3 active torsions:
REMARK  status: ('A' for Active; 'I' for Inactive)
REMARK    1  A    between atoms: C_2  and  N_3 
REMARK       I    between atoms: N_3  and  C_4 
REMARK    2  A    between atoms: C_4  and  C_5 
REMARK    3  A    between atoms: C_5  and  C_6 
ROOT
HETATM    1  C   UNL     1      23.534  47.051  49.765  1.00  0.00     0.286 C 
HETATM    2  N   UNL     1      23.467  48.575  49.706  1.00  0.00    -0.056 N 
HETATM    3  H   UNL     1      22.661  48.879  50.265  1.00  0.00     0.278 HD
HETATM    4  H   UNL     1      24.297  48.946  50.219  1.00  0.00     0.278 HD
HETATM    5  C   UNL     1      23.404  49.148  48.317  1.00  0.00     0.209 C 
HETATM    6  C   UNL     1      22.176  48.543  47.595  1.00  0.00     0.115 C 
HETATM    7  N   UNL     1      22.173  47.084  47.672  1.00  0.00    -0.353 N 
HETATM    8  C   UNL     1      22.620  46.353  48.742  1.00  0.00     0.249 C 
HETATM    9  O   UNL     1      22.365  45.155  48.820  1.00  0.00    -0.271 OA
HETATM   10  C   UNL     1      23.347  50.673  48.404  1.00  0.00     0.035 C 
HETATM   11  C   UNL     1      22.016  51.198  48.937  1.00  0.00     0.002 C 
HETATM   12  C   UNL     1      20.835  50.623  48.162  1.00  0.00     0.002 C 
HETATM   13  C   UNL     1      20.853  49.098  48.145  1.00  0.00     0.027 C 
HETATM   14  H   UNL     1      21.571  46.563  47.036  1.00  0.00     0.163 HD
ENDROOT
BRANCH   1  15
HETATM   15  C   UNL     1      24.966  46.528  49.586  1.00  0.00     0.146 C 
BRANCH  15  16
HETATM   16  C   UNL     1      25.800  46.866  50.799  1.00  0.00     0.224 C 
HETATM   17  N   UNL     1      25.801  45.899  51.777  1.00  0.00    -0.327 N 
HETATM   18  H   UNL     1      25.194  45.093  51.655  1.00  0.00     0.169 HD
HETATM   19  O   UNL     1      26.411  47.936  50.806  1.00  0.00    -0.273 OA
BRANCH  17  20
HETATM   20  C   UNL     1      26.509  45.928  52.999  1.00  0.00     0.034 A 
HETATM   21  C   UNL     1      26.295  47.032  53.837  1.00  0.00     0.031 A 
HETATM   22  C   UNL     1      26.967  47.141  55.059  1.00  0.00     0.026 A 
HETATM   23  C   UNL     1      27.847  46.139  55.456  1.00  0.00     0.034 A 
HETATM   24  C   UNL     1      28.060  45.032  54.640  1.00  0.00     0.026 A 
HETATM   25 CL   UNL     1      28.673  46.269  56.958  1.00  0.00    -0.084 Cl
HETATM   26  C   UNL     1      27.393  44.928  53.413  1.00  0.00     0.031 A 
ENDBRANCH  17  20
ENDBRANCH  15  16
ENDBRANCH   1  15
TORSDOF 3
ENDMDL
MODEL 10
REMARK VINA RESULT:      -7.2      4.203      5.838
REMARK  3 active torsions:
REMARK  status: ('A' for Active; 'I' for Inactive)
REMARK    1  A    between atoms: C_2  and  N_3 
REMARK       I    between atoms: N_3  and  C_4 
REMARK    2  A    between atoms: C_4  and  C_5 
REMARK    3  A    between atoms: C_5  and  C_6 
ROOT
HETATM    1  C   UNL     1      22.861  48.306  48.531  1.00  0.00     0.286 C 
HETATM    2  N   UNL     1      21.479  47.796  48.934  1.00  0.00    -0.056 N 
HETATM    3  H   UNL     1      21.064  47.328  48.119  1.00  0.00     0.278 HD
HETATM    4  H   UNL     1      21.617  47.034  49.633  1.00  0.00     0.278 HD
HETATM    5  C   UNL     1      20.554  48.851  49.475  1.00  0.00     0.209 C 
HETATM    6  C   UNL     1      20.411  49.967  48.412  1.00  0.00     0.115 C 
HETATM    7  N   UNL     1      21.714  50.448  47.960  1.00  0.00    -0.353 N 
HETATM    8  C   UNL     1      22.833  49.669  47.818  1.00  0.00     0.249 C 
HETATM    9  O   UNL     1      23.811  50.099  47.214  1.00  0.00    -0.271 OA
HETATM   10  C   UNL     1      19.217  48.209  49.841  1.00  0.00     0.035 C 
HETATM   11  C   UNL     1      18.400  47.780  48.624  1.00  0.00     0.002 C 
HETATM   12  C   UNL     1      18.233  48.922  47.629  1.00  0.00     0.002 C 
HETATM   13  C   UNL     1      19.575  49.510  47.206  1.00  0.00     0.027 C 
HETATM   14  H   UNL     1      21.760  51.336  47.460  1.00  0.00     0.163 HD
ENDROOT
BRANCH   1  15
HETATM   15  C   UNL     1      23.816  48.393  49.730  1.00  0.00     0.146 C 
BRANCH  15  16
HETATM   16  C   UNL     1      24.301  47.015  50.113  1.00  0.00     0.224 C 
HETATM   17  N   UNL     1      25.268  47.004  51.091  1.00  0.00    -0.327 N 
HETATM   18  H   UNL     1      25.635  47.895  51.413  1.00  0.00     0.169 HD
HETATM   19  O   UNL     1      23.792  46.043  49.554  1.00  0.00    -0.273 OA
BRANCH  17  20
HETATM   20  C   UNL     1      25.882  45.867  51.664  1.00  0.00     0.034 A 
HETATM   21  C   UNL     1      25.545  45.559  52.990  1.00  0.00     0.031 A 
HETATM   22  C   UNL     1      26.119  44.456  53.634  1.00  0.00     0.026 A 
HETATM   23  C   UNL     1      27.022  43.649  52.950  1.00  0.00     0.034 A 
HETATM   24  C   UNL     1      27.355  43.936  51.630  1.00  0.00     0.026 A 
HETATM   25 CL   UNL     1      27.727  42.293  53.737  1.00  0.00    -0.084 Cl
HETATM   26  C   UNL     1      26.787  45.044  50.989  1.00  0.00     0.031 A 
ENDBRANCH  17  20
ENDBRANCH  15  16
ENDBRANCH   1  15
TORSDOF 3
ENDMDL
