MODEL 1
REMARK VINA RESULT:     -10.4      0.000      0.000
REMARK  6 active torsions:
REMARK  status: ('A' for Active; 'I' for Inactive)
REMARK    1  A    between atoms: C_3  and  C_4 
REMARK       I    between atoms: C_4  and  N_5 
REMARK    2  A    between atoms: N_5  and  C_6 
REMARK    3  A    between atoms: C_14  and  N_15 
REMARK       I    between atoms: N_15  and  C_16 
REMARK    4  A    between atoms: C_16  and  C_17 
REMARK    5  A    between atoms: C_17  and  S_18 
REMARK    6  A    between atoms: S_18  and  C_19 
ROOT
HETATM    1  C   UNL     1      26.554  50.141  48.175  1.00  0.00     0.001 A 
HETATM    2  C   UNL     1      25.191  49.870  48.273  1.00  0.00     0.019 A 
HETATM    3  C   UNL     1      24.728  48.818  49.087  1.00  0.00     0.059 A 
HETATM    4  C   UNL     1      25.649  47.992  49.770  1.00  0.00     0.050 A 
HETATM    5  C   UNL     1      27.014  48.294  49.667  1.00  0.00     0.030 A 
HETATM    6  C   UNL     1      27.461  49.361  48.883  1.00  0.00     0.002 A 
ENDROOT
BRANCH   4   7
HETATM    7  N   UNL     1      25.183  46.871  50.502  1.00  0.00    -0.326 N 
HETATM    8  C   UNL     1      25.231  46.656  51.863  1.00  0.00     0.231 C 
HETATM    9  O   UNL     1      25.603  47.490  52.692  1.00  0.00    -0.272 OA
HETATM   10  H   UNL     1      24.783  46.120  49.934  1.00  0.00     0.169 HD
BRANCH   8  11
HETATM   11  C   UNL     1      24.832  45.267  52.347  1.00  0.00     0.185 C 
BRANCH  11  12
HETATM   12  S   UNL     1      25.861  43.910  51.724  1.00  0.00    -0.083 SA
BRANCH  12  13
HETATM   13  C   UNL     1      27.206  44.008  52.798  1.00  0.00     0.168 A 
HETATM   14  N   UNL     1      28.221  43.184  52.866  1.00  0.00    -0.223 NA
HETATM   15  C   UNL     1      28.974  43.651  53.917  1.00  0.00     0.086 A 
HETATM   16  C   UNL     1      28.405  44.796  54.473  1.00  0.00     0.063 A 
HETATM   17  C   UNL     1      30.165  43.149  54.460  1.00  0.00     0.034 A 
HETATM   18  N   UNL     1      27.265  44.992  53.737  1.00  0.00    -0.333 N 
HETATM   19  C   UNL     1      28.966  45.488  55.547  1.00  0.00     0.032 A 
HETATM   20  H   UNL     1      26.576  45.716  53.868  1.00  0.00     0.168 HD
HETATM   21  C   UNL     1      30.158  44.972  56.072  1.00  0.00     0.002 A 
HETATM   22  C   UNL     1      30.748  43.821  55.542  1.00  0.00     0.002 A 
ENDBRANCH  12  13
ENDBRANCH  11  12
ENDBRANCH   8  11
ENDBRANCH   4   7
BRANCH   3  23
HETATM   23  C   UNL     1      23.252  48.610  49.231  1.00  0.00     0.258 C 
HETATM   24  N   UNL     1      22.517  49.761  49.461  1.00  0.00    -0.323 N 
HETATM   25  H   UNL     1      23.038  50.609  49.644  1.00  0.00     0.169 HD
HETATM   26  O   UNL     1      22.807  47.469  49.202  1.00  0.00    -0.267 OA
BRANCH  24  27
HETATM   27  C   UNL     1      21.115  49.871  49.577  1.00  0.00     0.035 A 
HETATM   28  C   UNL     1      20.233  48.796  49.425  1.00  0.00     0.032 A 
HETATM   29  C   UNL     1      18.854  48.990  49.552  1.00  0.00     0.044 A 
HETATM   30  C   UNL     1      18.359  50.258  49.822  1.00  0.00     0.116 A 
HETATM   31  F   UNL     1      17.038  50.441  49.942  1.00  0.00    -0.206 F 
HETATM   32  C   UNL     1      19.217  51.340  49.967  1.00  0.00     0.044 A 
HETATM   33  C   UNL     1      20.595  51.146  49.841  1.00  0.00     0.032 A 
ENDBRANCH  24  27
ENDBRANCH   3  23
TORSDOF 6
ENDMDL
MODEL 2
REMARK VINA RESULT:     -10.1      3.784      9.860
REMARK  6 active torsions:
REMARK  status: ('A' for Active; 'I' for Inactive)
REMARK    1  A    between atoms: C_3  and  C_4 
REMARK       I    between atoms: C_4  and  N_5 
REMARK    2  A    between atoms: N_5  and  C_6 
REMARK    3  A    between atoms: C_14  and  N_15 
REMARK       I    between atoms: N_15  and  C_16 
REMARK    4  A    between atoms: C_16  and  C_17 
REMARK    5  A    between atoms: C_17  and  S_18 
REMARK    6  A    between atoms: S_18  and  C_19 
ROOT
HETATM    1  C   UNL     1      28.005  40.588  50.442  1.00  0.00     0.001 A 
HETATM    2  C   UNL     1      28.227  41.171  51.688  1.00  0.00     0.019 A 
HETATM    3  C   UNL     1      27.714  42.449  51.981  1.00  0.00     0.059 A 
HETATM    4  C   UNL     1      27.015  43.177  50.991  1.00  0.00     0.050 A 
HETATM    5  C   UNL     1      26.793  42.564  49.750  1.00  0.00     0.030 A 
HETATM    6  C   UNL     1      27.278  41.280  49.481  1.00  0.00     0.002 A 
ENDROOT
BRANCH   4   7
HETATM    7  N   UNL     1      26.594  44.504  51.256  1.00  0.00    -0.326 N 
HETATM    8  C   UNL     1      25.356  44.942  51.679  1.00  0.00     0.231 C 
HETATM    9  O   UNL     1      24.425  44.204  52.006  1.00  0.00    -0.272 OA
HETATM   10  H   UNL     1      27.301  45.224  51.087  1.00  0.00     0.169 HD
BRANCH   8  11
HETATM   11  C   UNL     1      25.135  46.450  51.690  1.00  0.00     0.185 C 
BRANCH  11  12
HETATM   12  S   UNL     1      25.926  47.354  50.330  1.00  0.00    -0.083 SA
BRANCH  12  13
HETATM   13  C   UNL     1      24.580  48.223  49.696  1.00  0.00     0.168 A 
HETATM   14  N   UNL     1      24.584  49.439  49.212  1.00  0.00    -0.223 NA
HETATM   15  C   UNL     1      23.268  49.694  48.909  1.00  0.00     0.086 A 
HETATM   16  C   UNL     1      22.463  48.593  49.198  1.00  0.00     0.063 A 
HETATM   17  C   UNL     1      22.677  50.850  48.380  1.00  0.00     0.034 A 
HETATM   18  N   UNL     1      23.336  47.669  49.712  1.00  0.00    -0.333 N 
HETATM   19  C   UNL     1      21.085  48.570  48.978  1.00  0.00     0.032 A 
HETATM   20  H   UNL     1      23.110  46.750  50.061  1.00  0.00     0.168 HD
HETATM   21  C   UNL     1      20.516  49.734  48.445  1.00  0.00     0.002 A 
HETATM   22  C   UNL     1      21.295  50.857  48.153  1.00  0.00     0.002 A 
ENDBRANCH  12  13
ENDBRANCH  11  12
ENDBRANCH   8  11
ENDBRANCH   4   7
BRANCH   3  23
HETATM   23  C   UNL     1      27.902  43.007  53.358  1.00  0.00     0.258 C 
HETATM   24  N   UNL     1      29.164  43.516  53.617  1.00  0.00    -0.323 N 
HETATM   25  H   UNL     1      29.878  43.349  52.919  1.00  0.00     0.169 HD
HETATM   26  O   UNL     1      26.982  42.926  54.163  1.00  0.00    -0.267 OA
BRANCH  24  27
HETATM   27  C   UNL     1      29.603  44.152  54.797  1.00  0.00     0.035 A 
HETATM   28  C   UNL     1      30.590  43.633  55.642  1.00  0.00     0.032 A 
HETATM   29  C   UNL     1      30.966  44.324  56.798  1.00  0.00     0.044 A 
HETATM   30  C   UNL     1      30.352  45.529  57.110  1.00  0.00     0.116 A 
HETATM   31  F   UNL     1      30.714  46.189  58.218  1.00  0.00    -0.206 F 
HETATM   32  C   UNL     1      29.364  46.057  56.290  1.00  0.00     0.044 A 
HETATM   33  C   UNL     1      28.988  45.366  55.134  1.00  0.00     0.032 A 
ENDBRANCH  24  27
ENDBRANCH   3  23
TORSDOF 6
ENDMDL
MODEL 3
REMARK VINA RESULT:     -10.0      3.987      9.301
REMARK  6 active torsions:
REMARK  status: ('A' for Active; 'I' for Inactive)
REMARK    1  A    between atoms: C_3  and  C_4 
REMARK       I    between atoms: C_4  and  N_5 
REMARK    2  A    between atoms: N_5  and  C_6 
REMARK    3  A    between atoms: C_14  and  N_15 
REMARK       I    between atoms: N_15  and  C_16 
REMARK    4  A    between atoms: C_16  and  C_17 
REMARK    5  A    between atoms: C_17  and  S_18 
REMARK    6  A    between atoms: S_18  and  C_19 
ROOT
HETATM    1  C   UNL     1      28.471  39.232  50.222  1.00  0.00     0.001 A 
HETATM    2  C   UNL     1      28.779  40.431  50.863  1.00  0.00     0.019 A 
HETATM    3  C   UNL     1      27.763  41.356  51.174  1.00  0.00     0.059 A 
HETATM    4  C   UNL     1      26.428  41.099  50.789  1.00  0.00     0.050 A 
HETATM    5  C   UNL     1      26.142  39.880  50.159  1.00  0.00     0.030 A 
HETATM    6  C   UNL     1      27.152  38.954  49.884  1.00  0.00     0.002 A 
ENDROOT
BRANCH   4   7
HETATM    7  N   UNL     1      25.429  42.080  51.010  1.00  0.00    -0.326 N 
HETATM    8  C   UNL     1      24.804  42.891  50.086  1.00  0.00     0.231 C 
HETATM    9  O   UNL     1      24.949  42.802  48.864  1.00  0.00    -0.272 OA
HETATM   10  H   UNL     1      25.161  42.212  51.989  1.00  0.00     0.169 HD
BRANCH   8  11
HETATM   11  C   UNL     1      23.911  43.994  50.640  1.00  0.00     0.185 C 
BRANCH  11  12
HETATM   12  S   UNL     1      24.715  45.118  51.815  1.00  0.00    -0.083 SA
BRANCH  12  13
HETATM   13  C   UNL     1      25.123  46.430  50.775  1.00  0.00     0.168 A 
HETATM   14  N   UNL     1      26.325  46.848  50.467  1.00  0.00    -0.223 NA
HETATM   15  C   UNL     1      26.114  47.951  49.675  1.00  0.00     0.086 A 
HETATM   16  C   UNL     1      24.753  48.182  49.486  1.00  0.00     0.063 A 
HETATM   17  C   UNL     1      27.042  48.813  49.074  1.00  0.00     0.034 A 
HETATM   18  N   UNL     1      24.143  47.192  50.214  1.00  0.00    -0.333 N 
HETATM   19  C   UNL     1      24.252  49.230  48.712  1.00  0.00     0.032 A 
HETATM   20  H   UNL     1      23.153  47.054  50.339  1.00  0.00     0.168 HD
HETATM   21  C   UNL     1      25.195  50.077  48.118  1.00  0.00     0.002 A 
HETATM   22  C   UNL     1      26.567  49.877  48.296  1.00  0.00     0.002 A 
ENDBRANCH  12  13
ENDBRANCH  11  12
ENDBRANCH   8  11
ENDBRANCH   4   7
BRANCH   3  23
HETATM   23  C   UNL     1      28.121  42.595  51.935  1.00  0.00     0.258 C 
HETATM   24  N   UNL     1      28.503  42.385  53.250  1.00  0.00    -0.323 N 
HETATM   25  H   UNL     1      28.380  41.450  53.620  1.00  0.00     0.169 HD
HETATM   26  O   UNL     1      27.998  43.684  51.390  1.00  0.00    -0.267 OA
BRANCH  24  27
HETATM   27  C   UNL     1      28.946  43.353  54.176  1.00  0.00     0.035 A 
HETATM   28  C   UNL     1      28.203  44.480  54.543  1.00  0.00     0.032 A 
HETATM   29  C   UNL     1      28.716  45.395  55.466  1.00  0.00     0.044 A 
HETATM   30  C   UNL     1      29.973  45.187  56.017  1.00  0.00     0.116 A 
HETATM   31  F   UNL     1      30.463  46.066  56.900  1.00  0.00    -0.206 F 
HETATM   32  C   UNL     1      30.731  44.080  55.659  1.00  0.00     0.044 A 
HETATM   33  C   UNL     1      30.218  43.164  54.737  1.00  0.00     0.032 A 
ENDBRANCH  24  27
ENDBRANCH   3  23
TORSDOF 6
ENDMDL
MODEL 4
REMARK VINA RESULT:     -10.0      4.001      6.790
REMARK  6 active torsions:
REMARK  status: ('A' for Active; 'I' for Inactive)
REMARK    1  A    between atoms: C_3  and  C_4 
REMARK       I    between atoms: C_4  and  N_5 
REMARK    2  A    between atoms: N_5  and  C_6 
REMARK    3  A    between atoms: C_14  and  N_15 
REMARK       I    between atoms: N_15  and  C_16 
REMARK    4  A    between atoms: C_16  and  C_17 
REMARK    5  A    between atoms: C_17  and  S_18 
REMARK    6  A    between atoms: S_18  and  C_19 
ROOT
HETATM    1  C   UNL     1      26.898  49.971  48.577  1.00  0.00     0.001 A 
HETATM    2  C   UNL     1      25.542  50.052  48.266  1.00  0.00     0.019 A 
HETATM    3  C   UNL     1      24.652  49.043  48.683  1.00  0.00     0.059 A 
HETATM    4  C   UNL     1      25.138  47.910  49.375  1.00  0.00     0.050 A 
HETATM    5  C   UNL     1      26.503  47.860  49.689  1.00  0.00     0.030 A 
HETATM    6  C   UNL     1      27.373  48.883  49.299  1.00  0.00     0.002 A 
ENDROOT
BRANCH   4   7
HETATM    7  N   UNL     1      24.256  46.849  49.698  1.00  0.00    -0.326 N 
HETATM    8  C   UNL     1      24.440  45.495  49.515  1.00  0.00     0.231 C 
HETATM    9  O   UNL     1      25.489  44.976  49.125  1.00  0.00    -0.272 OA
HETATM   10  H   UNL     1      23.360  47.138  50.098  1.00  0.00     0.169 HD
BRANCH   8  11
HETATM   11  C   UNL     1      23.233  44.601  49.776  1.00  0.00     0.185 C 
BRANCH  11  12
HETATM   12  S   UNL     1      22.366  44.026  48.290  1.00  0.00    -0.083 SA
BRANCH  12  13
HETATM   13  C   UNL     1      20.896  44.917  48.411  1.00  0.00     0.168 A 
HETATM   14  N   UNL     1      19.726  44.576  47.934  1.00  0.00    -0.223 NA
HETATM   15  C   UNL     1      18.909  45.642  48.227  1.00  0.00     0.086 A 
HETATM   16  C   UNL     1      19.605  46.633  48.917  1.00  0.00     0.063 A 
HETATM   17  C   UNL     1      17.552  45.838  47.936  1.00  0.00     0.034 A 
HETATM   18  N   UNL     1      20.882  46.140  49.010  1.00  0.00    -0.333 N 
HETATM   19  C   UNL     1      19.018  47.823  49.352  1.00  0.00     0.032 A 
HETATM   20  H   UNL     1      21.679  46.597  49.424  1.00  0.00     0.168 HD
HETATM   21  C   UNL     1      17.661  47.997  49.054  1.00  0.00     0.002 A 
HETATM   22  C   UNL     1      16.939  47.025  48.356  1.00  0.00     0.002 A 
ENDBRANCH  12  13
ENDBRANCH  11  12
ENDBRANCH   8  11
ENDBRANCH   4   7
BRANCH   3  23
HETATM   23  C   UNL     1      23.190  49.204  48.401  1.00  0.00     0.258 C 
HETATM   24  N   UNL     1      22.590  50.288  49.022  1.00  0.00    -0.323 N 
HETATM   25  H   UNL     1      23.143  50.789  49.706  1.00  0.00     0.169 HD
HETATM   26  O   UNL     1      22.621  48.364  47.716  1.00  0.00    -0.267 OA
BRANCH  24  27
HETATM   27  C   UNL     1      21.252  50.714  48.890  1.00  0.00     0.035 A 
HETATM   28  C   UNL     1      20.569  50.777  47.671  1.00  0.00     0.032 A 
HETATM   29  C   UNL     1      19.242  51.215  47.625  1.00  0.00     0.044 A 
HETATM   30  C   UNL     1      18.602  51.596  48.797  1.00  0.00     0.116 A 
HETATM   31  F   UNL     1      17.331  52.017  48.750  1.00  0.00    -0.206 F 
HETATM   32  C   UNL     1      19.265  51.551  50.015  1.00  0.00     0.044 A 
HETATM   33  C   UNL     1      20.591  51.112  50.062  1.00  0.00     0.032 A 
ENDBRANCH  24  27
ENDBRANCH   3  23
TORSDOF 6
ENDMDL
MODEL 5
REMARK VINA RESULT:     -10.0      3.947      9.066
REMARK  6 active torsions:
REMARK  status: ('A' for Active; 'I' for Inactive)
REMARK    1  A    between atoms: C_3  and  C_4 
REMARK       I    between atoms: C_4  and  N_5 
REMARK    2  A    between atoms: N_5  and  C_6 
REMARK    3  A    between atoms: C_14  and  N_15 
REMARK       I    between atoms: N_15  and  C_16 
REMARK    4  A    between atoms: C_16  and  C_17 
REMARK    5  A    between atoms: C_17  and  S_18 
REMARK    6  A    between atoms: S_18  and  C_19 
ROOT
HETATM    1  C   UNL     1      30.867  43.741  55.782  1.00  0.00     0.001 A 
HETATM    2  C   UNL     1      30.333  43.175  54.626  1.00  0.00     0.019 A 
HETATM    3  C   UNL     1      29.181  43.722  54.029  1.00  0.00     0.059 A 
HETATM    4  C   UNL     1      28.523  44.819  54.631  1.00  0.00     0.050 A 
HETATM    5  C   UNL     1      29.088  45.379  55.785  1.00  0.00     0.030 A 
HETATM    6  C   UNL     1      30.251  44.849  56.351  1.00  0.00     0.002 A 
ENDROOT
BRANCH   4   7
HETATM    7  N   UNL     1      27.306  45.298  54.085  1.00  0.00    -0.326 N 
HETATM    8  C   UNL     1      26.050  44.733  54.165  1.00  0.00     0.231 C 
HETATM    9  O   UNL     1      25.769  43.743  54.844  1.00  0.00    -0.272 OA
HETATM   10  H   UNL     1      27.385  46.163  53.544  1.00  0.00     0.169 HD
BRANCH   8  11
HETATM   11  C   UNL     1      24.961  45.370  53.310  1.00  0.00     0.185 C 
BRANCH  11  12
HETATM   12  S   UNL     1      24.807  44.696  51.633  1.00  0.00    -0.083 SA
BRANCH  12  13
HETATM   13  C   UNL     1      25.176  46.091  50.691  1.00  0.00     0.168 A 
HETATM   14  N   UNL     1      26.366  46.557  50.405  1.00  0.00    -0.223 NA
HETATM   15  C   UNL     1      26.125  47.711  49.700  1.00  0.00     0.086 A 
HETATM   16  C   UNL     1      24.757  47.927  49.541  1.00  0.00     0.063 A 
HETATM   17  C   UNL     1      27.028  48.636  49.157  1.00  0.00     0.034 A 
HETATM   18  N   UNL     1      24.176  46.873  50.198  1.00  0.00    -0.333 N 
HETATM   19  C   UNL     1      24.226  49.019  48.853  1.00  0.00     0.032 A 
HETATM   20  H   UNL     1      23.189  46.704  50.321  1.00  0.00     0.168 HD
HETATM   21  C   UNL     1      25.146  49.928  48.316  1.00  0.00     0.002 A 
HETATM   22  C   UNL     1      26.523  49.744  48.466  1.00  0.00     0.002 A 
ENDBRANCH  12  13
ENDBRANCH  11  12
ENDBRANCH   8  11
ENDBRANCH   4   7
BRANCH   3  23
HETATM   23  C   UNL     1      28.684  43.138  52.743  1.00  0.00     0.258 C 
HETATM   24  N   UNL     1      28.555  41.758  52.737  1.00  0.00    -0.323 N 
HETATM   25  H   UNL     1      28.928  41.259  53.535  1.00  0.00     0.169 HD
HETATM   26  O   UNL     1      28.490  43.880  51.789  1.00  0.00    -0.267 OA
BRANCH  24  27
HETATM   27  C   UNL     1      28.059  40.951  51.692  1.00  0.00     0.035 A 
HETATM   28  C   UNL     1      28.829  40.012  50.998  1.00  0.00     0.032 A 
HETATM   29  C   UNL     1      28.261  39.253  49.970  1.00  0.00     0.044 A 
HETATM   30  C   UNL     1      26.927  39.439  49.632  1.00  0.00     0.116 A 
HETATM   31  F   UNL     1      26.386  38.711  48.647  1.00  0.00    -0.206 F 
HETATM   32  C   UNL     1      26.149  40.372  50.302  1.00  0.00     0.044 A 
HETATM   33  C   UNL     1      26.715  41.131  51.331  1.00  0.00     0.032 A 
ENDBRANCH  24  27
ENDBRANCH   3  23
TORSDOF 6
ENDMDL
MODEL 6
REMARK VINA RESULT:      -9.7      2.551      3.918
REMARK  6 active torsions:
REMARK  status: ('A' for Active; 'I' for Inactive)
REMARK    1  A    between atoms: C_3  and  C_4 
REMARK       I    between atoms: C_4  and  N_5 
REMARK    2  A    between atoms: N_5  and  C_6 
REMARK    3  A    between atoms: C_14  and  N_15 
REMARK       I    between atoms: N_15  and  C_16 
REMARK    4  A    between atoms: C_16  and  C_17 
REMARK    5  A    between atoms: C_17  and  S_18 
REMARK    6  A    between atoms: S_18  and  C_19 
ROOT
HETATM    1  C   UNL     1      24.153  42.706  48.446  1.00  0.00     0.001 A 
HETATM    2  C   UNL     1      23.914  44.078  48.492  1.00  0.00     0.019 A 
HETATM    3  C   UNL     1      24.176  44.811  49.666  1.00  0.00     0.059 A 
HETATM    4  C   UNL     1      24.632  44.148  50.828  1.00  0.00     0.050 A 
HETATM    5  C   UNL     1      24.878  42.770  50.753  1.00  0.00     0.030 A 
HETATM    6  C   UNL     1      24.646  42.058  49.573  1.00  0.00     0.002 A 
ENDROOT
BRANCH   4   7
HETATM    7  N   UNL     1      24.791  44.872  52.036  1.00  0.00    -0.326 N 
HETATM    8  C   UNL     1      25.956  45.161  52.715  1.00  0.00     0.231 C 
HETATM    9  O   UNL     1      27.090  44.915  52.298  1.00  0.00    -0.272 OA
HETATM   10  H   UNL     1      23.920  45.199  52.463  1.00  0.00     0.169 HD
BRANCH   8  11
HETATM   11  C   UNL     1      25.802  45.788  54.096  1.00  0.00     0.185 C 
BRANCH  11  12
HETATM   12  S   UNL     1      26.989  47.106  54.479  1.00  0.00    -0.083 SA
BRANCH  12  13
HETATM   13  C   UNL     1      28.189  46.218  55.339  1.00  0.00     0.168 A 
HETATM   14  N   UNL     1      28.657  46.478  56.533  1.00  0.00    -0.223 NA
HETATM   15  C   UNL     1      29.633  45.531  56.735  1.00  0.00     0.086 A 
HETATM   16  C   UNL     1      29.731  44.670  55.643  1.00  0.00     0.063 A 
HETATM   17  C   UNL     1      30.483  45.340  57.833  1.00  0.00     0.034 A 
HETATM   18  N   UNL     1      28.796  45.145  54.760  1.00  0.00    -0.333 N 
HETATM   19  C   UNL     1      30.632  43.606  55.583  1.00  0.00     0.032 A 
HETATM   20  H   UNL     1      28.597  44.789  53.838  1.00  0.00     0.168 HD
HETATM   21  C   UNL     1      31.469  43.430  56.692  1.00  0.00     0.002 A 
HETATM   22  C   UNL     1      31.401  44.283  57.798  1.00  0.00     0.002 A 
ENDBRANCH  12  13
ENDBRANCH  11  12
ENDBRANCH   8  11
ENDBRANCH   4   7
BRANCH   3  23
HETATM   23  C   UNL     1      23.985  46.296  49.651  1.00  0.00     0.258 C 
HETATM   24  N   UNL     1      22.920  46.742  48.886  1.00  0.00    -0.323 N 
HETATM   25  H   UNL     1      22.453  46.057  48.305  1.00  0.00     0.169 HD
HETATM   26  O   UNL     1      24.790  47.005  50.242  1.00  0.00    -0.267 OA
BRANCH  24  27
HETATM   27  C   UNL     1      22.472  48.072  48.738  1.00  0.00     0.035 A 
HETATM   28  C   UNL     1      23.270  49.115  48.255  1.00  0.00     0.032 A 
HETATM   29  C   UNL     1      22.751  50.408  48.142  1.00  0.00     0.044 A 
HETATM   30  C   UNL     1      21.438  50.659  48.518  1.00  0.00     0.116 A 
HETATM   31  F   UNL     1      20.943  51.898  48.410  1.00  0.00    -0.206 F 
HETATM   32  C   UNL     1      20.633  49.640  49.008  1.00  0.00     0.044 A 
HETATM   33  C   UNL     1      21.151  48.347  49.120  1.00  0.00     0.032 A 
ENDBRANCH  24  27
ENDBRANCH   3  23
TORSDOF 6
ENDMDL
MODEL 7
REMARK VINA RESULT:      -9.6      3.606      6.167
REMARK  6 active torsions:
REMARK  status: ('A' for Active; 'I' for Inactive)
REMARK    1  A    between atoms: C_3  and  C_4 
REMARK       I    between atoms: C_4  and  N_5 
REMARK    2  A    between atoms: N_5  and  C_6 
REMARK    3  A    between atoms: C_14  and  N_15 
REMARK       I    between atoms: N_15  and  C_16 
REMARK    4  A    between atoms: C_16  and  C_17 
REMARK    5  A    between atoms: C_17  and  S_18 
REMARK    6  A    between atoms: S_18  and  C_19 
ROOT
HETATM    1  C   UNL     1      18.851  51.942  48.226  1.00  0.00     0.001 A 
HETATM    2  C   UNL     1      20.137  51.745  48.728  1.00  0.00     0.019 A 
HETATM    3  C   UNL     1      20.611  50.445  48.989  1.00  0.00     0.059 A 
HETATM    4  C   UNL     1      19.765  49.330  48.796  1.00  0.00     0.050 A 
HETATM    5  C   UNL     1      18.482  49.552  48.277  1.00  0.00     0.030 A 
HETATM    6  C   UNL     1      18.032  50.844  47.990  1.00  0.00     0.002 A 
ENDROOT
BRANCH   4   7
HETATM    7  N   UNL     1      20.211  48.035  49.161  1.00  0.00    -0.326 N 
HETATM    8  C   UNL     1      20.703  47.036  48.347  1.00  0.00     0.231 C 
HETATM    9  O   UNL     1      20.940  47.166  47.144  1.00  0.00    -0.272 OA
HETATM   10  H   UNL     1      20.132  47.815  50.157  1.00  0.00     0.169 HD
BRANCH   8  11
HETATM   11  C   UNL     1      20.919  45.674  48.995  1.00  0.00     0.185 C 
BRANCH  11  12
HETATM   12  S   UNL     1      21.983  44.538  48.062  1.00  0.00    -0.083 SA
BRANCH  12  13
HETATM   13  C   UNL     1      23.412  44.574  49.023  1.00  0.00     0.168 A 
HETATM   14  N   UNL     1      24.619  44.225  48.655  1.00  0.00    -0.223 NA
HETATM   15  C   UNL     1      25.381  44.366  49.790  1.00  0.00     0.086 A 
HETATM   16  C   UNL     1      24.613  44.834  50.855  1.00  0.00     0.063 A 
HETATM   17  C   UNL     1      26.745  44.113  49.991  1.00  0.00     0.034 A 
HETATM   18  N   UNL     1      23.351  44.948  50.331  1.00  0.00    -0.333 N 
HETATM   19  C   UNL     1      25.134  45.080  52.126  1.00  0.00     0.032 A 
HETATM   20  H   UNL     1      22.516  45.234  50.818  1.00  0.00     0.168 HD
HETATM   21  C   UNL     1      26.499  44.825  52.305  1.00  0.00     0.002 A 
HETATM   22  C   UNL     1      27.293  44.347  51.258  1.00  0.00     0.002 A 
ENDBRANCH  12  13
ENDBRANCH  11  12
ENDBRANCH   8  11
ENDBRANCH   4   7
BRANCH   3  23
HETATM   23  C   UNL     1      22.025  50.269  49.449  1.00  0.00     0.258 C 
HETATM   24  N   UNL     1      22.833  49.539  48.593  1.00  0.00    -0.323 N 
HETATM   25  H   UNL     1      22.379  49.079  47.814  1.00  0.00     0.169 HD
HETATM   26  O   UNL     1      22.353  50.711  50.543  1.00  0.00    -0.267 OA
BRANCH  24  27
HETATM   27  C   UNL     1      24.210  49.269  48.741  1.00  0.00     0.035 A 
HETATM   28  C   UNL     1      24.721  48.211  49.500  1.00  0.00     0.032 A 
HETATM   29  C   UNL     1      26.101  48.014  49.600  1.00  0.00     0.044 A 
HETATM   30  C   UNL     1      26.969  48.877  48.946  1.00  0.00     0.116 A 
HETATM   31  F   UNL     1      28.291  48.687  49.043  1.00  0.00    -0.206 F 
HETATM   32  C   UNL     1      26.483  49.939  48.195  1.00  0.00     0.044 A 
HETATM   33  C   UNL     1      25.103  50.136  48.094  1.00  0.00     0.032 A 
ENDBRANCH  24  27
ENDBRANCH   3  23
TORSDOF 6
ENDMDL
MODEL 8
REMARK VINA RESULT:      -9.4      3.873      9.749
REMARK  6 active torsions:
REMARK  status: ('A' for Active; 'I' for Inactive)
REMARK    1  A    between atoms: C_3  and  C_4 
REMARK       I    between atoms: C_4  and  N_5 
REMARK    2  A    between atoms: N_5  and  C_6 
REMARK    3  A    between atoms: C_14  and  N_15 
REMARK       I    between atoms: N_15  and  C_16 
REMARK    4  A    between atoms: C_16  and  C_17 
REMARK    5  A    between atoms: C_17  and  S_18 
REMARK    6  A    between atoms: S_18  and  C_19 
ROOT
HETATM    1  C   UNL     1      28.030  45.765  55.251  1.00  0.00     0.001 A 
HETATM    2  C   UNL     1      28.012  44.863  54.189  1.00  0.00     0.019 A 
HETATM    3  C   UNL     1      27.185  45.092  53.072  1.00  0.00     0.059 A 
HETATM    4  C   UNL     1      26.325  46.213  53.044  1.00  0.00     0.050 A 
HETATM    5  C   UNL     1      26.372  47.112  54.118  1.00  0.00     0.030 A 
HETATM    6  C   UNL     1      27.220  46.893  55.207  1.00  0.00     0.002 A 
ENDROOT
BRANCH   4   7
HETATM    7  N   UNL     1      25.419  46.380  51.967  1.00  0.00    -0.326 N 
HETATM    8  C   UNL     1      25.488  47.275  50.920  1.00  0.00     0.231 C 
HETATM    9  O   UNL     1      26.444  48.021  50.697  1.00  0.00    -0.272 OA
HETATM   10  H   UNL     1      24.600  45.767  51.991  1.00  0.00     0.169 HD
BRANCH   8  11
HETATM   11  C   UNL     1      24.265  47.360  50.015  1.00  0.00     0.185 C 
BRANCH  11  12
HETATM   12  S   UNL     1      24.217  48.806  48.920  1.00  0.00    -0.083 SA
BRANCH  12  13
HETATM   13  C   UNL     1      22.598  49.342  49.167  1.00  0.00     0.168 A 
HETATM   14  N   UNL     1      22.174  50.580  49.201  1.00  0.00    -0.223 NA
HETATM   15  C   UNL     1      20.835  50.478  49.494  1.00  0.00     0.086 A 
HETATM   16  C   UNL     1      20.446  49.145  49.613  1.00  0.00     0.063 A 
HETATM   17  C   UNL     1      19.878  51.486  49.675  1.00  0.00     0.034 A 
HETATM   18  N   UNL     1      21.605  48.441  49.406  1.00  0.00    -0.333 N 
HETATM   19  C   UNL     1      19.138  48.748  49.894  1.00  0.00     0.032 A 
HETATM   20  H   UNL     1      21.721  47.440  49.443  1.00  0.00     0.168 HD
HETATM   21  C   UNL     1      18.197  49.771  50.067  1.00  0.00     0.002 A 
HETATM   22  C   UNL     1      18.558  51.117  49.963  1.00  0.00     0.002 A 
ENDBRANCH  12  13
ENDBRANCH  11  12
ENDBRANCH   8  11
ENDBRANCH   4   7
BRANCH   3  23
HETATM   23  C   UNL     1      27.254  44.145  51.914  1.00  0.00     0.258 C 
HETATM   24  N   UNL     1      27.123  42.805  52.243  1.00  0.00    -0.323 N 
HETATM   25  H   UNL     1      27.129  42.573  53.229  1.00  0.00     0.169 HD
HETATM   26  O   UNL     1      27.477  44.589  50.795  1.00  0.00    -0.267 OA
BRANCH  24  27
HETATM   27  C   UNL     1      27.090  41.707  51.359  1.00  0.00     0.035 A 
HETATM   28  C   UNL     1      25.967  41.343  50.608  1.00  0.00     0.032 A 
HETATM   29  C   UNL     1      26.015  40.237  49.756  1.00  0.00     0.044 A 
HETATM   30  C   UNL     1      27.182  39.491  49.659  1.00  0.00     0.116 A 
HETATM   31  F   UNL     1      27.225  38.431  48.842  1.00  0.00    -0.206 F 
HETATM   32  C   UNL     1      28.304  39.830  50.403  1.00  0.00     0.044 A 
HETATM   33  C   UNL     1      28.257  40.937  51.254  1.00  0.00     0.032 A 
ENDBRANCH  24  27
ENDBRANCH   3  23
TORSDOF 6
ENDMDL
MODEL 9
REMARK VINA RESULT:      -9.3      3.889      9.558
REMARK  6 active torsions:
REMARK  status: ('A' for Active; 'I' for Inactive)
REMARK    1  A    between atoms: C_3  and  C_4 
REMARK       I    between atoms: C_4  and  N_5 
REMARK    2  A    between atoms: N_5  and  C_6 
REMARK    3  A    between atoms: C_14  and  N_15 
REMARK       I    between atoms: N_15  and  C_16 
REMARK    4  A    between atoms: C_16  and  C_17 
REMARK    5  A    between atoms: C_17  and  S_18 
REMARK    6  A    between atoms: S_18  and  C_19 
ROOT
HETATM    1  C   UNL     1      30.302  43.708  55.600  1.00  0.00     0.001 A 
HETATM    2  C   UNL     1      29.824  43.105  54.439  1.00  0.00     0.019 A 
HETATM    3  C   UNL     1      28.880  43.764  53.628  1.00  0.00     0.059 A 
HETATM    4  C   UNL     1      28.368  45.023  54.016  1.00  0.00     0.050 A 
HETATM    5  C   UNL     1      28.875  45.615  55.181  1.00  0.00     0.030 A 
HETATM    6  C   UNL     1      29.837  44.966  55.961  1.00  0.00     0.002 A 
ENDROOT
BRANCH   4   7
HETATM    7  N   UNL     1      27.341  45.633  53.253  1.00  0.00    -0.326 N 
HETATM    8  C   UNL     1      25.976  45.504  53.395  1.00  0.00     0.231 C 
HETATM    9  O   UNL     1      25.420  44.899  54.315  1.00  0.00    -0.272 OA
HETATM   10  H   UNL     1      27.667  46.226  52.485  1.00  0.00     0.169 HD
BRANCH   8  11
HETATM   11  C   UNL     1      25.115  46.125  52.301  1.00  0.00     0.185 C 
BRANCH  11  12
HETATM   12  S   UNL     1      25.926  46.291  50.686  1.00  0.00    -0.083 SA
BRANCH  12  13
HETATM   13  C   UNL     1      24.889  47.437  49.923  1.00  0.00     0.168 A 
HETATM   14  N   UNL     1      25.222  48.614  49.458  1.00  0.00    -0.223 NA
HETATM   15  C   UNL     1      24.039  49.160  49.020  1.00  0.00     0.086 A 
HETATM   16  C   UNL     1      22.979  48.275  49.206  1.00  0.00     0.063 A 
HETATM   17  C   UNL     1      23.789  50.414  48.446  1.00  0.00     0.034 A 
HETATM   18  N   UNL     1      23.557  47.182  49.798  1.00  0.00    -0.333 N 
HETATM   19  C   UNL     1      21.664  48.565  48.839  1.00  0.00     0.032 A 
HETATM   20  H   UNL     1      23.092  46.343  50.108  1.00  0.00     0.168 HD
HETATM   21  C   UNL     1      21.436  49.822  48.264  1.00  0.00     0.002 A 
HETATM   22  C   UNL     1      22.478  50.734  48.073  1.00  0.00     0.002 A 
ENDBRANCH  12  13
ENDBRANCH  11  12
ENDBRANCH   8  11
ENDBRANCH   4   7
BRANCH   3  23
HETATM   23  C   UNL     1      28.451  43.121  52.346  1.00  0.00     0.258 C 
HETATM   24  N   UNL     1      28.236  41.754  52.418  1.00  0.00    -0.323 N 
HETATM   25  H   UNL     1      28.511  41.292  53.276  1.00  0.00     0.169 HD
HETATM   26  O   UNL     1      28.380  43.805  51.332  1.00  0.00    -0.267 OA
BRANCH  24  27
HETATM   27  C   UNL     1      27.773  40.906  51.391  1.00  0.00     0.035 A 
HETATM   28  C   UNL     1      26.467  40.925  50.891  1.00  0.00     0.032 A 
HETATM   29  C   UNL     1      26.087  40.047  49.872  1.00  0.00     0.044 A 
HETATM   30  C   UNL     1      27.010  39.147  49.358  1.00  0.00     0.116 A 
HETATM   31  F   UNL     1      26.643  38.307  48.382  1.00  0.00    -0.206 F 
HETATM   32  C   UNL     1      28.309  39.106  49.846  1.00  0.00     0.044 A 
HETATM   33  C   UNL     1      28.690  39.984  50.864  1.00  0.00     0.032 A 
ENDBRANCH  24  27
ENDBRANCH   3  23
TORSDOF 6
ENDMDL
MODEL 10
REMARK VINA RESULT:      -9.3      3.827      9.255
REMARK  6 active torsions:
REMARK  status: ('A' for Active; 'I' for Inactive)
REMARK    1  A    between atoms: C_3  and  C_4 
REMARK       I    between atoms: C_4  and  N_5 
REMARK    2  A    between atoms: N_5  and  C_6 
REMARK    3  A    between atoms: C_14  and  N_15 
REMARK       I    between atoms: N_15  and  C_16 
REMARK    4  A    between atoms: C_16  and  C_17 
REMARK    5  A    between atoms: C_17  and  S_18 
REMARK    6  A    between atoms: S_18  and  C_19 
ROOT
HETATM    1  C   UNL     1      24.583  50.120  48.450  1.00  0.00     0.001 A 
HETATM    2  C   UNL     1      24.904  48.940  49.119  1.00  0.00     0.019 A 
HETATM    3  C   UNL     1      23.959  47.902  49.231  1.00  0.00     0.059 A 
HETATM    4  C   UNL     1      22.655  48.071  48.711  1.00  0.00     0.050 A 
HETATM    5  C   UNL     1      22.362  49.260  48.030  1.00  0.00     0.030 A 
HETATM    6  C   UNL     1      23.318  50.272  47.896  1.00  0.00     0.002 A 
ENDROOT
BRANCH   4   7
HETATM    7  N   UNL     1      21.677  47.067  48.919  1.00  0.00    -0.326 N 
HETATM    8  C   UNL     1      21.107  46.220  47.992  1.00  0.00     0.231 C 
HETATM    9  O   UNL     1      21.457  46.133  46.813  1.00  0.00    -0.272 OA
HETATM   10  H   UNL     1      21.341  46.983  49.882  1.00  0.00     0.169 HD
BRANCH   8  11
HETATM   11  C   UNL     1      19.934  45.374  48.473  1.00  0.00     0.185 C 
BRANCH  11  12
HETATM   12  S   UNL     1      18.293  46.036  48.074  1.00  0.00    -0.083 SA
BRANCH  12  13
HETATM   13  C   UNL     1      18.537  47.711  48.391  1.00  0.00     0.168 A 
HETATM   14  N   UNL     1      18.685  48.279  49.562  1.00  0.00    -0.223 NA
HETATM   15  C   UNL     1      18.775  49.622  49.285  1.00  0.00     0.086 A 
HETATM   16  C   UNL     1      18.702  49.859  47.914  1.00  0.00     0.063 A 
HETATM   17  C   UNL     1      18.920  50.709  50.158  1.00  0.00     0.034 A 
HETATM   18  N   UNL     1      18.540  48.611  47.369  1.00  0.00    -0.333 N 
HETATM   19  C   UNL     1      18.780  51.133  47.349  1.00  0.00     0.032 A 
HETATM   20  H   UNL     1      18.422  48.386  46.393  1.00  0.00     0.168 HD
HETATM   21  C   UNL     1      18.929  52.205  48.239  1.00  0.00     0.002 A 
HETATM   22  C   UNL     1      18.996  52.000  49.620  1.00  0.00     0.002 A 
ENDBRANCH  12  13
ENDBRANCH  11  12
ENDBRANCH   8  11
ENDBRANCH   4   7
BRANCH   3  23
HETATM   23  C   UNL     1      24.367  46.618  49.885  1.00  0.00     0.258 C 
HETATM   24  N   UNL     1      25.189  46.759  50.990  1.00  0.00    -0.323 N 
HETATM   25  H   UNL     1      25.549  47.686  51.179  1.00  0.00     0.169 HD
HETATM   26  O   UNL     1      24.014  45.558  49.384  1.00  0.00    -0.267 OA
BRANCH  24  27
HETATM   27  C   UNL     1      25.675  45.734  51.830  1.00  0.00     0.035 A 
HETATM   28  C   UNL     1      25.138  45.434  53.086  1.00  0.00     0.032 A 
HETATM   29  C   UNL     1      25.681  44.404  53.859  1.00  0.00     0.044 A 
HETATM   30  C   UNL     1      26.764  43.679  53.379  1.00  0.00     0.116 A 
HETATM   31  F   UNL     1      27.283  42.693  54.122  1.00  0.00    -0.206 F 
HETATM   32  C   UNL     1      27.317  43.968  52.139  1.00  0.00     0.044 A 
HETATM   33  C   UNL     1      26.774  44.997  51.366  1.00  0.00     0.032 A 
ENDBRANCH  24  27
ENDBRANCH   3  23
TORSDOF 6
ENDMDL
