MODEL 1
REMARK VINA RESULT:      -9.7      0.000      0.000
REMARK  7 active torsions:
REMARK  status: ('A' for Active; 'I' for Inactive)
REMARK    1  A    between atoms: C_2  and  C_3 
REMARK    2  A    between atoms: C_3  and  N_4 
REMARK    3  A    between atoms: C_8  and  C_9 
REMARK    4  A    between atoms: C_8  and  C_27 
REMARK    5  A    between atoms: N_12  and  C_14 
REMARK    6  A    between atoms: C_14  and  C_15 
REMARK    7  A    between atoms: C_27  and  C_28 
ROOT
HETATM    1  N   UNL     1      28.713  42.379  52.767  1.00  0.00    -0.268 N 
HETATM    2  C   UNL     1      28.135  41.185  53.066  1.00  0.00     0.326 C 
HETATM    3  O   UNL     1      28.463  40.389  53.927  1.00  0.00    -0.247 OA
HETATM    4  N   UNL     1      27.070  40.996  52.213  1.00  0.00    -0.324 N 
HETATM    5  C   UNL     1      27.064  41.945  51.108  1.00  0.00     0.123 C 
HETATM    6  C   UNL     1      28.076  42.950  51.704  1.00  0.00     0.257 C 
HETATM    7  O   UNL     1      28.306  44.062  51.247  1.00  0.00    -0.270 OA
HETATM    8  H   UNL     1      26.636  40.077  52.185  1.00  0.00     0.165 HD
ENDROOT
BRANCH   5   9
HETATM    9  C   UNL     1      25.613  42.466  50.839  1.00  0.00     0.027 C 
HETATM   10  C   UNL     1      25.317  43.054  49.448  1.00  0.00     0.035 C 
HETATM   11  C   UNL     1      25.728  44.505  49.228  1.00  0.00     0.235 C 
HETATM   12  N   UNL     1      25.295  45.401  50.363  1.00  0.00    -0.067 N 
HETATM   13  H   UNL     1      24.285  45.549  50.250  1.00  0.00     0.280 HD
HETATM   14  C   UNL     1      25.532  44.859  51.746  1.00  0.00     0.235 C 
HETATM   15  C   UNL     1      25.040  43.433  51.889  1.00  0.00     0.035 C 
BRANCH  12  16
HETATM   16  C   UNL     1      25.942  46.780  50.267  1.00  0.00     0.273 C 
BRANCH  16  17
HETATM   17  C   UNL     1      25.078  47.843  49.652  1.00  0.00    -0.030 A 
HETATM   18  C   UNL     1      23.680  47.747  49.696  1.00  0.00     0.048 A 
HETATM   19  C   UNL     1      22.893  48.747  49.122  1.00  0.00     0.102 A 
HETATM   20  C   UNL     1      23.488  49.828  48.471  1.00  0.00     0.102 A 
HETATM   21  O   UNL     1      21.536  48.595  49.236  1.00  0.00    -0.346 OA
HETATM   22  O   UNL     1      22.776  50.827  47.863  1.00  0.00    -0.346 OA
HETATM   23  C   UNL     1      24.874  49.937  48.430  1.00  0.00     0.040 A 
HETATM   24  C   UNL     1      21.397  50.472  47.699  1.00  0.00     0.202 C 
HETATM   25  C   UNL     1      20.853  49.827  48.964  1.00  0.00     0.202 C 
HETATM   26  C   UNL     1      25.668  48.951  49.017  1.00  0.00     0.012 A 
ENDBRANCH  16  17
ENDBRANCH  12  16
ENDBRANCH   5   9
BRANCH   5  27
HETATM   27  C   UNL     1      27.781  41.336  49.862  1.00  0.00     0.080 C 
BRANCH  27  28
HETATM   28  C   UNL     1      27.795  39.827  49.792  1.00  0.00    -0.052 A 
HETATM   29  C   UNL     1      28.925  39.092  50.174  1.00  0.00     0.049 A 
HETATM   30  C   UNL     1      28.911  37.702  50.100  1.00  0.00     0.116 A 
HETATM   31  F   UNL     1      30.005  37.018  50.460  1.00  0.00    -0.206 F 
HETATM   32  C   UNL     1      27.787  37.016  49.659  1.00  0.00     0.042 A 
HETATM   33  C   UNL     1      26.653  37.733  49.287  1.00  0.00     0.003 A 
HETATM   34  C   UNL     1      26.656  39.129  49.354  1.00  0.00     0.007 A 
ENDBRANCH  27  28
ENDBRANCH   5  27
BRANCH   1  35
HETATM   35  C   UNL     1      29.897  42.906  53.427  1.00  0.00     0.140 C 
BRANCH  35  36
HETATM   36  C   UNL     1      29.635  43.452  54.841  1.00  0.00    -0.004 C 
HETATM   37  C   UNL     1      28.946  44.817  54.812  1.00  0.00     0.011 C 
HETATM   38  C   UNL     1      30.958  43.569  55.602  1.00  0.00     0.011 C 
ENDBRANCH  35  36
ENDBRANCH   1  35
TORSDOF 7
ENDMDL
MODEL 2
REMARK VINA RESULT:      -9.1      2.513      5.320
REMARK  7 active torsions:
REMARK  status: ('A' for Active; 'I' for Inactive)
REMARK    1  A    between atoms: C_2  and  C_3 
REMARK    2  A    between atoms: C_3  and  N_4 
REMARK    3  A    between atoms: C_8  and  C_9 
REMARK    4  A    between atoms: C_8  and  C_27 
REMARK    5  A    between atoms: N_12  and  C_14 
REMARK    6  A    between atoms: C_14  and  C_15 
REMARK    7  A    between atoms: C_27  and  C_28 
ROOT
HETATM    1  N   UNL     1      25.874  42.465  50.775  1.00  0.00    -0.268 N 
HETATM    2  C   UNL     1      27.229  42.372  50.830  1.00  0.00     0.326 C 
HETATM    3  O   UNL     1      27.930  41.440  50.481  1.00  0.00    -0.247 OA
HETATM    4  N   UNL     1      27.720  43.544  51.362  1.00  0.00    -0.324 N 
HETATM    5  C   UNL     1      26.676  44.372  51.951  1.00  0.00     0.123 C 
HETATM    6  C   UNL     1      25.468  43.655  51.305  1.00  0.00     0.257 C 
HETATM    7  O   UNL     1      24.317  44.072  51.326  1.00  0.00    -0.270 OA
HETATM    8  H   UNL     1      28.699  43.574  51.633  1.00  0.00     0.165 HD
ENDROOT
BRANCH   5   9
HETATM    9  C   UNL     1      26.895  45.877  51.584  1.00  0.00     0.027 C 
HETATM   10  C   UNL     1      25.895  46.899  52.153  1.00  0.00     0.035 C 
HETATM   11  C   UNL     1      24.581  47.051  51.398  1.00  0.00     0.235 C 
HETATM   12  N   UNL     1      24.789  47.182  49.909  1.00  0.00    -0.067 N 
HETATM   13  H   UNL     1      25.128  48.137  49.743  1.00  0.00     0.280 HD
HETATM   14  C   UNL     1      25.782  46.227  49.304  1.00  0.00     0.235 C 
HETATM   15  C   UNL     1      27.078  46.185  50.087  1.00  0.00     0.035 C 
BRANCH  12  16
HETATM   16  C   UNL     1      23.472  47.057  49.146  1.00  0.00     0.273 C 
BRANCH  16  17
HETATM   17  C   UNL     1      22.695  48.335  49.013  1.00  0.00    -0.030 A 
HETATM   18  C   UNL     1      21.295  48.336  49.090  1.00  0.00     0.048 A 
HETATM   19  C   UNL     1      20.589  49.534  48.968  1.00  0.00     0.102 A 
HETATM   20  C   UNL     1      21.267  50.732  48.734  1.00  0.00     0.102 A 
HETATM   21  O   UNL     1      19.227  49.454  49.088  1.00  0.00    -0.346 OA
HETATM   22  O   UNL     1      20.635  51.936  48.576  1.00  0.00    -0.346 OA
HETATM   23  C   UNL     1      22.656  50.743  48.664  1.00  0.00     0.040 A 
HETATM   24  C   UNL     1      19.227  51.774  48.363  1.00  0.00     0.202 C 
HETATM   25  C   UNL     1      18.652  50.747  49.326  1.00  0.00     0.202 C 
HETATM   26  C   UNL     1      23.369  49.551  48.803  1.00  0.00     0.012 A 
ENDBRANCH  16  17
ENDBRANCH  12  16
ENDBRANCH   5   9
BRANCH   5  27
HETATM   27  C   UNL     1      26.550  44.085  53.480  1.00  0.00     0.080 C 
BRANCH  27  28
HETATM   28  C   UNL     1      27.775  44.402  54.305  1.00  0.00    -0.052 A 
HETATM   29  C   UNL     1      28.847  43.505  54.390  1.00  0.00     0.049 A 
HETATM   30  C   UNL     1      29.965  43.823  55.158  1.00  0.00     0.116 A 
HETATM   31  F   UNL     1      30.975  42.947  55.234  1.00  0.00    -0.206 F 
HETATM   32  C   UNL     1      30.047  45.027  55.843  1.00  0.00     0.042 A 
HETATM   33  C   UNL     1      28.994  45.935  55.758  1.00  0.00     0.003 A 
HETATM   34  C   UNL     1      27.865  45.625  54.993  1.00  0.00     0.007 A 
ENDBRANCH  27  28
ENDBRANCH   5  27
BRANCH   1  35
HETATM   35  C   UNL     1      24.996  41.403  50.310  1.00  0.00     0.140 C 
BRANCH  35  36
HETATM   36  C   UNL     1      24.681  41.464  48.805  1.00  0.00    -0.004 C 
HETATM   37  C   UNL     1      23.177  41.441  48.531  1.00  0.00     0.011 C 
HETATM   38  C   UNL     1      25.344  40.284  48.092  1.00  0.00     0.011 C 
ENDBRANCH  35  36
ENDBRANCH   1  35
TORSDOF 7
ENDMDL
MODEL 3
REMARK VINA RESULT:      -8.9      2.382      4.870
REMARK  7 active torsions:
REMARK  status: ('A' for Active; 'I' for Inactive)
REMARK    1  A    between atoms: C_2  and  C_3 
REMARK    2  A    between atoms: C_3  and  N_4 
REMARK    3  A    between atoms: C_8  and  C_9 
REMARK    4  A    between atoms: C_8  and  C_27 
REMARK    5  A    between atoms: N_12  and  C_14 
REMARK    6  A    between atoms: C_14  and  C_15 
REMARK    7  A    between atoms: C_27  and  C_28 
ROOT
HETATM    1  N   UNL     1      27.476  41.083  49.783  1.00  0.00    -0.268 N 
HETATM    2  C   UNL     1      27.067  41.824  48.719  1.00  0.00     0.326 C 
HETATM    3  O   UNL     1      27.270  41.612  47.538  1.00  0.00    -0.247 OA
HETATM    4  N   UNL     1      26.354  42.903  49.194  1.00  0.00    -0.324 N 
HETATM    5  C   UNL     1      26.496  43.078  50.633  1.00  0.00     0.123 C 
HETATM    6  C   UNL     1      27.084  41.683  50.945  1.00  0.00     0.257 C 
HETATM    7  O   UNL     1      27.228  41.222  52.069  1.00  0.00    -0.270 OA
HETATM    8  H   UNL     1      26.126  43.649  48.543  1.00  0.00     0.165 HD
ENDROOT
BRANCH   5   9
HETATM    9  C   UNL     1      25.118  43.435  51.282  1.00  0.00     0.027 C 
HETATM   10  C   UNL     1      23.848  42.955  50.559  1.00  0.00     0.035 C 
HETATM   11  C   UNL     1      23.365  43.817  49.399  1.00  0.00     0.235 C 
HETATM   12  N   UNL     1      23.337  45.285  49.749  1.00  0.00    -0.067 N 
HETATM   13  H   UNL     1      22.515  45.427  50.348  1.00  0.00     0.280 HD
HETATM   14  C   UNL     1      24.543  45.800  50.488  1.00  0.00     0.235 C 
HETATM   15  C   UNL     1      24.913  44.913  51.658  1.00  0.00     0.035 C 
BRANCH  12  16
HETATM   16  C   UNL     1      23.120  46.153  48.512  1.00  0.00     0.273 C 
BRANCH  16  17
HETATM   17  C   UNL     1      22.512  47.499  48.783  1.00  0.00    -0.030 A 
HETATM   18  C   UNL     1      21.131  47.637  48.980  1.00  0.00     0.048 A 
HETATM   19  C   UNL     1      20.585  48.896  49.234  1.00  0.00     0.102 A 
HETATM   20  C   UNL     1      21.400  50.029  49.258  1.00  0.00     0.102 A 
HETATM   21  O   UNL     1      19.232  48.942  49.448  1.00  0.00    -0.346 OA
HETATM   22  O   UNL     1      20.925  51.295  49.473  1.00  0.00    -0.346 OA
HETATM   23  C   UNL     1      22.773  49.901  49.072  1.00  0.00     0.040 A 
HETATM   24  C   UNL     1      19.499  51.355  49.350  1.00  0.00     0.202 C 
HETATM   25  C   UNL     1      18.847  50.180  50.062  1.00  0.00     0.202 C 
HETATM   26  C   UNL     1      23.329  48.643  48.836  1.00  0.00     0.012 A 
ENDBRANCH  16  17
ENDBRANCH  12  16
ENDBRANCH   5   9
BRANCH   5  27
HETATM   27  C   UNL     1      27.647  44.084  50.949  1.00  0.00     0.080 C 
BRANCH  27  28
HETATM   28  C   UNL     1      28.314  43.907  52.294  1.00  0.00    -0.052 A 
HETATM   29  C   UNL     1      27.768  44.466  53.456  1.00  0.00     0.049 A 
HETATM   30  C   UNL     1      28.403  44.288  54.682  1.00  0.00     0.116 A 
HETATM   31  F   UNL     1      27.869  44.839  55.780  1.00  0.00    -0.206 F 
HETATM   32  C   UNL     1      29.576  43.553  54.783  1.00  0.00     0.042 A 
HETATM   33  C   UNL     1      30.125  42.981  53.638  1.00  0.00     0.003 A 
HETATM   34  C   UNL     1      29.498  43.156  52.401  1.00  0.00     0.007 A 
ENDBRANCH  27  28
ENDBRANCH   5  27
BRANCH   1  35
HETATM   35  C   UNL     1      28.294  39.885  49.684  1.00  0.00     0.140 C 
BRANCH  35  36
HETATM   36  C   UNL     1      27.686  38.782  48.800  1.00  0.00    -0.004 C 
HETATM   37  C   UNL     1      26.985  37.704  49.626  1.00  0.00     0.011 C 
HETATM   38  C   UNL     1      28.786  38.136  47.953  1.00  0.00     0.011 C 
ENDBRANCH  35  36
ENDBRANCH   1  35
TORSDOF 7
ENDMDL
MODEL 4
REMARK VINA RESULT:      -8.9      4.180      8.435
REMARK  7 active torsions:
REMARK  status: ('A' for Active; 'I' for Inactive)
REMARK    1  A    between atoms: C_2  and  C_3 
REMARK    2  A    between atoms: C_3  and  N_4 
REMARK    3  A    between atoms: C_8  and  C_9 
REMARK    4  A    between atoms: C_8  and  C_27 
REMARK    5  A    between atoms: N_12  and  C_14 
REMARK    6  A    between atoms: C_14  and  C_15 
REMARK    7  A    between atoms: C_27  and  C_28 
ROOT
HETATM    1  N   UNL     1      25.238  44.238  51.193  1.00  0.00    -0.268 N 
HETATM    2  C   UNL     1      25.305  43.934  52.516  1.00  0.00     0.326 C 
HETATM    3  O   UNL     1      24.668  44.425  53.430  1.00  0.00    -0.247 OA
HETATM    4  N   UNL     1      26.242  42.938  52.682  1.00  0.00    -0.324 N 
HETATM    5  C   UNL     1      27.052  42.728  51.490  1.00  0.00     0.123 C 
HETATM    6  C   UNL     1      26.148  43.495  50.499  1.00  0.00     0.257 C 
HETATM    7  O   UNL     1      26.277  43.479  49.281  1.00  0.00    -0.270 OA
HETATM    8  H   UNL     1      26.540  42.715  53.628  1.00  0.00     0.165 HD
ENDROOT
BRANCH   5   9
HETATM    9  C   UNL     1      27.262  41.199  51.231  1.00  0.00     0.027 C 
HETATM   10  C   UNL     1      28.412  40.789  50.295  1.00  0.00     0.035 C 
HETATM   11  C   UNL     1      28.125  40.860  48.800  1.00  0.00     0.235 C 
HETATM   12  N   UNL     1      26.804  40.224  48.441  1.00  0.00    -0.067 N 
HETATM   13  H   UNL     1      26.948  39.208  48.482  1.00  0.00     0.280 HD
HETATM   14  C   UNL     1      25.650  40.565  49.344  1.00  0.00     0.235 C 
HETATM   15  C   UNL     1      26.010  40.410  50.808  1.00  0.00     0.035 C 
BRANCH  12  16
HETATM   16  C   UNL     1      26.402  40.540  47.003  1.00  0.00     0.273 C 
BRANCH  16  17
HETATM   17  C   UNL     1      27.221  39.849  45.950  1.00  0.00    -0.030 A 
HETATM   18  C   UNL     1      27.943  40.587  45.002  1.00  0.00     0.048 A 
HETATM   19  C   UNL     1      28.701  39.928  44.033  1.00  0.00     0.102 A 
HETATM   20  C   UNL     1      28.719  38.533  43.979  1.00  0.00     0.102 A 
HETATM   21  O   UNL     1      29.403  40.721  43.165  1.00  0.00    -0.346 OA
HETATM   22  O   UNL     1      29.417  37.824  43.039  1.00  0.00    -0.346 OA
HETATM   23  C   UNL     1      28.012  37.792  44.921  1.00  0.00     0.040 A 
HETATM   24  C   UNL     1      29.850  38.660  41.957  1.00  0.00     0.202 C 
HETATM   25  C   UNL     1      30.417  39.969  42.482  1.00  0.00     0.202 C 
HETATM   26  C   UNL     1      27.266  38.444  45.903  1.00  0.00     0.012 A 
ENDBRANCH  16  17
ENDBRANCH  12  16
ENDBRANCH   5   9
BRANCH   5  27
HETATM   27  C   UNL     1      28.368  43.563  51.571  1.00  0.00     0.080 C 
BRANCH  27  28
HETATM   28  C   UNL     1      29.005  43.644  52.939  1.00  0.00    -0.052 A 
HETATM   29  C   UNL     1      28.593  44.599  53.877  1.00  0.00     0.049 A 
HETATM   30  C   UNL     1      29.196  44.652  55.131  1.00  0.00     0.116 A 
HETATM   31  F   UNL     1      28.794  45.579  56.010  1.00  0.00    -0.206 F 
HETATM   32  C   UNL     1      30.204  43.764  55.481  1.00  0.00     0.042 A 
HETATM   33  C   UNL     1      30.616  42.801  54.563  1.00  0.00     0.003 A 
HETATM   34  C   UNL     1      30.020  42.741  53.300  1.00  0.00     0.007 A 
ENDBRANCH  27  28
ENDBRANCH   5  27
BRANCH   1  35
HETATM   35  C   UNL     1      24.390  45.278  50.630  1.00  0.00     0.140 C 
BRANCH  35  36
HETATM   36  C   UNL     1      25.149  46.550  50.217  1.00  0.00    -0.004 C 
HETATM   37  C   UNL     1      25.975  47.126  51.368  1.00  0.00     0.011 C 
HETATM   38  C   UNL     1      24.155  47.607  49.730  1.00  0.00     0.011 C 
ENDBRANCH  35  36
ENDBRANCH   1  35
TORSDOF 7
ENDMDL
MODEL 5
REMARK VINA RESULT:      -8.7      2.116      2.839
REMARK  7 active torsions:
REMARK  status: ('A' for Active; 'I' for Inactive)
REMARK    1  A    between atoms: C_2  and  C_3 
REMARK    2  A    between atoms: C_3  and  N_4 
REMARK    3  A    between atoms: C_8  and  C_9 
REMARK    4  A    between atoms: C_8  and  C_27 
REMARK    5  A    between atoms: N_12  and  C_14 
REMARK    6  A    between atoms: C_14  and  C_15 
REMARK    7  A    between atoms: C_27  and  C_28 
ROOT
HETATM    1  N   UNL     1      26.759  44.251  53.408  1.00  0.00    -0.268 N 
HETATM    2  C   UNL     1      25.409  44.387  53.333  1.00  0.00     0.326 C 
HETATM    3  O   UNL     1      24.635  44.674  54.227  1.00  0.00    -0.247 OA
HETATM    4  N   UNL     1      25.023  44.143  52.033  1.00  0.00    -0.324 N 
HETATM    5  C   UNL     1      26.088  43.551  51.235  1.00  0.00     0.123 C 
HETATM    6  C   UNL     1      27.257  43.875  52.193  1.00  0.00     0.257 C 
HETATM    7  O   UNL     1      28.442  43.752  51.915  1.00  0.00    -0.270 OA
HETATM    8  H   UNL     1      24.031  44.032  51.841  1.00  0.00     0.165 HD
ENDROOT
BRANCH   5   9
HETATM    9  C   UNL     1      26.132  44.198  49.811  1.00  0.00     0.027 C 
HETATM   10  C   UNL     1      26.974  45.474  49.636  1.00  0.00     0.035 C 
HETATM   11  C   UNL     1      26.314  46.781  50.055  1.00  0.00     0.235 C 
HETATM   12  N   UNL     1      24.910  46.912  49.517  1.00  0.00    -0.067 N 
HETATM   13  H   UNL     1      24.999  47.142  48.520  1.00  0.00     0.280 HD
HETATM   14  C   UNL     1      24.052  45.681  49.633  1.00  0.00     0.235 C 
HETATM   15  C   UNL     1      24.768  44.441  49.139  1.00  0.00     0.035 C 
BRANCH  12  16
HETATM   16  C   UNL     1      24.169  48.080  50.162  1.00  0.00     0.273 C 
BRANCH  16  17
HETATM   17  C   UNL     1      23.103  48.703  49.306  1.00  0.00    -0.030 A 
HETATM   18  C   UNL     1      21.867  48.069  49.123  1.00  0.00     0.048 A 
HETATM   19  C   UNL     1      20.888  48.665  48.326  1.00  0.00     0.102 A 
HETATM   20  C   UNL     1      21.144  49.875  47.678  1.00  0.00     0.102 A 
HETATM   21  O   UNL     1      19.695  47.998  48.225  1.00  0.00    -0.346 OA
HETATM   22  O   UNL     1      20.239  50.498  46.861  1.00  0.00    -0.346 OA
HETATM   23  C   UNL     1      22.365  50.516  47.860  1.00  0.00     0.040 A 
HETATM   24  C   UNL     1      19.158  49.628  46.504  1.00  0.00     0.202 C 
HETATM   25  C   UNL     1      18.664  48.857  47.718  1.00  0.00     0.202 C 
HETATM   26  C   UNL     1      23.342  49.935  48.670  1.00  0.00     0.012 A 
ENDBRANCH  16  17
ENDBRANCH  12  16
ENDBRANCH   5   9
BRANCH   5  27
HETATM   27  C   UNL     1      25.976  41.995  51.242  1.00  0.00     0.080 C 
BRANCH  27  28
HETATM   28  C   UNL     1      26.435  41.304  49.979  1.00  0.00    -0.052 A 
HETATM   29  C   UNL     1      27.795  41.090  49.720  1.00  0.00     0.049 A 
HETATM   30  C   UNL     1      28.191  40.450  48.548  1.00  0.00     0.116 A 
HETATM   31  F   UNL     1      29.497  40.265  48.315  1.00  0.00    -0.206 F 
HETATM   32  C   UNL     1      27.257  40.005  47.622  1.00  0.00     0.042 A 
HETATM   33  C   UNL     1      25.901  40.199  47.871  1.00  0.00     0.003 A 
HETATM   34  C   UNL     1      25.492  40.844  49.043  1.00  0.00     0.007 A 
ENDBRANCH  27  28
ENDBRANCH   5  27
BRANCH   1  35
HETATM   35  C   UNL     1      27.532  44.390  54.632  1.00  0.00     0.140 C 
BRANCH  35  36
HETATM   36  C   UNL     1      28.368  45.680  54.702  1.00  0.00    -0.004 C 
HETATM   37  C   UNL     1      29.410  45.630  55.819  1.00  0.00     0.011 C 
HETATM   38  C   UNL     1      27.444  46.880  54.925  1.00  0.00     0.011 C 
ENDBRANCH  35  36
ENDBRANCH   1  35
TORSDOF 7
ENDMDL
MODEL 6
REMARK VINA RESULT:      -8.6      4.474     10.450
REMARK  7 active torsions:
REMARK  status: ('A' for Active; 'I' for Inactive)
REMARK    1  A    between atoms: C_2  and  C_3 
REMARK    2  A    between atoms: C_3  and  N_4 
REMARK    3  A    between atoms: C_8  and  C_9 
REMARK    4  A    between atoms: C_8  and  C_27 
REMARK    5  A    between atoms: N_12  and  C_14 
REMARK    6  A    between atoms: C_14  and  C_15 
REMARK    7  A    between atoms: C_27  and  C_28 
ROOT
HETATM    1  N   UNL     1      18.150  49.337  49.039  1.00  0.00    -0.268 N 
HETATM    2  C   UNL     1      19.133  49.003  49.917  1.00  0.00     0.326 C 
HETATM    3  O   UNL     1      19.398  49.532  50.980  1.00  0.00    -0.247 OA
HETATM    4  N   UNL     1      19.820  47.925  49.404  1.00  0.00    -0.324 N 
HETATM    5  C   UNL     1      19.493  47.666  48.008  1.00  0.00     0.123 C 
HETATM    6  C   UNL     1      18.212  48.529  47.942  1.00  0.00     0.257 C 
HETATM    7  O   UNL     1      17.415  48.524  47.013  1.00  0.00    -0.270 OA
HETATM    8  H   UNL     1      20.694  47.659  49.849  1.00  0.00     0.165 HD
ENDROOT
BRANCH   5   9
HETATM    9  C   UNL     1      19.333  46.130  47.757  1.00  0.00     0.027 C 
HETATM   10  C   UNL     1      19.781  45.177  48.879  1.00  0.00     0.035 C 
HETATM   11  C   UNL     1      21.272  44.869  48.947  1.00  0.00     0.235 C 
HETATM   12  N   UNL     1      21.846  44.516  47.597  1.00  0.00    -0.067 N 
HETATM   13  H   UNL     1      21.539  43.558  47.389  1.00  0.00     0.280 HD
HETATM   14  C   UNL     1      21.414  45.397  46.456  1.00  0.00     0.235 C 
HETATM   15  C   UNL     1      19.913  45.600  46.433  1.00  0.00     0.035 C 
BRANCH  12  16
HETATM   16  C   UNL     1      23.372  44.479  47.628  1.00  0.00     0.273 C 
BRANCH  16  17
HETATM   17  C   UNL     1      23.973  44.324  48.995  1.00  0.00    -0.030 A 
HETATM   18  C   UNL     1      24.483  45.431  49.686  1.00  0.00     0.048 A 
HETATM   19  C   UNL     1      25.035  45.268  50.958  1.00  0.00     0.102 A 
HETATM   20  C   UNL     1      25.116  44.000  51.535  1.00  0.00     0.102 A 
HETATM   21  O   UNL     1      25.482  46.404  51.579  1.00  0.00    -0.346 OA
HETATM   22  O   UNL     1      25.670  43.765  52.764  1.00  0.00    -0.346 OA
HETATM   23  C   UNL     1      24.605  42.895  50.861  1.00  0.00     0.040 A 
HETATM   24  C   UNL     1      26.425  44.891  53.230  1.00  0.00     0.202 C 
HETATM   25  C   UNL     1      25.667  46.186  52.985  1.00  0.00     0.202 C 
HETATM   26  C   UNL     1      24.035  43.054  49.597  1.00  0.00     0.012 A 
ENDBRANCH  16  17
ENDBRANCH  12  16
ENDBRANCH   5   9
BRANCH   5  27
HETATM   27  C   UNL     1      20.513  48.379  47.067  1.00  0.00     0.080 C 
BRANCH  27  28
HETATM   28  C   UNL     1      21.637  49.113  47.761  1.00  0.00    -0.052 A 
HETATM   29  C   UNL     1      22.775  48.437  48.216  1.00  0.00     0.049 A 
HETATM   30  C   UNL     1      23.796  49.138  48.853  1.00  0.00     0.116 A 
HETATM   31  F   UNL     1      24.872  48.471  49.290  1.00  0.00    -0.206 F 
HETATM   32  C   UNL     1      23.715  50.511  49.042  1.00  0.00     0.042 A 
HETATM   33  C   UNL     1      22.594  51.199  48.585  1.00  0.00     0.003 A 
HETATM   34  C   UNL     1      21.562  50.505  47.947  1.00  0.00     0.007 A 
ENDBRANCH  27  28
ENDBRANCH   5  27
BRANCH   1  35
HETATM   35  C   UNL     1      17.239  50.458  49.214  1.00  0.00     0.140 C 
BRANCH  35  36
HETATM   36  C   UNL     1      17.940  51.823  49.331  1.00  0.00    -0.004 C 
HETATM   37  C   UNL     1      16.996  52.913  49.839  1.00  0.00     0.011 C 
HETATM   38  C   UNL     1      18.499  52.233  47.966  1.00  0.00     0.011 C 
ENDBRANCH  35  36
ENDBRANCH   1  35
TORSDOF 7
ENDMDL
MODEL 7
REMARK VINA RESULT:      -8.5     11.704     15.294
REMARK  7 active torsions:
REMARK  status: ('A' for Active; 'I' for Inactive)
REMARK    1  A    between atoms: C_2  and  C_3 
REMARK    2  A    between atoms: C_3  and  N_4 
REMARK    3  A    between atoms: C_8  and  C_9 
REMARK    4  A    between atoms: C_8  and  C_27 
REMARK    5  A    between atoms: N_12  and  C_14 
REMARK    6  A    between atoms: C_14  and  C_15 
REMARK    7  A    between atoms: C_27  and  C_28 
ROOT
HETATM    1  N   UNL     1      28.311  47.921  39.556  1.00  0.00    -0.268 N 
HETATM    2  C   UNL     1      27.982  48.926  40.411  1.00  0.00     0.326 C 
HETATM    3  O   UNL     1      26.890  49.437  40.580  1.00  0.00    -0.247 OA
HETATM    4  N   UNL     1      29.118  49.299  41.094  1.00  0.00    -0.324 N 
HETATM    5  C   UNL     1      30.330  48.738  40.513  1.00  0.00     0.123 C 
HETATM    6  C   UNL     1      29.649  47.665  39.633  1.00  0.00     0.257 C 
HETATM    7  O   UNL     1      30.238  46.764  39.049  1.00  0.00    -0.270 OA
HETATM    8  H   UNL     1      29.086  50.152  41.646  1.00  0.00     0.165 HD
ENDROOT
BRANCH   5   9
HETATM    9  C   UNL     1      31.296  48.233  41.636  1.00  0.00     0.027 C 
HETATM   10  C   UNL     1      31.292  48.996  42.972  1.00  0.00     0.035 C 
HETATM   11  C   UNL     1      32.126  50.270  43.022  1.00  0.00     0.235 C 
HETATM   12  N   UNL     1      33.508  50.073  42.449  1.00  0.00    -0.067 N 
HETATM   13  H   UNL     1      34.046  49.555  43.153  1.00  0.00     0.280 HD
HETATM   14  C   UNL     1      33.572  49.303  41.158  1.00  0.00     0.235 C 
HETATM   15  C   UNL     1      32.763  48.024  41.220  1.00  0.00     0.035 C 
BRANCH  12  16
HETATM   16  C   UNL     1      34.229  51.405  42.254  1.00  0.00     0.273 C 
BRANCH  16  17
HETATM   17  C   UNL     1      35.601  51.475  42.861  1.00  0.00    -0.030 A 
HETATM   18  C   UNL     1      35.905  52.429  43.842  1.00  0.00     0.048 A 
HETATM   19  C   UNL     1      37.185  52.477  44.397  1.00  0.00     0.102 A 
HETATM   20  C   UNL     1      38.179  51.603  43.955  1.00  0.00     0.102 A 
HETATM   21  O   UNL     1      37.391  53.416  45.373  1.00  0.00    -0.346 OA
HETATM   22  O   UNL     1      39.461  51.616  44.436  1.00  0.00    -0.346 OA
HETATM   23  C   UNL     1      37.886  50.648  42.988  1.00  0.00     0.040 A 
HETATM   24  C   UNL     1      39.736  52.806  45.185  1.00  0.00     0.202 C 
HETATM   25  C   UNL     1      38.582  53.132  46.121  1.00  0.00     0.202 C 
HETATM   26  C   UNL     1      36.603  50.582  42.442  1.00  0.00     0.012 A 
ENDBRANCH  16  17
ENDBRANCH  12  16
ENDBRANCH   5   9
BRANCH   5  27
HETATM   27  C   UNL     1      30.970  49.744  39.506  1.00  0.00     0.080 C 
BRANCH  27  28
HETATM   28  C   UNL     1      30.435  51.156  39.569  1.00  0.00    -0.052 A 
HETATM   29  C   UNL     1      30.990  52.106  40.435  1.00  0.00     0.049 A 
HETATM   30  C   UNL     1      30.478  53.400  40.473  1.00  0.00     0.116 A 
HETATM   31  F   UNL     1      31.017  54.291  41.316  1.00  0.00    -0.206 F 
HETATM   32  C   UNL     1      29.422  53.780  39.656  1.00  0.00     0.042 A 
HETATM   33  C   UNL     1      28.868  52.849  38.781  1.00  0.00     0.003 A 
HETATM   34  C   UNL     1      29.371  51.546  38.736  1.00  0.00     0.007 A 
ENDBRANCH  27  28
ENDBRANCH   5  27
BRANCH   1  35
HETATM   35  C   UNL     1      27.381  47.293  38.630  1.00  0.00     0.140 C 
BRANCH  35  36
HETATM   36  C   UNL     1      26.435  46.274  39.288  1.00  0.00    -0.004 C 
HETATM   37  C   UNL     1      27.194  45.233  40.112  1.00  0.00     0.011 C 
HETATM   38  C   UNL     1      25.612  45.564  38.210  1.00  0.00     0.011 C 
ENDBRANCH  35  36
ENDBRANCH   1  35
TORSDOF 7
ENDMDL
MODEL 8
REMARK VINA RESULT:      -8.4      3.135      5.160
REMARK  7 active torsions:
REMARK  status: ('A' for Active; 'I' for Inactive)
REMARK    1  A    between atoms: C_2  and  C_3 
REMARK    2  A    between atoms: C_3  and  N_4 
REMARK    3  A    between atoms: C_8  and  C_9 
REMARK    4  A    between atoms: C_8  and  C_27 
REMARK    5  A    between atoms: N_12  and  C_14 
REMARK    6  A    between atoms: C_14  and  C_15 
REMARK    7  A    between atoms: C_27  and  C_28 
ROOT
HETATM    1  N   UNL     1      25.443  46.663  50.409  1.00  0.00    -0.268 N 
HETATM    2  C   UNL     1      25.482  46.521  51.761  1.00  0.00     0.326 C 
HETATM    3  O   UNL     1      25.488  47.398  52.605  1.00  0.00    -0.247 OA
HETATM    4  N   UNL     1      25.515  45.175  52.051  1.00  0.00    -0.324 N 
HETATM    5  C   UNL     1      25.784  44.356  50.877  1.00  0.00     0.123 C 
HETATM    6  C   UNL     1      25.498  45.438  49.811  1.00  0.00     0.257 C 
HETATM    7  O   UNL     1      25.400  45.225  48.610  1.00  0.00    -0.270 OA
HETATM    8  H   UNL     1      25.722  44.897  53.007  1.00  0.00     0.165 HD
ENDROOT
BRANCH   5   9
HETATM    9  C   UNL     1      24.869  43.087  50.871  1.00  0.00     0.027 C 
HETATM   10  C   UNL     1      24.955  42.155  49.650  1.00  0.00     0.035 C 
HETATM   11  C   UNL     1      24.148  42.571  48.426  1.00  0.00     0.235 C 
HETATM   12  N   UNL     1      22.736  42.966  48.779  1.00  0.00    -0.067 N 
HETATM   13  H   UNL     1      22.225  42.094  48.963  1.00  0.00     0.280 HD
HETATM   14  C   UNL     1      22.590  43.852  49.987  1.00  0.00     0.235 C 
HETATM   15  C   UNL     1      23.379  43.330  51.171  1.00  0.00     0.035 C 
BRANCH  12  16
HETATM   16  C   UNL     1      22.029  43.634  47.602  1.00  0.00     0.273 C 
BRANCH  16  17
HETATM   17  C   UNL     1      21.503  45.013  47.880  1.00  0.00    -0.030 A 
HETATM   18  C   UNL     1      22.311  46.143  47.690  1.00  0.00     0.048 A 
HETATM   19  C   UNL     1      21.804  47.417  47.951  1.00  0.00     0.102 A 
HETATM   20  C   UNL     1      20.504  47.574  48.435  1.00  0.00     0.102 A 
HETATM   21  O   UNL     1      22.646  48.470  47.709  1.00  0.00    -0.346 OA
HETATM   22  O   UNL     1      19.955  48.790  48.738  1.00  0.00    -0.346 OA
HETATM   23  C   UNL     1      19.691  46.460  48.619  1.00  0.00     0.040 A 
HETATM   24  C   UNL     1      20.949  49.820  48.805  1.00  0.00     0.202 C 
HETATM   25  C   UNL     1      21.922  49.706  47.642  1.00  0.00     0.202 C 
HETATM   26  C   UNL     1      20.186  45.184  48.343  1.00  0.00     0.012 A 
ENDBRANCH  16  17
ENDBRANCH  12  16
ENDBRANCH   5   9
BRANCH   5  27
HETATM   27  C   UNL     1      27.311  44.059  50.757  1.00  0.00     0.080 C 
BRANCH  27  28
HETATM   28  C   UNL     1      27.946  43.411  51.966  1.00  0.00    -0.052 A 
HETATM   29  C   UNL     1      28.557  44.179  52.965  1.00  0.00     0.049 A 
HETATM   30  C   UNL     1      29.134  43.556  54.069  1.00  0.00     0.116 A 
HETATM   31  F   UNL     1      29.722  44.308  55.009  1.00  0.00    -0.206 F 
HETATM   32  C   UNL     1      29.111  42.175  54.209  1.00  0.00     0.042 A 
HETATM   33  C   UNL     1      28.497  41.400  53.228  1.00  0.00     0.003 A 
HETATM   34  C   UNL     1      27.917  42.014  52.114  1.00  0.00     0.007 A 
ENDBRANCH  27  28
ENDBRANCH   5  27
BRANCH   1  35
HETATM   35  C   UNL     1      25.444  47.943  49.717  1.00  0.00     0.140 C 
BRANCH  35  36
HETATM   36  C   UNL     1      26.834  48.593  49.605  1.00  0.00    -0.004 C 
HETATM   37  C   UNL     1      26.827  49.808  48.676  1.00  0.00     0.011 C 
HETATM   38  C   UNL     1      27.842  47.565  49.086  1.00  0.00     0.011 C 
ENDBRANCH  35  36
ENDBRANCH   1  35
TORSDOF 7
ENDMDL
MODEL 9
REMARK VINA RESULT:      -8.4      6.176     13.226
REMARK  7 active torsions:
REMARK  status: ('A' for Active; 'I' for Inactive)
REMARK    1  A    between atoms: C_2  and  C_3 
REMARK    2  A    between atoms: C_3  and  N_4 
REMARK    3  A    between atoms: C_8  and  C_9 
REMARK    4  A    between atoms: C_8  and  C_27 
REMARK    5  A    between atoms: N_12  and  C_14 
REMARK    6  A    between atoms: C_14  and  C_15 
REMARK    7  A    between atoms: C_27  and  C_28 
ROOT
HETATM    1  N   UNL     1      17.006  49.045  46.777  1.00  0.00    -0.268 N 
HETATM    2  C   UNL     1      15.952  49.117  47.634  1.00  0.00     0.326 C 
HETATM    3  O   UNL     1      14.849  48.620  47.505  1.00  0.00    -0.247 OA
HETATM    4  N   UNL     1      16.334  49.869  48.723  1.00  0.00    -0.324 N 
HETATM    5  C   UNL     1      17.589  50.574  48.504  1.00  0.00     0.123 C 
HETATM    6  C   UNL     1      18.051  49.776  47.263  1.00  0.00     0.257 C 
HETATM    7  O   UNL     1      19.167  49.844  46.766  1.00  0.00    -0.270 OA
HETATM    8  H   UNL     1      15.613  50.166  49.375  1.00  0.00     0.165 HD
ENDROOT
BRANCH   5   9
HETATM    9  C   UNL     1      18.492  50.498  49.780  1.00  0.00     0.027 C 
HETATM   10  C   UNL     1      19.764  51.364  49.802  1.00  0.00     0.035 C 
HETATM   11  C   UNL     1      20.979  50.796  49.079  1.00  0.00     0.235 C 
HETATM   12  N   UNL     1      21.231  49.351  49.433  1.00  0.00    -0.067 N 
HETATM   13  H   UNL     1      21.644  49.347  50.374  1.00  0.00     0.280 HD
HETATM   14  C   UNL     1      20.015  48.465  49.458  1.00  0.00     0.235 C 
HETATM   15  C   UNL     1      18.879  49.084  50.247  1.00  0.00     0.035 C 
BRANCH  12  16
HETATM   16  C   UNL     1      22.270  48.720  48.508  1.00  0.00     0.273 C 
BRANCH  16  17
HETATM   17  C   UNL     1      23.120  47.658  49.143  1.00  0.00    -0.030 A 
HETATM   18  C   UNL     1      24.079  47.987  50.111  1.00  0.00     0.048 A 
HETATM   19  C   UNL     1      24.857  46.985  50.692  1.00  0.00     0.102 A 
HETATM   20  C   UNL     1      24.714  45.656  50.291  1.00  0.00     0.102 A 
HETATM   21  O   UNL     1      25.748  47.386  51.653  1.00  0.00    -0.346 OA
HETATM   22  O   UNL     1      25.464  44.630  50.799  1.00  0.00    -0.346 OA
HETATM   23  C   UNL     1      23.759  45.318  49.337  1.00  0.00     0.040 A 
HETATM   24  C   UNL     1      26.598  45.113  51.530  1.00  0.00     0.202 C 
HETATM   25  C   UNL     1      26.204  46.271  52.433  1.00  0.00     0.202 C 
HETATM   26  C   UNL     1      22.964  46.312  48.764  1.00  0.00     0.012 A 
ENDBRANCH  16  17
ENDBRANCH  12  16
ENDBRANCH   5   9
BRANCH   5  27
HETATM   27  C   UNL     1      17.320  52.020  47.980  1.00  0.00     0.080 C 
BRANCH  27  28
HETATM   28  C   UNL     1      16.137  52.727  48.601  1.00  0.00    -0.052 A 
HETATM   29  C   UNL     1      16.108  53.034  49.967  1.00  0.00     0.049 A 
HETATM   30  C   UNL     1      15.006  53.686  50.513  1.00  0.00     0.116 A 
HETATM   31  F   UNL     1      14.994  53.963  51.824  1.00  0.00    -0.206 F 
HETATM   32  C   UNL     1      13.924  54.052  49.724  1.00  0.00     0.042 A 
HETATM   33  C   UNL     1      13.943  53.764  48.362  1.00  0.00     0.003 A 
HETATM   34  C   UNL     1      15.043  53.106  47.803  1.00  0.00     0.007 A 
ENDBRANCH  27  28
ENDBRANCH   5  27
BRANCH   1  35
HETATM   35  C   UNL     1      16.973  48.369  45.489  1.00  0.00     0.140 C 
BRANCH  35  36
HETATM   36  C   UNL     1      17.222  46.853  45.572  1.00  0.00    -0.004 C 
HETATM   37  C   UNL     1      18.710  46.509  45.498  1.00  0.00     0.011 C 
HETATM   38  C   UNL     1      16.482  46.147  44.433  1.00  0.00     0.011 C 
ENDBRANCH  35  36
ENDBRANCH   1  35
TORSDOF 7
ENDMDL
MODEL 10
REMARK VINA RESULT:      -8.3     12.512     15.737
REMARK  7 active torsions:
REMARK  status: ('A' for Active; 'I' for Inactive)
REMARK    1  A    between atoms: C_2  and  C_3 
REMARK    2  A    between atoms: C_3  and  N_4 
REMARK    3  A    between atoms: C_8  and  C_9 
REMARK    4  A    between atoms: C_8  and  C_27 
REMARK    5  A    between atoms: N_12  and  C_14 
REMARK    6  A    between atoms: C_14  and  C_15 
REMARK    7  A    between atoms: C_27  and  C_28 
ROOT
HETATM    1  N   UNL     1      30.246  52.312  41.506  1.00  0.00    -0.268 N 
HETATM    2  C   UNL     1      31.264  53.142  41.154  1.00  0.00     0.326 C 
HETATM    3  O   UNL     1      31.207  54.331  40.901  1.00  0.00    -0.247 OA
HETATM    4  N   UNL     1      32.428  52.406  41.124  1.00  0.00    -0.324 N 
HETATM    5  C   UNL     1      32.185  50.971  41.185  1.00  0.00     0.123 C 
HETATM    6  C   UNL     1      30.715  51.040  41.659  1.00  0.00     0.257 C 
HETATM    7  O   UNL     1      30.063  50.081  42.051  1.00  0.00    -0.270 OA
HETATM    8  H   UNL     1      33.253  52.832  40.711  1.00  0.00     0.165 HD
ENDROOT
BRANCH   5   9
HETATM    9  C   UNL     1      33.212  50.280  42.142  1.00  0.00     0.027 C 
HETATM   10  C   UNL     1      33.643  51.054  43.400  1.00  0.00     0.035 C 
HETATM   11  C   UNL     1      34.736  52.097  43.209  1.00  0.00     0.235 C 
HETATM   12  N   UNL     1      35.898  51.568  42.404  1.00  0.00    -0.067 N 
HETATM   13  H   UNL     1      36.433  50.954  43.031  1.00  0.00     0.280 HD
HETATM   14  C   UNL     1      35.533  50.774  41.179  1.00  0.00     0.235 C 
HETATM   15  C   UNL     1      34.483  49.723  41.477  1.00  0.00     0.035 C 
BRANCH  12  16
HETATM   16  C   UNL     1      36.849  52.688  41.989  1.00  0.00     0.273 C 
BRANCH  16  17
HETATM   17  C   UNL     1      37.350  53.543  43.117  1.00  0.00    -0.030 A 
HETATM   18  C   UNL     1      37.761  54.864  42.890  1.00  0.00     0.048 A 
HETATM   19  C   UNL     1      38.222  55.644  43.952  1.00  0.00     0.102 A 
HETATM   20  C   UNL     1      38.310  55.107  45.237  1.00  0.00     0.102 A 
HETATM   21  O   UNL     1      38.572  56.934  43.652  1.00  0.00    -0.346 OA
HETATM   22  O   UNL     1      38.779  55.808  46.316  1.00  0.00    -0.346 OA
HETATM   23  C   UNL     1      37.897  53.800  45.474  1.00  0.00     0.040 A 
HETATM   24  C   UNL     1      39.449  57.011  45.918  1.00  0.00     0.202 C 
HETATM   25  C   UNL     1      38.659  57.736  44.840  1.00  0.00     0.202 C 
HETATM   26  C   UNL     1      37.419  53.019  44.421  1.00  0.00     0.012 A 
ENDBRANCH  16  17
ENDBRANCH  12  16
ENDBRANCH   5   9
BRANCH   5  27
HETATM   27  C   UNL     1      32.122  50.365  39.749  1.00  0.00     0.080 C 
BRANCH  27  28
HETATM   28  C   UNL     1      31.220  49.163  39.588  1.00  0.00    -0.052 A 
HETATM   29  C   UNL     1      30.041  49.234  38.835  1.00  0.00     0.049 A 
HETATM   30  C   UNL     1      29.228  48.111  38.702  1.00  0.00     0.116 A 
HETATM   31  F   UNL     1      28.101  48.203  37.986  1.00  0.00    -0.206 F 
HETATM   32  C   UNL     1      29.567  46.905  39.300  1.00  0.00     0.042 A 
HETATM   33  C   UNL     1      30.741  46.816  40.043  1.00  0.00     0.003 A 
HETATM   34  C   UNL     1      31.564  47.938  40.185  1.00  0.00     0.007 A 
ENDBRANCH  27  28
ENDBRANCH   5  27
BRANCH   1  35
HETATM   35  C   UNL     1      28.852  52.717  41.601  1.00  0.00     0.140 C 
BRANCH  35  36
HETATM   36  C   UNL     1      28.024  52.413  40.341  1.00  0.00    -0.004 C 
HETATM   37  C   UNL     1      27.416  51.011  40.377  1.00  0.00     0.011 C 
HETATM   38  C   UNL     1      28.907  52.549  39.099  1.00  0.00     0.011 C 
ENDBRANCH  35  36
ENDBRANCH   1  35
TORSDOF 7
ENDMDL
