MODEL 1
REMARK VINA RESULT:      -9.7      0.000      0.000
REMARK  8 active torsions:
REMARK  status: ('A' for Active; 'I' for Inactive)
REMARK    1  A    between atoms: C_2  and  C_3 
REMARK    2  A    between atoms: C_3  and  N_4 
REMARK       I    between atoms: N_4  and  C_5 
REMARK    3  A    between atoms: C_5  and  C_6 
REMARK    4  A    between atoms: C_7  and  N_8 
REMARK    5  A    between atoms: N_11  and  C_12 
REMARK    6  A    between atoms: C_13  and  O_14 
REMARK    7  A    between atoms: C_24  and  N_25 
REMARK       I    between atoms: N_25  and  C_26 
REMARK       I    between atoms: C_26  and  N_27 
REMARK    8  A    between atoms: N_27  and  C_28 
ROOT
HETATM    1  C   UNL     1      23.926  45.075  50.019  1.00  0.00     0.060 A 
HETATM    2  C   UNL     1      24.997  45.594  50.778  1.00  0.00     0.046 A 
HETATM    3  C   UNL     1      25.196  46.981  50.698  1.00  0.00     0.032 A 
HETATM    4  C   UNL     1      24.393  47.805  49.897  1.00  0.00     0.032 A 
HETATM    5  C   UNL     1      23.354  47.273  49.139  1.00  0.00     0.037 A 
HETATM    6  C   UNL     1      23.122  45.899  49.204  1.00  0.00     0.049 A 
ENDROOT
BRANCH   2   7
HETATM    7  N   UNL     1      25.826  44.781  51.559  1.00  0.00    -0.377 N 
HETATM    8  C   UNL     1      25.581  44.853  53.022  1.00  0.00     0.143 C 
HETATM    9  C   UNL     1      26.252  43.654  53.733  1.00  0.00     0.143 C 
HETATM   10  N   UNL     1      27.690  43.554  53.413  1.00  0.00    -0.376 N 
HETATM   11  C   UNL     1      27.961  43.552  51.955  1.00  0.00     0.143 C 
HETATM   12  C   UNL     1      27.276  44.748  51.252  1.00  0.00     0.143 C 
BRANCH  10  13
HETATM   13  C   UNL     1      28.700  43.927  54.293  1.00  0.00     0.064 A 
HETATM   14  C   UNL     1      28.830  45.193  54.912  1.00  0.00     0.094 A 
HETATM   15  C   UNL     1      29.887  45.454  55.805  1.00  0.00     0.039 A 
HETATM   16  C   UNL     1      30.808  44.463  56.135  1.00  0.00     0.003 A 
HETATM   17  C   UNL     1      30.690  43.207  55.563  1.00  0.00     0.002 A 
HETATM   18  C   UNL     1      29.654  42.951  54.658  1.00  0.00     0.032 A 
BRANCH  14  19
HETATM   19  O   UNL     1      27.965  46.202  54.551  1.00  0.00    -0.354 OA
HETATM   20  C   UNL     1      27.627  47.100  55.605  1.00  0.00     0.210 C 
ENDBRANCH  14  19
ENDBRANCH  10  13
ENDBRANCH   2   7
BRANCH   1  21
HETATM   21  C   UNL     1      23.627  43.622  49.965  1.00  0.00     0.254 C 
HETATM   22  N   UNL     1      24.366  42.928  49.022  1.00  0.00    -0.353 N 
HETATM   23  H   UNL     1      24.886  43.464  48.339  1.00  0.00     0.163 HD
HETATM   24  O   UNL     1      22.829  43.102  50.733  1.00  0.00    -0.268 OA
BRANCH  22  25
HETATM   25  C   UNL     1      24.172  41.501  48.795  1.00  0.00     0.080 C 
HETATM   26  C   UNL     1      25.481  40.862  48.340  1.00  0.00     0.032 C 
BRANCH  25  27
HETATM   27  C   UNL     1      23.007  41.231  47.828  1.00  0.00     0.020 C 
HETATM   28  C   UNL     1      22.972  42.135  46.601  1.00  0.00     0.007 C 
ENDBRANCH  25  27
ENDBRANCH  22  25
ENDBRANCH   1  21
BRANCH   5  29
HETATM   29  N   UNL     1      22.562  48.040  48.259  1.00  0.00    -0.309 N 
HETATM   30  C   UNL     1      21.388  48.712  48.576  1.00  0.00     0.325 C 
HETATM   31  N   UNL     1      21.058  49.611  47.577  1.00  0.00    -0.307 N 
HETATM   32  O   UNL     1      20.750  48.541  49.607  1.00  0.00    -0.247 OA
HETATM   33  H   UNL     1      21.786  49.829  46.911  1.00  0.00     0.170 HD
HETATM   34  H   UNL     1      22.804  48.007  47.280  1.00  0.00     0.170 HD
BRANCH  31  35
HETATM   35  C   UNL     1      19.941  50.484  47.543  1.00  0.00     0.053 A 
HETATM   36  C   UNL     1      18.818  50.120  46.776  1.00  0.00     0.037 A 
HETATM   37 BR   UNL     1      18.769  48.481  45.809  1.00  0.00    -0.049 Br
HETATM   38  C   UNL     1      17.704  50.960  46.687  1.00  0.00     0.021 A 
HETATM   39  C   UNL     1      17.691  52.173  47.372  1.00  0.00     0.002 A 
HETATM   40  C   UNL     1      18.786  52.538  48.150  1.00  0.00     0.002 A 
HETATM   41  C   UNL     1      19.901  51.697  48.238  1.00  0.00     0.031 A 
ENDBRANCH  31  35
ENDBRANCH   5  29
TORSDOF 8
ENDMDL
MODEL 2
REMARK VINA RESULT:      -9.0      1.618      2.382
REMARK  8 active torsions:
REMARK  status: ('A' for Active; 'I' for Inactive)
REMARK    1  A    between atoms: C_2  and  C_3 
REMARK    2  A    between atoms: C_3  and  N_4 
REMARK       I    between atoms: N_4  and  C_5 
REMARK    3  A    between atoms: C_5  and  C_6 
REMARK    4  A    between atoms: C_7  and  N_8 
REMARK    5  A    between atoms: N_11  and  C_12 
REMARK    6  A    between atoms: C_13  and  O_14 
REMARK    7  A    between atoms: C_24  and  N_25 
REMARK       I    between atoms: N_25  and  C_26 
REMARK       I    between atoms: C_26  and  N_27 
REMARK    8  A    between atoms: N_27  and  C_28 
ROOT
HETATM    1  C   UNL     1      23.139  45.825  49.102  1.00  0.00     0.060 A 
HETATM    2  C   UNL     1      24.258  46.209  49.870  1.00  0.00     0.046 A 
HETATM    3  C   UNL     1      24.391  47.583  50.123  1.00  0.00     0.032 A 
HETATM    4  C   UNL     1      23.479  48.525  49.629  1.00  0.00     0.032 A 
HETATM    5  C   UNL     1      22.391  48.130  48.855  1.00  0.00     0.037 A 
HETATM    6  C   UNL     1      22.223  46.770  48.593  1.00  0.00     0.049 A 
ENDROOT
BRANCH   2   7
HETATM    7  N   UNL     1      25.195  45.285  50.346  1.00  0.00    -0.377 N 
HETATM    8  C   UNL     1      24.854  44.656  51.647  1.00  0.00     0.143 C 
HETATM    9  C   UNL     1      25.723  43.397  51.873  1.00  0.00     0.143 C 
HETATM   10  N   UNL     1      27.165  43.690  51.757  1.00  0.00    -0.376 N 
HETATM   11  C   UNL     1      27.516  44.382  50.494  1.00  0.00     0.143 C 
HETATM   12  C   UNL     1      26.634  45.633  50.271  1.00  0.00     0.143 C 
BRANCH  10  13
HETATM   13  C   UNL     1      28.018  43.795  52.851  1.00  0.00     0.064 A 
HETATM   14  C   UNL     1      29.155  42.988  53.091  1.00  0.00     0.094 A 
HETATM   15  C   UNL     1      29.962  43.197  54.227  1.00  0.00     0.039 A 
HETATM   16  C   UNL     1      29.687  44.229  55.120  1.00  0.00     0.003 A 
HETATM   17  C   UNL     1      28.595  45.051  54.896  1.00  0.00     0.002 A 
HETATM   18  C   UNL     1      27.779  44.831  53.781  1.00  0.00     0.032 A 
BRANCH  14  19
HETATM   19  O   UNL     1      29.406  41.925  52.252  1.00  0.00    -0.354 OA
HETATM   20  C   UNL     1      28.753  40.712  52.620  1.00  0.00     0.210 C 
ENDBRANCH  14  19
ENDBRANCH  10  13
ENDBRANCH   2   7
BRANCH   1  21
HETATM   21  C   UNL     1      22.895  44.414  48.710  1.00  0.00     0.254 C 
HETATM   22  N   UNL     1      23.733  43.953  47.708  1.00  0.00    -0.353 N 
HETATM   23  H   UNL     1      24.288  44.632  47.204  1.00  0.00     0.163 HD
HETATM   24  O   UNL     1      22.056  43.726  49.275  1.00  0.00    -0.268 OA
BRANCH  22  25
HETATM   25  C   UNL     1      23.607  42.607  47.164  1.00  0.00     0.080 C 
HETATM   26  C   UNL     1      22.294  42.472  46.398  1.00  0.00     0.032 C 
BRANCH  25  27
HETATM   27  C   UNL     1      23.776  41.533  48.253  1.00  0.00     0.020 C 
HETATM   28  C   UNL     1      25.196  41.383  48.787  1.00  0.00     0.007 C 
ENDBRANCH  25  27
ENDBRANCH  22  25
ENDBRANCH   1  21
BRANCH   5  29
HETATM   29  N   UNL     1      21.484  49.037  48.269  1.00  0.00    -0.309 N 
HETATM   30  C   UNL     1      20.245  49.409  48.774  1.00  0.00     0.325 C 
HETATM   31  N   UNL     1      19.775  50.539  48.127  1.00  0.00    -0.307 N 
HETATM   32  O   UNL     1      19.663  48.825  49.680  1.00  0.00    -0.247 OA
HETATM   33  H   UNL     1      20.450  51.056  47.582  1.00  0.00     0.170 HD
HETATM   34  H   UNL     1      21.700  49.363  47.339  1.00  0.00     0.170 HD
BRANCH  31  35
HETATM   35  C   UNL     1      18.556  51.223  48.368  1.00  0.00     0.053 A 
HETATM   36  C   UNL     1      17.481  51.026  47.481  1.00  0.00     0.037 A 
HETATM   37 BR   UNL     1      17.630  49.856  45.987  1.00  0.00    -0.049 Br
HETATM   38  C   UNL     1      16.269  51.700  47.660  1.00  0.00     0.021 A 
HETATM   39  C   UNL     1      16.109  52.572  48.734  1.00  0.00     0.002 A 
HETATM   40  C   UNL     1      17.157  52.761  49.631  1.00  0.00     0.002 A 
HETATM   41  C   UNL     1      18.370  52.087  49.452  1.00  0.00     0.031 A 
ENDBRANCH  31  35
ENDBRANCH   5  29
TORSDOF 8
ENDMDL
MODEL 3
REMARK VINA RESULT:      -8.9      1.339      2.064
REMARK  8 active torsions:
REMARK  status: ('A' for Active; 'I' for Inactive)
REMARK    1  A    between atoms: C_2  and  C_3 
REMARK    2  A    between atoms: C_3  and  N_4 
REMARK       I    between atoms: N_4  and  C_5 
REMARK    3  A    between atoms: C_5  and  C_6 
REMARK    4  A    between atoms: C_7  and  N_8 
REMARK    5  A    between atoms: N_11  and  C_12 
REMARK    6  A    between atoms: C_13  and  O_14 
REMARK    7  A    between atoms: C_24  and  N_25 
REMARK       I    between atoms: N_25  and  C_26 
REMARK       I    between atoms: C_26  and  N_27 
REMARK    8  A    between atoms: N_27  and  C_28 
ROOT
HETATM    1  C   UNL     1      23.366  45.021  49.645  1.00  0.00     0.060 A 
HETATM    2  C   UNL     1      24.371  45.697  50.369  1.00  0.00     0.046 A 
HETATM    3  C   UNL     1      24.413  47.091  50.211  1.00  0.00     0.032 A 
HETATM    4  C   UNL     1      23.525  47.774  49.369  1.00  0.00     0.032 A 
HETATM    5  C   UNL     1      22.553  47.087  48.646  1.00  0.00     0.037 A 
HETATM    6  C   UNL     1      22.476  45.703  48.789  1.00  0.00     0.049 A 
ENDROOT
BRANCH   2   7
HETATM    7  N   UNL     1      25.285  45.028  51.191  1.00  0.00    -0.377 N 
HETATM    8  C   UNL     1      24.924  44.986  52.630  1.00  0.00     0.143 C 
HETATM    9  C   UNL     1      25.764  43.910  53.358  1.00  0.00     0.143 C 
HETATM   10  N   UNL     1      27.213  44.104  53.152  1.00  0.00    -0.376 N 
HETATM   11  C   UNL     1      27.585  44.219  51.721  1.00  0.00     0.143 C 
HETATM   12  C   UNL     1      26.731  45.289  50.999  1.00  0.00     0.143 C 
BRANCH  10  13
HETATM   13  C   UNL     1      28.063  44.627  54.121  1.00  0.00     0.064 A 
HETATM   14  C   UNL     1      29.201  43.978  54.657  1.00  0.00     0.094 A 
HETATM   15  C   UNL     1      30.005  44.613  55.624  1.00  0.00     0.039 A 
HETATM   16  C   UNL     1      29.727  45.911  56.046  1.00  0.00     0.003 A 
HETATM   17  C   UNL     1      28.633  46.579  55.519  1.00  0.00     0.002 A 
HETATM   18  C   UNL     1      27.820  45.942  54.575  1.00  0.00     0.032 A 
BRANCH  14  19
HETATM   19  O   UNL     1      29.455  42.674  54.296  1.00  0.00    -0.354 OA
HETATM   20  C   UNL     1      30.420  42.522  53.258  1.00  0.00     0.210 C 
ENDBRANCH  14  19
ENDBRANCH  10  13
ENDBRANCH   2   7
BRANCH   1  21
HETATM   21  C   UNL     1      23.232  43.542  49.673  1.00  0.00     0.254 C 
HETATM   22  N   UNL     1      23.848  42.899  48.613  1.00  0.00    -0.353 N 
HETATM   23  H   UNL     1      24.160  43.462  47.833  1.00  0.00     0.163 HD
HETATM   24  O   UNL     1      22.664  42.967  50.591  1.00  0.00    -0.268 OA
BRANCH  22  25
HETATM   25  C   UNL     1      23.780  41.452  48.451  1.00  0.00     0.080 C 
HETATM   26  C   UNL     1      25.113  40.921  47.931  1.00  0.00     0.032 C 
BRANCH  25  27
HETATM   27  C   UNL     1      22.587  41.032  47.575  1.00  0.00     0.020 C 
HETATM   28  C   UNL     1      22.569  41.650  46.182  1.00  0.00     0.007 C 
ENDBRANCH  25  27
ENDBRANCH  22  25
ENDBRANCH   1  21
BRANCH   5  29
HETATM   29  N   UNL     1      21.682  47.712  47.729  1.00  0.00    -0.309 N 
HETATM   30  C   UNL     1      20.388  48.147  47.983  1.00  0.00     0.325 C 
HETATM   31  N   UNL     1      19.951  48.988  46.974  1.00  0.00    -0.307 N 
HETATM   32  O   UNL     1      19.736  47.840  48.973  1.00  0.00    -0.247 OA
HETATM   33  H   UNL     1      20.662  49.350  46.354  1.00  0.00     0.170 HD
HETATM   34  H   UNL     1      21.980  47.743  46.765  1.00  0.00     0.170 HD
BRANCH  31  35
HETATM   35  C   UNL     1      18.695  49.639  46.882  1.00  0.00     0.053 A 
HETATM   36  C   UNL     1      18.525  50.880  47.525  1.00  0.00     0.037 A 
HETATM   37 BR   UNL     1      19.946  51.698  48.491  1.00  0.00    -0.049 Br
HETATM   38  C   UNL     1      17.296  51.547  47.488  1.00  0.00     0.021 A 
HETATM   39  C   UNL     1      16.222  50.989  46.799  1.00  0.00     0.002 A 
HETATM   40  C   UNL     1      16.381  49.772  46.142  1.00  0.00     0.002 A 
HETATM   41  C   UNL     1      17.610  49.104  46.179  1.00  0.00     0.031 A 
ENDBRANCH  31  35
ENDBRANCH   5  29
TORSDOF 8
ENDMDL
MODEL 4
REMARK VINA RESULT:      -8.7      3.049     10.669
REMARK  8 active torsions:
REMARK  status: ('A' for Active; 'I' for Inactive)
REMARK    1  A    between atoms: C_2  and  C_3 
REMARK    2  A    between atoms: C_3  and  N_4 
REMARK       I    between atoms: N_4  and  C_5 
REMARK    3  A    between atoms: C_5  and  C_6 
REMARK    4  A    between atoms: C_7  and  N_8 
REMARK    5  A    between atoms: N_11  and  C_12 
REMARK    6  A    between atoms: C_13  and  O_14 
REMARK    7  A    between atoms: C_24  and  N_25 
REMARK       I    between atoms: N_25  and  C_26 
REMARK       I    between atoms: C_26  and  N_27 
REMARK    8  A    between atoms: N_27  and  C_28 
ROOT
HETATM    1  C   UNL     1      22.256  46.117  48.574  1.00  0.00     0.060 A 
HETATM    2  C   UNL     1      21.902  47.471  48.754  1.00  0.00     0.046 A 
HETATM    3  C   UNL     1      22.889  48.299  49.310  1.00  0.00     0.032 A 
HETATM    4  C   UNL     1      24.148  47.810  49.686  1.00  0.00     0.032 A 
HETATM    5  C   UNL     1      24.473  46.466  49.521  1.00  0.00     0.037 A 
HETATM    6  C   UNL     1      23.518  45.618  48.960  1.00  0.00     0.049 A 
ENDROOT
BRANCH   2   7
HETATM    7  N   UNL     1      20.640  47.969  48.412  1.00  0.00    -0.377 N 
HETATM    8  C   UNL     1      20.648  49.274  47.704  1.00  0.00     0.143 C 
HETATM    9  C   UNL     1      19.276  49.525  47.036  1.00  0.00     0.143 C 
HETATM   10  N   UNL     1      18.162  49.420  48.000  1.00  0.00    -0.376 N 
HETATM   11  C   UNL     1      18.177  48.152  48.767  1.00  0.00     0.143 C 
HETATM   12  C   UNL     1      19.557  47.904  49.422  1.00  0.00     0.143 C 
BRANCH  10  13
HETATM   13  C   UNL     1      17.487  50.521  48.517  1.00  0.00     0.064 A 
HETATM   14  C   UNL     1      16.108  50.794  48.356  1.00  0.00     0.094 A 
HETATM   15  C   UNL     1      15.525  51.934  48.943  1.00  0.00     0.039 A 
HETATM   16  C   UNL     1      16.280  52.800  49.731  1.00  0.00     0.003 A 
HETATM   17  C   UNL     1      17.627  52.543  49.925  1.00  0.00     0.002 A 
HETATM   18  C   UNL     1      18.214  51.423  49.325  1.00  0.00     0.032 A 
BRANCH  14  19
HETATM   19  O   UNL     1      15.361  49.983  47.531  1.00  0.00    -0.354 OA
HETATM   20  C   UNL     1      15.171  50.492  46.213  1.00  0.00     0.210 C 
ENDBRANCH  14  19
ENDBRANCH  10  13
ENDBRANCH   2   7
BRANCH   1  21
HETATM   21  C   UNL     1      21.299  45.113  48.045  1.00  0.00     0.254 C 
HETATM   22  N   UNL     1      21.409  44.889  46.684  1.00  0.00    -0.353 N 
HETATM   23  H   UNL     1      21.969  45.533  46.141  1.00  0.00     0.163 HD
HETATM   24  O   UNL     1      20.526  44.514  48.781  1.00  0.00    -0.268 OA
BRANCH  22  25
HETATM   25  C   UNL     1      20.519  43.971  45.984  1.00  0.00     0.080 C 
HETATM   26  C   UNL     1      21.333  43.001  45.132  1.00  0.00     0.032 C 
BRANCH  25  27
HETATM   27  C   UNL     1      19.448  44.722  45.173  1.00  0.00     0.020 C 
HETATM   28  C   UNL     1      19.669  46.226  45.063  1.00  0.00     0.007 C 
ENDBRANCH  25  27
ENDBRANCH  22  25
ENDBRANCH   1  21
BRANCH   5  29
HETATM   29  N   UNL     1      25.694  45.904  49.948  1.00  0.00    -0.309 N 
HETATM   30  C   UNL     1      25.904  45.163  51.103  1.00  0.00     0.325 C 
HETATM   31  N   UNL     1      27.121  44.505  51.045  1.00  0.00    -0.307 N 
HETATM   32  O   UNL     1      25.109  45.089  52.032  1.00  0.00    -0.247 OA
HETATM   33  H   UNL     1      27.559  44.453  50.136  1.00  0.00     0.170 HD
HETATM   34  H   UNL     1      26.521  46.159  49.427  1.00  0.00     0.170 HD
BRANCH  31  35
HETATM   35  C   UNL     1      27.681  43.647  52.025  1.00  0.00     0.053 A 
HETATM   36  C   UNL     1      27.489  42.259  51.900  1.00  0.00     0.037 A 
HETATM   37 BR   UNL     1      26.513  41.520  50.442  1.00  0.00    -0.049 Br
HETATM   38  C   UNL     1      27.997  41.373  52.855  1.00  0.00     0.021 A 
HETATM   39  C   UNL     1      28.714  41.861  53.945  1.00  0.00     0.002 A 
HETATM   40  C   UNL     1      28.929  43.231  54.071  1.00  0.00     0.002 A 
HETATM   41  C   UNL     1      28.420  44.117  53.115  1.00  0.00     0.031 A 
ENDBRANCH  31  35
ENDBRANCH   5  29
TORSDOF 8
ENDMDL
MODEL 5
REMARK VINA RESULT:      -8.6      2.664      5.479
REMARK  8 active torsions:
REMARK  status: ('A' for Active; 'I' for Inactive)
REMARK    1  A    between atoms: C_2  and  C_3 
REMARK    2  A    between atoms: C_3  and  N_4 
REMARK       I    between atoms: N_4  and  C_5 
REMARK    3  A    between atoms: C_5  and  C_6 
REMARK    4  A    between atoms: C_7  and  N_8 
REMARK    5  A    between atoms: N_11  and  C_12 
REMARK    6  A    between atoms: C_13  and  O_14 
REMARK    7  A    between atoms: C_24  and  N_25 
REMARK       I    between atoms: N_25  and  C_26 
REMARK       I    between atoms: C_26  and  N_27 
REMARK    8  A    between atoms: N_27  and  C_28 
ROOT
HETATM    1  C   UNL     1      25.146  45.425  51.515  1.00  0.00     0.060 A 
HETATM    2  C   UNL     1      25.364  44.389  50.581  1.00  0.00     0.046 A 
HETATM    3  C   UNL     1      24.852  44.602  49.292  1.00  0.00     0.032 A 
HETATM    4  C   UNL     1      24.147  45.765  48.951  1.00  0.00     0.032 A 
HETATM    5  C   UNL     1      23.924  46.767  49.892  1.00  0.00     0.037 A 
HETATM    6  C   UNL     1      24.429  46.592  51.180  1.00  0.00     0.049 A 
ENDROOT
BRANCH   2   7
HETATM    7  N   UNL     1      26.039  43.209  50.913  1.00  0.00    -0.377 N 
HETATM    8  C   UNL     1      27.520  43.292  50.850  1.00  0.00     0.143 C 
HETATM    9  C   UNL     1      28.153  42.098  51.602  1.00  0.00     0.143 C 
HETATM   10  N   UNL     1      27.646  40.802  51.110  1.00  0.00    -0.376 N 
HETATM   11  C   UNL     1      26.165  40.724  51.099  1.00  0.00     0.143 C 
HETATM   12  C   UNL     1      25.542  41.929  50.355  1.00  0.00     0.143 C 
BRANCH  10  13
HETATM   13  C   UNL     1      28.378  39.953  50.286  1.00  0.00     0.064 A 
HETATM   14  C   UNL     1      28.616  40.147  48.905  1.00  0.00     0.094 A 
HETATM   15  C   UNL     1      29.392  39.228  48.170  1.00  0.00     0.039 A 
HETATM   16  C   UNL     1      29.980  38.129  48.792  1.00  0.00     0.003 A 
HETATM   17  C   UNL     1      29.783  37.929  50.148  1.00  0.00     0.002 A 
HETATM   18  C   UNL     1      28.995  38.828  50.875  1.00  0.00     0.032 A 
BRANCH  14  19
HETATM   19  O   UNL     1      27.993  41.194  48.262  1.00  0.00    -0.354 OA
HETATM   20  C   UNL     1      27.137  40.807  47.190  1.00  0.00     0.210 C 
ENDBRANCH  14  19
ENDBRANCH  10  13
ENDBRANCH   2   7
BRANCH   1  21
HETATM   21  C   UNL     1      25.584  45.318  52.930  1.00  0.00     0.254 C 
HETATM   22  N   UNL     1      26.715  46.059  53.228  1.00  0.00    -0.353 N 
HETATM   23  H   UNL     1      27.248  46.441  52.458  1.00  0.00     0.163 HD
HETATM   24  O   UNL     1      24.951  44.667  53.750  1.00  0.00    -0.268 OA
BRANCH  22  25
HETATM   25  C   UNL     1      27.315  46.038  54.556  1.00  0.00     0.080 C 
HETATM   26  C   UNL     1      27.855  47.422  54.907  1.00  0.00     0.032 C 
BRANCH  25  27
HETATM   27  C   UNL     1      28.378  44.933  54.684  1.00  0.00     0.020 C 
HETATM   28  C   UNL     1      29.473  45.215  55.705  1.00  0.00     0.007 C 
ENDBRANCH  25  27
ENDBRANCH  22  25
ENDBRANCH   1  21
BRANCH   5  29
HETATM   29  N   UNL     1      23.159  47.923  49.628  1.00  0.00    -0.309 N 
HETATM   30  C   UNL     1      22.054  48.010  48.791  1.00  0.00     0.325 C 
HETATM   31  N   UNL     1      21.367  49.190  49.014  1.00  0.00    -0.307 N 
HETATM   32  O   UNL     1      21.728  47.149  47.983  1.00  0.00    -0.247 OA
HETATM   33  H   UNL     1      21.594  49.688  49.864  1.00  0.00     0.170 HD
HETATM   34  H   UNL     1      23.513  48.797  49.988  1.00  0.00     0.170 HD
BRANCH  31  35
HETATM   35  C   UNL     1      20.186  49.632  48.366  1.00  0.00     0.053 A 
HETATM   36  C   UNL     1      18.949  49.457  49.014  1.00  0.00     0.037 A 
HETATM   37 BR   UNL     1      18.839  48.658  50.739  1.00  0.00    -0.049 Br
HETATM   38  C   UNL     1      17.754  49.850  48.404  1.00  0.00     0.021 A 
HETATM   39  C   UNL     1      17.778  50.434  47.140  1.00  0.00     0.002 A 
HETATM   40  C   UNL     1      18.995  50.633  46.495  1.00  0.00     0.002 A 
HETATM   41  C   UNL     1      20.191  50.239  47.106  1.00  0.00     0.031 A 
ENDBRANCH  31  35
ENDBRANCH   5  29
TORSDOF 8
ENDMDL
MODEL 6
REMARK VINA RESULT:      -8.6      2.465      2.983
REMARK  8 active torsions:
REMARK  status: ('A' for Active; 'I' for Inactive)
REMARK    1  A    between atoms: C_2  and  C_3 
REMARK    2  A    between atoms: C_3  and  N_4 
REMARK       I    between atoms: N_4  and  C_5 
REMARK    3  A    between atoms: C_5  and  C_6 
REMARK    4  A    between atoms: C_7  and  N_8 
REMARK    5  A    between atoms: N_11  and  C_12 
REMARK    6  A    between atoms: C_13  and  O_14 
REMARK    7  A    between atoms: C_24  and  N_25 
REMARK       I    between atoms: N_25  and  C_26 
REMARK       I    between atoms: C_26  and  N_27 
REMARK    8  A    between atoms: N_27  and  C_28 
ROOT
HETATM    1  C   UNL     1      25.268  43.381  49.829  1.00  0.00     0.060 A 
HETATM    2  C   UNL     1      25.749  44.122  50.930  1.00  0.00     0.046 A 
HETATM    3  C   UNL     1      25.194  45.398  51.105  1.00  0.00     0.032 A 
HETATM    4  C   UNL     1      24.233  45.921  50.229  1.00  0.00     0.032 A 
HETATM    5  C   UNL     1      23.785  45.184  49.136  1.00  0.00     0.037 A 
HETATM    6  C   UNL     1      24.308  43.906  48.939  1.00  0.00     0.049 A 
ENDROOT
BRANCH   2   7
HETATM    7  N   UNL     1      26.730  43.627  51.797  1.00  0.00    -0.377 N 
HETATM    8  C   UNL     1      26.332  43.558  53.225  1.00  0.00     0.143 C 
HETATM    9  C   UNL     1      27.309  42.649  54.007  1.00  0.00     0.143 C 
HETATM   10  N   UNL     1      28.713  43.071  53.840  1.00  0.00    -0.376 N 
HETATM   11  C   UNL     1      29.111  43.213  52.419  1.00  0.00     0.143 C 
HETATM   12  C   UNL     1      28.121  44.115  51.642  1.00  0.00     0.143 C 
BRANCH  10  13
HETATM   13  C   UNL     1      29.435  43.746  54.819  1.00  0.00     0.064 A 
HETATM   14  C   UNL     1      29.174  45.059  55.278  1.00  0.00     0.094 A 
HETATM   15  C   UNL     1      29.962  45.637  56.293  1.00  0.00     0.039 A 
HETATM   16  C   UNL     1      30.988  44.919  56.901  1.00  0.00     0.003 A 
HETATM   17  C   UNL     1      31.249  43.623  56.488  1.00  0.00     0.002 A 
HETATM   18  C   UNL     1      30.483  43.054  55.464  1.00  0.00     0.032 A 
BRANCH  14  19
HETATM   19  O   UNL     1      28.203  45.804  54.648  1.00  0.00    -0.354 OA
HETATM   20  C   UNL     1      28.123  47.161  55.078  1.00  0.00     0.210 C 
ENDBRANCH  14  19
ENDBRANCH  10  13
ENDBRANCH   2   7
BRANCH   1  21
HETATM   21  C   UNL     1      25.799  42.037  49.488  1.00  0.00     0.254 C 
HETATM   22  N   UNL     1      26.811  42.052  48.543  1.00  0.00    -0.353 N 
HETATM   23  H   UNL     1      26.972  42.912  48.035  1.00  0.00     0.163 HD
HETATM   24  O   UNL     1      25.393  41.027  50.047  1.00  0.00    -0.268 OA
BRANCH  22  25
HETATM   25  C   UNL     1      27.419  40.822  48.052  1.00  0.00     0.080 C 
HETATM   26  C   UNL     1      28.500  40.350  49.021  1.00  0.00     0.032 C 
BRANCH  25  27
HETATM   27  C   UNL     1      27.935  40.977  46.611  1.00  0.00     0.020 C 
HETATM   28  C   UNL     1      27.780  39.736  45.740  1.00  0.00     0.007 C 
ENDBRANCH  25  27
ENDBRANCH  22  25
ENDBRANCH   1  21
BRANCH   5  29
HETATM   29  N   UNL     1      22.876  45.686  48.181  1.00  0.00    -0.309 N 
HETATM   30  C   UNL     1      21.496  45.535  48.195  1.00  0.00     0.325 C 
HETATM   31  N   UNL     1      20.902  46.412  47.303  1.00  0.00    -0.307 N 
HETATM   32  O   UNL     1      20.892  44.748  48.912  1.00  0.00    -0.247 OA
HETATM   33  H   UNL     1      21.483  47.166  46.962  1.00  0.00     0.170 HD
HETATM   34  H   UNL     1      23.270  46.094  47.346  1.00  0.00     0.170 HD
BRANCH  31  35
HETATM   35  C   UNL     1      19.517  46.565  47.042  1.00  0.00     0.053 A 
HETATM   36  C   UNL     1      18.974  45.969  45.889  1.00  0.00     0.037 A 
HETATM   37 BR   UNL     1      20.056  44.956  44.694  1.00  0.00    -0.049 Br
HETATM   38  C   UNL     1      17.620  46.114  45.573  1.00  0.00     0.021 A 
HETATM   39  C   UNL     1      16.785  46.850  46.410  1.00  0.00     0.002 A 
HETATM   40  C   UNL     1      17.303  47.429  47.565  1.00  0.00     0.002 A 
HETATM   41  C   UNL     1      18.659  47.283  47.881  1.00  0.00     0.031 A 
ENDBRANCH  31  35
ENDBRANCH   5  29
TORSDOF 8
ENDMDL
MODEL 7
REMARK VINA RESULT:      -8.3      2.488      4.574
REMARK  8 active torsions:
REMARK  status: ('A' for Active; 'I' for Inactive)
REMARK    1  A    between atoms: C_2  and  C_3 
REMARK    2  A    between atoms: C_3  and  N_4 
REMARK       I    between atoms: N_4  and  C_5 
REMARK    3  A    between atoms: C_5  and  C_6 
REMARK    4  A    between atoms: C_7  and  N_8 
REMARK    5  A    between atoms: N_11  and  C_12 
REMARK    6  A    between atoms: C_13  and  O_14 
REMARK    7  A    between atoms: C_24  and  N_25 
REMARK       I    between atoms: N_25  and  C_26 
REMARK       I    between atoms: C_26  and  N_27 
REMARK    8  A    between atoms: N_27  and  C_28 
ROOT
HETATM    1  C   UNL     1      23.144  46.625  49.088  1.00  0.00     0.060 A 
HETATM    2  C   UNL     1      23.646  45.380  49.522  1.00  0.00     0.046 A 
HETATM    3  C   UNL     1      22.887  44.252  49.174  1.00  0.00     0.032 A 
HETATM    4  C   UNL     1      21.689  44.352  48.454  1.00  0.00     0.032 A 
HETATM    5  C   UNL     1      21.197  45.592  48.052  1.00  0.00     0.037 A 
HETATM    6  C   UNL     1      21.934  46.732  48.372  1.00  0.00     0.049 A 
ENDROOT
BRANCH   2   7
HETATM    7  N   UNL     1      24.826  45.264  50.267  1.00  0.00    -0.377 N 
HETATM    8  C   UNL     1      25.939  44.563  49.579  1.00  0.00     0.143 C 
HETATM    9  C   UNL     1      27.274  44.841  50.309  1.00  0.00     0.143 C 
HETATM   10  N   UNL     1      27.203  44.500  51.744  1.00  0.00    -0.376 N 
HETATM   11  C   UNL     1      26.055  45.135  52.434  1.00  0.00     0.143 C 
HETATM   12  C   UNL     1      24.726  44.862  51.691  1.00  0.00     0.143 C 
BRANCH  10  13
HETATM   13  C   UNL     1      27.782  43.360  52.292  1.00  0.00     0.064 A 
HETATM   14  C   UNL     1      28.519  43.309  53.499  1.00  0.00     0.094 A 
HETATM   15  C   UNL     1      29.046  42.090  53.971  1.00  0.00     0.039 A 
HETATM   16  C   UNL     1      28.819  40.899  53.286  1.00  0.00     0.003 A 
HETATM   17  C   UNL     1      28.079  40.917  52.115  1.00  0.00     0.002 A 
HETATM   18  C   UNL     1      27.574  42.129  51.632  1.00  0.00     0.032 A 
BRANCH  14  19
HETATM   19  O   UNL     1      28.805  44.485  54.156  1.00  0.00    -0.354 OA
HETATM   20  C   UNL     1      29.741  44.357  55.223  1.00  0.00     0.210 C 
ENDBRANCH  14  19
ENDBRANCH  10  13
ENDBRANCH   2   7
BRANCH   1  21
HETATM   21  C   UNL     1      23.812  47.908  49.426  1.00  0.00     0.254 C 
HETATM   22  N   UNL     1      23.803  48.836  48.399  1.00  0.00    -0.353 N 
HETATM   23  H   UNL     1      23.532  48.521  47.477  1.00  0.00     0.163 HD
HETATM   24  O   UNL     1      24.275  48.116  50.539  1.00  0.00    -0.268 OA
BRANCH  22  25
HETATM   25  C   UNL     1      24.453  50.134  48.535  1.00  0.00     0.080 C 
HETATM   26  C   UNL     1      23.521  51.239  48.044  1.00  0.00     0.032 C 
BRANCH  25  27
HETATM   27  C   UNL     1      25.826  50.159  47.842  1.00  0.00     0.020 C 
HETATM   28  C   UNL     1      26.963  49.552  48.656  1.00  0.00     0.007 C 
ENDBRANCH  25  27
ENDBRANCH  22  25
ENDBRANCH   1  21
BRANCH   5  29
HETATM   29  N   UNL     1      19.962  45.760  47.392  1.00  0.00    -0.309 N 
HETATM   30  C   UNL     1      19.046  46.783  47.601  1.00  0.00     0.325 C 
HETATM   31  N   UNL     1      18.117  46.820  46.575  1.00  0.00    -0.307 N 
HETATM   32  O   UNL     1      19.073  47.552  48.553  1.00  0.00    -0.247 OA
HETATM   33  H   UNL     1      18.349  46.300  45.740  1.00  0.00     0.170 HD
HETATM   34  H   UNL     1      19.659  45.007  46.792  1.00  0.00     0.170 HD
BRANCH  31  35
HETATM   35  C   UNL     1      17.035  47.725  46.429  1.00  0.00     0.053 A 
HETATM   36  C   UNL     1      16.950  48.496  45.254  1.00  0.00     0.037 A 
HETATM   37 BR   UNL     1      18.241  48.331  43.865  1.00  0.00    -0.049 Br
HETATM   38  C   UNL     1      15.918  49.423  45.075  1.00  0.00     0.021 A 
HETATM   39  C   UNL     1      14.951  49.587  46.063  1.00  0.00     0.002 A 
HETATM   40  C   UNL     1      15.011  48.817  47.221  1.00  0.00     0.002 A 
HETATM   41  C   UNL     1      16.043  47.890  47.401  1.00  0.00     0.031 A 
ENDBRANCH  31  35
ENDBRANCH   5  29
TORSDOF 8
ENDMDL
MODEL 8
REMARK VINA RESULT:      -8.3      3.125     11.520
REMARK  8 active torsions:
REMARK  status: ('A' for Active; 'I' for Inactive)
REMARK    1  A    between atoms: C_2  and  C_3 
REMARK    2  A    between atoms: C_3  and  N_4 
REMARK       I    between atoms: N_4  and  C_5 
REMARK    3  A    between atoms: C_5  and  C_6 
REMARK    4  A    between atoms: C_7  and  N_8 
REMARK    5  A    between atoms: N_11  and  C_12 
REMARK    6  A    between atoms: C_13  and  O_14 
REMARK    7  A    between atoms: C_24  and  N_25 
REMARK       I    between atoms: N_25  and  C_26 
REMARK       I    between atoms: C_26  and  N_27 
REMARK    8  A    between atoms: N_27  and  C_28 
ROOT
HETATM    1  C   UNL     1      22.286  46.957  48.688  1.00  0.00     0.060 A 
HETATM    2  C   UNL     1      21.284  46.011  48.382  1.00  0.00     0.046 A 
HETATM    3  C   UNL     1      21.623  44.665  48.588  1.00  0.00     0.032 A 
HETATM    4  C   UNL     1      22.888  44.275  49.049  1.00  0.00     0.032 A 
HETATM    5  C   UNL     1      23.871  45.222  49.326  1.00  0.00     0.037 A 
HETATM    6  C   UNL     1      23.563  46.569  49.143  1.00  0.00     0.049 A 
ENDROOT
BRANCH   2   7
HETATM    7  N   UNL     1      20.026  46.380  47.892  1.00  0.00    -0.377 N 
HETATM    8  C   UNL     1      20.021  46.907  46.504  1.00  0.00     0.143 C 
HETATM    9  C   UNL     1      18.582  46.901  45.938  1.00  0.00     0.143 C 
HETATM   10  N   UNL     1      17.640  47.627  46.813  1.00  0.00    -0.376 N 
HETATM   11  C   UNL     1      17.680  47.163  48.220  1.00  0.00     0.143 C 
HETATM   12  C   UNL     1      19.125  47.161  48.774  1.00  0.00     0.143 C 
BRANCH  10  13
HETATM   13  C   UNL     1      17.152  48.899  46.529  1.00  0.00     0.064 A 
HETATM   14  C   UNL     1      15.797  49.300  46.613  1.00  0.00     0.094 A 
HETATM   15  C   UNL     1      15.418  50.625  46.319  1.00  0.00     0.039 A 
HETATM   16  C   UNL     1      16.369  51.584  45.980  1.00  0.00     0.003 A 
HETATM   17  C   UNL     1      17.705  51.224  45.914  1.00  0.00     0.002 A 
HETATM   18  C   UNL     1      18.082  49.904  46.184  1.00  0.00     0.032 A 
BRANCH  14  19
HETATM   19  O   UNL     1      14.837  48.352  46.888  1.00  0.00    -0.354 OA
HETATM   20  C   UNL     1      13.865  48.176  45.860  1.00  0.00     0.210 C 
ENDBRANCH  14  19
ENDBRANCH  10  13
ENDBRANCH   2   7
BRANCH   1  21
HETATM   21  C   UNL     1      22.090  48.413  48.472  1.00  0.00     0.254 C 
HETATM   22  N   UNL     1      21.564  49.080  49.564  1.00  0.00    -0.353 N 
HETATM   23  H   UNL     1      21.186  48.526  50.322  1.00  0.00     0.163 HD
HETATM   24  O   UNL     1      22.422  48.956  47.427  1.00  0.00    -0.268 OA
BRANCH  22  25
HETATM   25  C   UNL     1      21.260  50.505  49.518  1.00  0.00     0.080 C 
HETATM   26  C   UNL     1      21.532  51.141  50.879  1.00  0.00     0.032 C 
BRANCH  25  27
HETATM   27  C   UNL     1      19.832  50.768  49.010  1.00  0.00     0.020 C 
HETATM   28  C   UNL     1      19.105  51.909  49.712  1.00  0.00     0.007 C 
ENDBRANCH  25  27
ENDBRANCH  22  25
ENDBRANCH   1  21
BRANCH   5  29
HETATM   29  N   UNL     1      25.183  44.886  49.721  1.00  0.00    -0.309 N 
HETATM   30  C   UNL     1      25.579  44.440  50.975  1.00  0.00     0.325 C 
HETATM   31  N   UNL     1      26.855  43.904  50.920  1.00  0.00    -0.307 N 
HETATM   32  O   UNL     1      24.885  44.497  51.982  1.00  0.00    -0.247 OA
HETATM   33  H   UNL     1      27.213  43.695  49.999  1.00  0.00     0.170 HD
HETATM   34  H   UNL     1      25.925  45.098  49.070  1.00  0.00     0.170 HD
BRANCH  31  35
HETATM   35  C   UNL     1      27.596  43.340  51.988  1.00  0.00     0.053 A 
HETATM   36  C   UNL     1      27.640  41.939  52.118  1.00  0.00     0.037 A 
HETATM   37 BR   UNL     1      26.743  40.801  50.883  1.00  0.00    -0.049 Br
HETATM   38  C   UNL     1      28.334  41.334  53.171  1.00  0.00     0.021 A 
HETATM   39  C   UNL     1      29.003  42.121  54.105  1.00  0.00     0.002 A 
HETATM   40  C   UNL     1      28.985  43.507  53.979  1.00  0.00     0.002 A 
HETATM   41  C   UNL     1      28.291  44.112  52.925  1.00  0.00     0.031 A 
ENDBRANCH  31  35
ENDBRANCH   5  29
TORSDOF 8
ENDMDL
MODEL 9
REMARK VINA RESULT:      -8.2      3.874     11.385
REMARK  8 active torsions:
REMARK  status: ('A' for Active; 'I' for Inactive)
REMARK    1  A    between atoms: C_2  and  C_3 
REMARK    2  A    between atoms: C_3  and  N_4 
REMARK       I    between atoms: N_4  and  C_5 
REMARK    3  A    between atoms: C_5  and  C_6 
REMARK    4  A    between atoms: C_7  and  N_8 
REMARK    5  A    between atoms: N_11  and  C_12 
REMARK    6  A    between atoms: C_13  and  O_14 
REMARK    7  A    between atoms: C_24  and  N_25 
REMARK       I    between atoms: N_25  and  C_26 
REMARK       I    between atoms: C_26  and  N_27 
REMARK    8  A    between atoms: N_27  and  C_28 
ROOT
HETATM    1  C   UNL     1      22.818  47.128  48.715  1.00  0.00     0.060 A 
HETATM    2  C   UNL     1      21.883  46.157  48.298  1.00  0.00     0.046 A 
HETATM    3  C   UNL     1      22.261  44.818  48.480  1.00  0.00     0.032 A 
HETATM    4  C   UNL     1      23.501  44.459  49.024  1.00  0.00     0.032 A 
HETATM    5  C   UNL     1      24.421  45.431  49.411  1.00  0.00     0.037 A 
HETATM    6  C   UNL     1      24.072  46.772  49.254  1.00  0.00     0.049 A 
ENDROOT
BRANCH   2   7
HETATM    7  N   UNL     1      20.652  46.497  47.725  1.00  0.00    -0.377 N 
HETATM    8  C   UNL     1      19.484  45.745  48.250  1.00  0.00     0.143 C 
HETATM    9  C   UNL     1      18.171  46.460  47.855  1.00  0.00     0.143 C 
HETATM   10  N   UNL     1      18.079  46.688  46.400  1.00  0.00    -0.376 N 
HETATM   11  C   UNL     1      19.269  47.376  45.845  1.00  0.00     0.143 C 
HETATM   12  C   UNL     1      20.578  46.661  46.254  1.00  0.00     0.143 C 
BRANCH  10  13
HETATM   13  C   UNL     1      17.271  45.935  45.553  1.00  0.00     0.064 A 
HETATM   14  C   UNL     1      17.400  44.547  45.308  1.00  0.00     0.094 A 
HETATM   15  C   UNL     1      16.510  43.882  44.443  1.00  0.00     0.039 A 
HETATM   16  C   UNL     1      15.455  44.562  43.839  1.00  0.00     0.003 A 
HETATM   17  C   UNL     1      15.291  45.916  44.081  1.00  0.00     0.002 A 
HETATM   18  C   UNL     1      16.187  46.584  44.922  1.00  0.00     0.032 A 
BRANCH  14  19
HETATM   19  O   UNL     1      18.472  43.873  45.848  1.00  0.00    -0.354 OA
HETATM   20  C   UNL     1      19.407  43.381  44.891  1.00  0.00     0.210 C 
ENDBRANCH  14  19
ENDBRANCH  10  13
ENDBRANCH   2   7
BRANCH   1  21
HETATM   21  C   UNL     1      22.580  48.583  48.537  1.00  0.00     0.254 C 
HETATM   22  N   UNL     1      21.742  49.138  49.489  1.00  0.00    -0.353 N 
HETATM   23  H   UNL     1      21.223  48.510  50.089  1.00  0.00     0.163 HD
HETATM   24  O   UNL     1      23.129  49.219  47.648  1.00  0.00    -0.268 OA
BRANCH  22  25
HETATM   25  C   UNL     1      21.358  50.544  49.446  1.00  0.00     0.080 C 
HETATM   26  C   UNL     1      21.575  51.187  50.813  1.00  0.00     0.032 C 
BRANCH  25  27
HETATM   27  C   UNL     1      19.924  50.727  48.920  1.00  0.00     0.020 C 
HETATM   28  C   UNL     1      19.550  52.163  48.573  1.00  0.00     0.007 C 
ENDBRANCH  25  27
ENDBRANCH  22  25
ENDBRANCH   1  21
BRANCH   5  29
HETATM   29  N   UNL     1      25.711  45.131  49.894  1.00  0.00    -0.309 N 
HETATM   30  C   UNL     1      26.032  44.674  51.166  1.00  0.00     0.325 C 
HETATM   31  N   UNL     1      27.325  44.182  51.194  1.00  0.00    -0.307 N 
HETATM   32  O   UNL     1      25.265  44.690  52.121  1.00  0.00    -0.247 OA
HETATM   33  H   UNL     1      27.756  44.002  50.298  1.00  0.00     0.170 HD
HETATM   34  H   UNL     1      26.490  45.379  49.302  1.00  0.00     0.170 HD
BRANCH  31  35
HETATM   35  C   UNL     1      28.007  43.621  52.304  1.00  0.00     0.053 A 
HETATM   36  C   UNL     1      28.222  42.231  52.337  1.00  0.00     0.037 A 
HETATM   37 BR   UNL     1      27.633  41.104  50.920  1.00  0.00    -0.049 Br
HETATM   38  C   UNL     1      28.863  41.627  53.423  1.00  0.00     0.021 A 
HETATM   39  C   UNL     1      29.309  42.405  54.488  1.00  0.00     0.002 A 
HETATM   40  C   UNL     1      29.121  43.784  54.461  1.00  0.00     0.002 A 
HETATM   41  C   UNL     1      28.479  44.388  53.374  1.00  0.00     0.031 A 
ENDBRANCH  31  35
ENDBRANCH   5  29
TORSDOF 8
ENDMDL
MODEL 10
REMARK VINA RESULT:      -8.1      4.166     11.346
REMARK  8 active torsions:
REMARK  status: ('A' for Active; 'I' for Inactive)
REMARK    1  A    between atoms: C_2  and  C_3 
REMARK    2  A    between atoms: C_3  and  N_4 
REMARK       I    between atoms: N_4  and  C_5 
REMARK    3  A    between atoms: C_5  and  C_6 
REMARK    4  A    between atoms: C_7  and  N_8 
REMARK    5  A    between atoms: N_11  and  C_12 
REMARK    6  A    between atoms: C_13  and  O_14 
REMARK    7  A    between atoms: C_24  and  N_25 
REMARK       I    between atoms: N_25  and  C_26 
REMARK       I    between atoms: C_26  and  N_27 
REMARK    8  A    between atoms: N_27  and  C_28 
ROOT
HETATM    1  C   UNL     1      22.774  46.806  48.624  1.00  0.00     0.060 A 
HETATM    2  C   UNL     1      22.326  45.665  47.926  1.00  0.00     0.046 A 
HETATM    3  C   UNL     1      23.061  44.487  48.131  1.00  0.00     0.032 A 
HETATM    4  C   UNL     1      24.187  44.446  48.965  1.00  0.00     0.032 A 
HETATM    5  C   UNL     1      24.627  45.587  49.630  1.00  0.00     0.037 A 
HETATM    6  C   UNL     1      23.913  46.772  49.457  1.00  0.00     0.049 A 
ENDROOT
BRANCH   2   7
HETATM    7  N   UNL     1      21.222  45.696  47.066  1.00  0.00    -0.377 N 
HETATM    8  C   UNL     1      20.029  44.955  47.548  1.00  0.00     0.143 C 
HETATM    9  C   UNL     1      18.779  45.380  46.742  1.00  0.00     0.143 C 
HETATM   10  N   UNL     1      18.979  45.230  45.287  1.00  0.00    -0.376 N 
HETATM   11  C   UNL     1      20.205  45.904  44.798  1.00  0.00     0.143 C 
HETATM   12  C   UNL     1      21.448  45.482  45.617  1.00  0.00     0.143 C 
BRANCH  10  13
HETATM   13  C   UNL     1      18.425  44.196  44.538  1.00  0.00     0.064 A 
HETATM   14  C   UNL     1      17.312  44.310  43.672  1.00  0.00     0.094 A 
HETATM   15  C   UNL     1      16.847  43.196  42.945  1.00  0.00     0.039 A 
HETATM   16  C   UNL     1      17.495  41.967  43.026  1.00  0.00     0.003 A 
HETATM   17  C   UNL     1      18.603  41.834  43.847  1.00  0.00     0.002 A 
HETATM   18  C   UNL     1      19.053  42.932  44.587  1.00  0.00     0.032 A 
BRANCH  14  19
HETATM   19  O   UNL     1      16.622  45.501  43.627  1.00  0.00    -0.354 OA
HETATM   20  C   UNL     1      15.236  45.398  43.944  1.00  0.00     0.210 C 
ENDBRANCH  14  19
ENDBRANCH  10  13
ENDBRANCH   2   7
BRANCH   1  21
HETATM   21  C   UNL     1      22.129  48.134  48.466  1.00  0.00     0.254 C 
HETATM   22  N   UNL     1      21.237  48.453  49.476  1.00  0.00    -0.353 N 
HETATM   23  H   UNL     1      20.955  47.716  50.110  1.00  0.00     0.163 HD
HETATM   24  O   UNL     1      22.417  48.881  47.541  1.00  0.00    -0.268 OA
BRANCH  22  25
HETATM   25  C   UNL     1      20.475  49.695  49.461  1.00  0.00     0.080 C 
HETATM   26  C   UNL     1      21.323  50.835  50.020  1.00  0.00     0.032 C 
BRANCH  25  27
HETATM   27  C   UNL     1      19.125  49.545  50.185  1.00  0.00     0.020 C 
HETATM   28  C   UNL     1      18.354  48.277  49.840  1.00  0.00     0.007 C 
ENDBRANCH  25  27
ENDBRANCH  22  25
ENDBRANCH   1  21
BRANCH   5  29
HETATM   29  N   UNL     1      25.794  45.623  50.422  1.00  0.00    -0.309 N 
HETATM   30  C   UNL     1      26.182  44.681  51.366  1.00  0.00     0.325 C 
HETATM   31  N   UNL     1      27.511  44.859  51.712  1.00  0.00    -0.307 N 
HETATM   32  O   UNL     1      25.451  43.806  51.811  1.00  0.00    -0.247 OA
HETATM   33  H   UNL     1      28.059  45.447  51.100  1.00  0.00     0.170 HD
HETATM   34  H   UNL     1      26.345  46.468  50.385  1.00  0.00     0.170 HD
BRANCH  31  35
HETATM   35  C   UNL     1      28.268  44.091  52.632  1.00  0.00     0.053 A 
HETATM   36  C   UNL     1      28.384  44.543  53.960  1.00  0.00     0.037 A 
HETATM   37 BR   UNL     1      27.533  46.145  54.538  1.00  0.00    -0.049 Br
HETATM   38  C   UNL     1      29.143  43.837  54.898  1.00  0.00     0.021 A 
HETATM   39  C   UNL     1      29.791  42.661  54.525  1.00  0.00     0.002 A 
HETATM   40  C   UNL     1      29.669  42.191  53.220  1.00  0.00     0.002 A 
HETATM   41  C   UNL     1      28.909  42.898  52.282  1.00  0.00     0.031 A 
ENDBRANCH  31  35
ENDBRANCH   5  29
TORSDOF 8
ENDMDL
