MODEL 1
REMARK VINA RESULT:      -8.6      0.000      0.000
REMARK  5 active torsions:
REMARK  status: ('A' for Active; 'I' for Inactive)
REMARK    1  A    between atoms: C_6  and  C_7 
REMARK    2  A    between atoms: C_7  and  C_8 
REMARK    3  A    between atoms: C_8  and  C_9 
REMARK    4  A    between atoms: C_9  and  N_10 
REMARK    5  A    between atoms: C_9  and  C_14 
ROOT
HETATM    1  C   UNL     1      27.579  41.724  52.783  1.00  0.00     0.253 C 
ENDROOT
BRANCH   1   2
HETATM    2  C   UNL     1      29.105  41.566  52.951  1.00  0.00     0.048 C 
BRANCH   2   3
HETATM    3  C   UNL     1      29.945  42.850  52.923  1.00  0.00     0.081 C 
BRANCH   3   4
HETATM    4  C   UNL     1      30.038  43.479  54.267  1.00  0.00     0.105 A 
HETATM    5  N   UNL     1      29.351  44.540  54.647  1.00  0.00    -0.233 NA
HETATM    6  C   UNL     1      29.815  44.832  55.913  1.00  0.00     0.085 A 
HETATM    7  C   UNL     1      30.786  43.918  56.306  1.00  0.00     0.062 A 
HETATM    8  C   UNL     1      29.465  45.878  56.779  1.00  0.00     0.034 A 
HETATM    9  C   UNL     1      31.448  43.983  57.533  1.00  0.00     0.032 A 
HETATM   10  N   UNL     1      30.885  43.043  55.255  1.00  0.00    -0.343 N 
HETATM   11  C   UNL     1      31.093  45.038  58.381  1.00  0.00     0.002 A 
HETATM   12  C   UNL     1      30.120  45.970  58.014  1.00  0.00     0.002 A 
HETATM   13  H   UNL     1      31.498  42.240  55.216  1.00  0.00     0.167 HD
ENDBRANCH   3   4
ENDBRANCH   2   3
ENDBRANCH   1   2
BRANCH   1  14
HETATM   14  N   UNL     1      27.031  40.664  51.902  1.00  0.00    -0.068 N 
HETATM   15  H   UNL     1      26.999  40.994  50.933  1.00  0.00     0.275 HD
HETATM   16  H   UNL     1      27.631  39.833  51.905  1.00  0.00     0.275 HD
HETATM   17  H   UNL     1      26.063  40.438  52.197  1.00  0.00     0.275 HD
ENDBRANCH   1  14
BRANCH   1  18
HETATM   18  C   UNL     1      27.249  43.056  52.191  1.00  0.00     0.136 A 
HETATM   19  N   UNL     1      27.358  43.360  50.913  1.00  0.00    -0.231 NA
HETATM   20  C   UNL     1      26.940  44.668  50.813  1.00  0.00     0.085 A 
HETATM   21  C   UNL     1      26.532  45.150  52.052  1.00  0.00     0.062 A 
HETATM   22  C   UNL     1      26.876  45.510  49.695  1.00  0.00     0.034 A 
HETATM   23  N   UNL     1      26.740  44.105  52.916  1.00  0.00    -0.341 N 
HETATM   24  C   UNL     1      26.037  46.440  52.249  1.00  0.00     0.032 A 
HETATM   25  H   UNL     1      26.540  44.127  53.907  1.00  0.00     0.167 HD
HETATM   26  C   UNL     1      25.977  47.266  51.121  1.00  0.00     0.002 A 
HETATM   27  C   UNL     1      26.391  46.813  49.866  1.00  0.00     0.002 A 
ENDBRANCH   1  18
TORSDOF 5
ENDMDL
MODEL 2
REMARK VINA RESULT:      -8.5      3.229      8.445
REMARK  5 active torsions:
REMARK  status: ('A' for Active; 'I' for Inactive)
REMARK    1  A    between atoms: C_6  and  C_7 
REMARK    2  A    between atoms: C_7  and  C_8 
REMARK    3  A    between atoms: C_8  and  C_9 
REMARK    4  A    between atoms: C_9  and  N_10 
REMARK    5  A    between atoms: C_9  and  C_14 
ROOT
HETATM    1  C   UNL     1      26.089  46.783  53.886  1.00  0.00     0.253 C 
ENDROOT
BRANCH   1   2
HETATM    2  C   UNL     1      26.226  47.118  52.386  1.00  0.00     0.048 C 
BRANCH   2   3
HETATM    3  C   UNL     1      25.278  46.391  51.421  1.00  0.00     0.081 C 
BRANCH   3   4
HETATM    4  C   UNL     1      24.690  47.320  50.420  1.00  0.00     0.105 A 
HETATM    5  N   UNL     1      25.342  48.315  49.848  1.00  0.00    -0.233 NA
HETATM    6  C   UNL     1      24.399  48.963  49.076  1.00  0.00     0.085 A 
HETATM    7  C   UNL     1      23.163  48.333  49.174  1.00  0.00     0.062 A 
HETATM    8  C   UNL     1      24.524  50.110  48.280  1.00  0.00     0.034 A 
HETATM    9  C   UNL     1      22.019  48.785  48.517  1.00  0.00     0.032 A 
HETATM   10  N   UNL     1      23.383  47.267  50.007  1.00  0.00    -0.343 N 
HETATM   11  C   UNL     1      22.159  49.936  47.734  1.00  0.00     0.002 A 
HETATM   12  C   UNL     1      23.388  50.589  47.614  1.00  0.00     0.002 A 
HETATM   13  H   UNL     1      22.688  46.585  50.284  1.00  0.00     0.167 HD
ENDBRANCH   3   4
ENDBRANCH   2   3
ENDBRANCH   1   2
BRANCH   1  14
HETATM   14  N   UNL     1      25.979  48.020  54.697  1.00  0.00    -0.068 N 
HETATM   15  H   UNL     1      25.654  48.796  54.110  1.00  0.00     0.275 HD
HETATM   16  H   UNL     1      25.285  47.913  55.444  1.00  0.00     0.275 HD
HETATM   17  H   UNL     1      26.911  48.270  55.073  1.00  0.00     0.275 HD
ENDBRANCH   1  14
BRANCH   1  18
HETATM   18  C   UNL     1      27.272  46.003  54.363  1.00  0.00     0.136 A 
HETATM   19  N   UNL     1      27.635  44.825  53.896  1.00  0.00    -0.231 NA
HETATM   20  C   UNL     1      28.769  44.489  54.601  1.00  0.00     0.085 A 
HETATM   21  C   UNL     1      29.119  45.506  55.483  1.00  0.00     0.062 A 
HETATM   22  C   UNL     1      29.559  43.333  54.537  1.00  0.00     0.034 A 
HETATM   23  N   UNL     1      28.149  46.460  55.315  1.00  0.00    -0.341 N 
HETATM   24  C   UNL     1      30.241  45.450  56.312  1.00  0.00     0.032 A 
HETATM   25  H   UNL     1      28.112  47.340  55.814  1.00  0.00     0.167 HD
HETATM   26  C   UNL     1      31.020  44.290  56.233  1.00  0.00     0.002 A 
HETATM   27  C   UNL     1      30.686  43.248  55.365  1.00  0.00     0.002 A 
ENDBRANCH   1  18
TORSDOF 5
ENDMDL
MODEL 3
REMARK VINA RESULT:      -8.4      2.242      7.424
REMARK  5 active torsions:
REMARK  status: ('A' for Active; 'I' for Inactive)
REMARK    1  A    between atoms: C_6  and  C_7 
REMARK    2  A    between atoms: C_7  and  C_8 
REMARK    3  A    between atoms: C_8  and  C_9 
REMARK    4  A    between atoms: C_9  and  N_10 
REMARK    5  A    between atoms: C_9  and  C_14 
ROOT
HETATM    1  C   UNL     1      26.978  44.174  52.518  1.00  0.00     0.253 C 
ENDROOT
BRANCH   1   2
HETATM    2  C   UNL     1      25.825  45.162  52.795  1.00  0.00     0.048 C 
BRANCH   2   3
HETATM    3  C   UNL     1      24.749  45.297  51.708  1.00  0.00     0.081 C 
BRANCH   3   4
HETATM    4  C   UNL     1      25.047  46.413  50.772  1.00  0.00     0.105 A 
HETATM    5  N   UNL     1      26.259  46.857  50.497  1.00  0.00    -0.233 NA
HETATM    6  C   UNL     1      26.064  47.945  49.671  1.00  0.00     0.085 A 
HETATM    7  C   UNL     1      24.708  48.146  49.433  1.00  0.00     0.062 A 
HETATM    8  C   UNL     1      26.999  48.822  49.104  1.00  0.00     0.034 A 
HETATM    9  C   UNL     1      24.215  49.189  48.649  1.00  0.00     0.032 A 
HETATM   10  N   UNL     1      24.083  47.135  50.115  1.00  0.00    -0.343 N 
HETATM   11  C   UNL     1      25.161  50.060  48.098  1.00  0.00     0.002 A 
HETATM   12  C   UNL     1      26.528  49.883  48.318  1.00  0.00     0.002 A 
HETATM   13  H   UNL     1      23.084  46.977  50.144  1.00  0.00     0.167 HD
ENDBRANCH   3   4
ENDBRANCH   2   3
ENDBRANCH   1   2
BRANCH   1  14
HETATM   14  N   UNL     1      26.471  42.783  52.418  1.00  0.00    -0.068 N 
HETATM   15  H   UNL     1      27.098  42.145  52.918  1.00  0.00     0.275 HD
HETATM   16  H   UNL     1      25.551  42.691  52.861  1.00  0.00     0.275 HD
HETATM   17  H   UNL     1      26.447  42.497  51.423  1.00  0.00     0.275 HD
ENDBRANCH   1  14
BRANCH   1  18
HETATM   18  C   UNL     1      27.997  44.234  53.610  1.00  0.00     0.136 A 
HETATM   19  N   UNL     1      28.941  43.336  53.809  1.00  0.00    -0.231 NA
HETATM   20  C   UNL     1      29.652  43.791  54.897  1.00  0.00     0.085 A 
HETATM   21  C   UNL     1      29.150  45.011  55.337  1.00  0.00     0.062 A 
HETATM   22  C   UNL     1      30.744  43.218  55.563  1.00  0.00     0.034 A 
HETATM   23  N   UNL     1      28.095  45.273  54.502  1.00  0.00    -0.341 N 
HETATM   24  C   UNL     1      29.690  45.721  56.411  1.00  0.00     0.032 A 
HETATM   25  H   UNL     1      27.509  46.097  54.552  1.00  0.00     0.167 HD
HETATM   26  C   UNL     1      30.782  45.136  57.062  1.00  0.00     0.002 A 
HETATM   27  C   UNL     1      31.299  43.905  56.650  1.00  0.00     0.002 A 
ENDBRANCH   1  18
TORSDOF 5
ENDMDL
MODEL 4
REMARK VINA RESULT:      -8.4      3.298      4.852
REMARK  5 active torsions:
REMARK  status: ('A' for Active; 'I' for Inactive)
REMARK    1  A    between atoms: C_6  and  C_7 
REMARK    2  A    between atoms: C_7  and  C_8 
REMARK    3  A    between atoms: C_8  and  C_9 
REMARK    4  A    between atoms: C_9  and  N_10 
REMARK    5  A    between atoms: C_9  and  C_14 
ROOT
HETATM    1  C   UNL     1      25.507  46.480  50.849  1.00  0.00     0.253 C 
ENDROOT
BRANCH   1   2
HETATM    2  C   UNL     1      26.140  47.113  52.107  1.00  0.00     0.048 C 
BRANCH   2   3
HETATM    3  C   UNL     1      25.913  46.388  53.441  1.00  0.00     0.081 C 
BRANCH   3   4
HETATM    4  C   UNL     1      27.166  45.776  53.956  1.00  0.00     0.105 A 
HETATM    5  N   UNL     1      27.640  44.605  53.575  1.00  0.00    -0.233 NA
HETATM    6  C   UNL     1      28.749  44.392  54.368  1.00  0.00     0.085 A 
HETATM    7  C   UNL     1      28.952  45.465  55.230  1.00  0.00     0.062 A 
HETATM    8  C   UNL     1      29.618  43.293  54.422  1.00  0.00     0.034 A 
HETATM    9  C   UNL     1      29.989  45.512  56.163  1.00  0.00     0.032 A 
HETATM   10  N   UNL     1      27.953  46.351  54.923  1.00  0.00    -0.343 N 
HETATM   11  C   UNL     1      30.842  44.404  56.209  1.00  0.00     0.002 A 
HETATM   12  C   UNL     1      30.663  43.313  55.355  1.00  0.00     0.002 A 
HETATM   13  H   UNL     1      27.813  47.253  55.360  1.00  0.00     0.167 HD
ENDBRANCH   3   4
ENDBRANCH   2   3
ENDBRANCH   1   2
BRANCH   1  14
HETATM   14  N   UNL     1      26.552  45.925  49.954  1.00  0.00    -0.068 N 
HETATM   15  H   UNL     1      27.093  46.686  49.532  1.00  0.00     0.275 HD
HETATM   16  H   UNL     1      27.222  45.351  50.477  1.00  0.00     0.275 HD
HETATM   17  H   UNL     1      26.102  45.388  49.191  1.00  0.00     0.275 HD
ENDBRANCH   1  14
BRANCH   1  18
HETATM   18  C   UNL     1      24.715  47.493  50.089  1.00  0.00     0.136 A 
HETATM   19  N   UNL     1      25.227  48.533  49.462  1.00  0.00    -0.231 NA
HETATM   20  C   UNL     1      24.152  49.180  48.894  1.00  0.00     0.085 A 
HETATM   21  C   UNL     1      22.972  48.492  49.151  1.00  0.00     0.062 A 
HETATM   22  C   UNL     1      24.108  50.359  48.137  1.00  0.00     0.034 A 
HETATM   23  N   UNL     1      23.355  47.421  49.916  1.00  0.00    -0.341 N 
HETATM   24  C   UNL     1      21.724  48.904  48.678  1.00  0.00     0.032 A 
HETATM   25  H   UNL     1      22.727  46.713  50.274  1.00  0.00     0.167 HD
HETATM   26  C   UNL     1      21.699  50.081  47.922  1.00  0.00     0.002 A 
HETATM   27  C   UNL     1      22.868  50.800  47.658  1.00  0.00     0.002 A 
ENDBRANCH   1  18
TORSDOF 5
ENDMDL
MODEL 5
REMARK VINA RESULT:      -8.4      2.500      8.000
REMARK  5 active torsions:
REMARK  status: ('A' for Active; 'I' for Inactive)
REMARK    1  A    between atoms: C_6  and  C_7 
REMARK    2  A    between atoms: C_7  and  C_8 
REMARK    3  A    between atoms: C_8  and  C_9 
REMARK    4  A    between atoms: C_9  and  N_10 
REMARK    5  A    between atoms: C_9  and  C_14 
ROOT
HETATM    1  C   UNL     1      26.550  46.156  54.204  1.00  0.00     0.253 C 
ENDROOT
BRANCH   1   2
HETATM    2  C   UNL     1      26.452  45.585  52.774  1.00  0.00     0.048 C 
BRANCH   2   3
HETATM    3  C   UNL     1      25.106  45.740  52.053  1.00  0.00     0.081 C 
BRANCH   3   4
HETATM    4  C   UNL     1      25.172  46.761  50.974  1.00  0.00     0.105 A 
HETATM    5  N   UNL     1      26.290  47.269  50.490  1.00  0.00    -0.233 NA
HETATM    6  C   UNL     1      25.886  48.234  49.591  1.00  0.00     0.085 A 
HETATM    7  C   UNL     1      24.498  48.294  49.523  1.00  0.00     0.062 A 
HETATM    8  C   UNL     1      26.651  49.115  48.813  1.00  0.00     0.034 A 
HETATM    9  C   UNL     1      23.809  49.196  48.711  1.00  0.00     0.032 A 
HETATM   10  N   UNL     1      24.066  47.320  50.385  1.00  0.00    -0.343 N 
HETATM   11  C   UNL     1      24.588  50.073  47.947  1.00  0.00     0.002 A 
HETATM   12  C   UNL     1      25.983  50.035  47.994  1.00  0.00     0.002 A 
HETATM   13  H   UNL     1      23.099  47.086  50.568  1.00  0.00     0.167 HD
ENDBRANCH   3   4
ENDBRANCH   2   3
ENDBRANCH   1   2
BRANCH   1  14
HETATM   14  N   UNL     1      26.614  47.638  54.179  1.00  0.00    -0.068 N 
HETATM   15  H   UNL     1      26.971  47.989  55.073  1.00  0.00     0.275 HD
HETATM   16  H   UNL     1      27.264  47.969  53.458  1.00  0.00     0.275 HD
HETATM   17  H   UNL     1      25.661  48.021  54.041  1.00  0.00     0.275 HD
ENDBRANCH   1  14
BRANCH   1  18
HETATM   18  C   UNL     1      27.768  45.637  54.898  1.00  0.00     0.136 A 
HETATM   19  N   UNL     1      28.243  46.102  56.036  1.00  0.00    -0.231 NA
HETATM   20  C   UNL     1      29.351  45.332  56.309  1.00  0.00     0.085 A 
HETATM   21  C   UNL     1      29.524  44.356  55.334  1.00  0.00     0.062 A 
HETATM   22  C   UNL     1      30.257  45.404  57.377  1.00  0.00     0.034 A 
HETATM   23  N   UNL     1      28.504  44.571  54.444  1.00  0.00    -0.341 N 
HETATM   24  C   UNL     1      30.556  43.415  55.364  1.00  0.00     0.032 A 
HETATM   25  H   UNL     1      28.342  44.022  53.609  1.00  0.00     0.167 HD
HETATM   26  C   UNL     1      31.448  43.500  56.439  1.00  0.00     0.002 A 
HETATM   27  C   UNL     1      31.306  44.478  57.426  1.00  0.00     0.002 A 
ENDBRANCH   1  18
TORSDOF 5
ENDMDL
MODEL 6
REMARK VINA RESULT:      -8.3      2.204      3.671
REMARK  5 active torsions:
REMARK  status: ('A' for Active; 'I' for Inactive)
REMARK    1  A    between atoms: C_6  and  C_7 
REMARK    2  A    between atoms: C_7  and  C_8 
REMARK    3  A    between atoms: C_8  and  C_9 
REMARK    4  A    between atoms: C_9  and  N_10 
REMARK    5  A    between atoms: C_9  and  C_14 
ROOT
HETATM    1  C   UNL     1      25.085  44.960  51.658  1.00  0.00     0.253 C 
ENDROOT
BRANCH   1   2
HETATM    2  C   UNL     1      25.175  45.288  53.163  1.00  0.00     0.048 C 
BRANCH   2   3
HETATM    3  C   UNL     1      26.198  46.353  53.583  1.00  0.00     0.081 C 
BRANCH   3   4
HETATM    4  C   UNL     1      27.427  45.742  54.156  1.00  0.00     0.105 A 
HETATM    5  N   UNL     1      27.941  44.589  53.769  1.00  0.00    -0.233 NA
HETATM    6  C   UNL     1      29.003  44.367  54.621  1.00  0.00     0.085 A 
HETATM    7  C   UNL     1      29.138  45.416  55.525  1.00  0.00     0.062 A 
HETATM    8  C   UNL     1      29.884  43.279  54.695  1.00  0.00     0.034 A 
HETATM    9  C   UNL     1      30.116  45.448  56.520  1.00  0.00     0.032 A 
HETATM   10  N   UNL     1      28.146  46.297  55.184  1.00  0.00    -0.343 N 
HETATM   11  C   UNL     1      30.981  44.350  56.585  1.00  0.00     0.002 A 
HETATM   12  C   UNL     1      30.871  43.284  55.690  1.00  0.00     0.002 A 
HETATM   13  H   UNL     1      27.967  47.183  55.638  1.00  0.00     0.167 HD
ENDBRANCH   3   4
ENDBRANCH   2   3
ENDBRANCH   1   2
BRANCH   1  14
HETATM   14  N   UNL     1      26.117  43.967  51.270  1.00  0.00    -0.068 N 
HETATM   15  H   UNL     1      25.673  43.075  51.031  1.00  0.00     0.275 HD
HETATM   16  H   UNL     1      26.626  44.270  50.432  1.00  0.00     0.275 HD
HETATM   17  H   UNL     1      26.756  43.805  52.069  1.00  0.00     0.275 HD
ENDBRANCH   1  14
BRANCH   1  18
HETATM   18  C   UNL     1      25.275  46.194  50.836  1.00  0.00     0.136 A 
HETATM   19  N   UNL     1      26.443  46.681  50.469  1.00  0.00    -0.231 NA
HETATM   20  C   UNL     1      26.151  47.802  49.724  1.00  0.00     0.085 A 
HETATM   21  C   UNL     1      24.775  47.969  49.606  1.00  0.00     0.062 A 
HETATM   22  C   UNL     1      27.009  48.724  49.110  1.00  0.00     0.034 A 
HETATM   23  N   UNL     1      24.237  46.933  50.325  1.00  0.00    -0.341 N 
HETATM   24  C   UNL     1      24.188  49.011  48.885  1.00  0.00     0.032 A 
HETATM   25  H   UNL     1      23.246  46.763  50.439  1.00  0.00     0.167 HD
HETATM   26  C   UNL     1      25.060  49.919  48.275  1.00  0.00     0.002 A 
HETATM   27  C   UNL     1      26.446  49.783  48.387  1.00  0.00     0.002 A 
ENDBRANCH   1  18
TORSDOF 5
ENDMDL
MODEL 7
REMARK VINA RESULT:      -8.0     13.071     15.643
REMARK  5 active torsions:
REMARK  status: ('A' for Active; 'I' for Inactive)
REMARK    1  A    between atoms: C_6  and  C_7 
REMARK    2  A    between atoms: C_7  and  C_8 
REMARK    3  A    between atoms: C_8  and  C_9 
REMARK    4  A    between atoms: C_9  and  N_10 
REMARK    5  A    between atoms: C_9  and  C_14 
ROOT
HETATM    1  C   UNL     1      26.727  48.612  40.000  1.00  0.00     0.253 C 
ENDROOT
BRANCH   1   2
HETATM    2  C   UNL     1      26.289  50.023  39.551  1.00  0.00     0.048 C 
BRANCH   2   3
HETATM    3  C   UNL     1      26.933  50.576  38.272  1.00  0.00     0.081 C 
BRANCH   3   4
HETATM    4  C   UNL     1      28.331  51.025  38.507  1.00  0.00     0.105 A 
HETATM    5  N   UNL     1      29.378  50.605  37.822  1.00  0.00    -0.233 NA
HETATM    6  C   UNL     1      30.466  51.197  38.431  1.00  0.00     0.085 A 
HETATM    7  C   UNL     1      30.060  52.000  39.491  1.00  0.00     0.062 A 
HETATM    8  C   UNL     1      31.833  51.075  38.145  1.00  0.00     0.034 A 
HETATM    9  C   UNL     1      30.950  52.704  40.303  1.00  0.00     0.032 A 
HETATM   10  N   UNL     1      28.693  51.904  39.496  1.00  0.00    -0.343 N 
HETATM   11  C   UNL     1      32.311  52.565  40.009  1.00  0.00     0.002 A 
HETATM   12  C   UNL     1      32.748  51.766  38.949  1.00  0.00     0.002 A 
HETATM   13  H   UNL     1      28.074  52.379  40.140  1.00  0.00     0.167 HD
ENDBRANCH   3   4
ENDBRANCH   2   3
ENDBRANCH   1   2
BRANCH   1  14
HETATM   14  N   UNL     1      25.873  48.122  41.111  1.00  0.00    -0.068 N 
HETATM   15  H   UNL     1      26.333  47.341  41.588  1.00  0.00     0.275 HD
HETATM   16  H   UNL     1      25.732  48.851  41.818  1.00  0.00     0.275 HD
HETATM   17  H   UNL     1      24.973  47.781  40.728  1.00  0.00     0.275 HD
ENDBRANCH   1  14
BRANCH   1  18
HETATM   18  C   UNL     1      28.149  48.622  40.459  1.00  0.00     0.136 A 
HETATM   19  N   UNL     1      28.590  49.248  41.532  1.00  0.00    -0.231 NA
HETATM   20  C   UNL     1      29.940  48.980  41.580  1.00  0.00     0.085 A 
HETATM   21  C   UNL     1      30.312  48.141  40.536  1.00  0.00     0.062 A 
HETATM   22  C   UNL     1      30.912  49.414  42.492  1.00  0.00     0.034 A 
HETATM   23  N   UNL     1      29.154  47.928  39.833  1.00  0.00    -0.341 N 
HETATM   24  C   UNL     1      31.618  47.683  40.346  1.00  0.00     0.032 A 
HETATM   25  H   UNL     1      29.079  47.351  39.004  1.00  0.00     0.167 HD
HETATM   26  C   UNL     1      32.574  48.124  41.267  1.00  0.00     0.002 A 
HETATM   27  C   UNL     1      32.231  48.976  42.320  1.00  0.00     0.002 A 
ENDBRANCH   1  18
TORSDOF 5
ENDMDL
MODEL 8
REMARK VINA RESULT:      -8.0      3.377      8.237
REMARK  5 active torsions:
REMARK  status: ('A' for Active; 'I' for Inactive)
REMARK    1  A    between atoms: C_6  and  C_7 
REMARK    2  A    between atoms: C_7  and  C_8 
REMARK    3  A    between atoms: C_8  and  C_9 
REMARK    4  A    between atoms: C_9  and  N_10 
REMARK    5  A    between atoms: C_9  and  C_14 
ROOT
HETATM    1  C   UNL     1      25.884  44.506  50.918  1.00  0.00     0.253 C 
ENDROOT
BRANCH   1   2
HETATM    2  C   UNL     1      26.194  45.762  50.077  1.00  0.00     0.048 C 
BRANCH   2   3
HETATM    3  C   UNL     1      25.886  47.123  50.717  1.00  0.00     0.081 C 
BRANCH   3   4
HETATM    4  C   UNL     1      24.861  47.876  49.947  1.00  0.00     0.105 A 
HETATM    5  N   UNL     1      25.097  48.982  49.266  1.00  0.00    -0.233 NA
HETATM    6  C   UNL     1      23.863  49.385  48.798  1.00  0.00     0.085 A 
HETATM    7  C   UNL     1      22.871  48.493  49.192  1.00  0.00     0.062 A 
HETATM    8  C   UNL     1      23.512  50.516  48.048  1.00  0.00     0.034 A 
HETATM    9  C   UNL     1      21.521  48.662  48.880  1.00  0.00     0.032 A 
HETATM   10  N   UNL     1      23.536  47.520  49.891  1.00  0.00    -0.343 N 
HETATM   11  C   UNL     1      21.188  49.800  48.137  1.00  0.00     0.002 A 
HETATM   12  C   UNL     1      22.162  50.712  47.726  1.00  0.00     0.002 A 
HETATM   13  H   UNL     1      23.110  46.705  50.312  1.00  0.00     0.167 HD
ENDBRANCH   3   4
ENDBRANCH   2   3
ENDBRANCH   1   2
BRANCH   1  14
HETATM   14  N   UNL     1      24.638  44.690  51.703  1.00  0.00    -0.068 N 
HETATM   15  H   UNL     1      24.133  43.801  51.772  1.00  0.00     0.275 HD
HETATM   16  H   UNL     1      24.845  44.981  52.664  1.00  0.00     0.275 HD
HETATM   17  H   UNL     1      24.025  45.371  51.220  1.00  0.00     0.275 HD
ENDBRANCH   1  14
BRANCH   1  18
HETATM   18  C   UNL     1      27.005  44.214  51.862  1.00  0.00     0.136 A 
HETATM   19  N   UNL     1      28.036  43.440  51.590  1.00  0.00    -0.231 NA
HETATM   20  C   UNL     1      28.818  43.464  52.723  1.00  0.00     0.085 A 
HETATM   21  C   UNL     1      28.265  44.303  53.684  1.00  0.00     0.062 A 
HETATM   22  C   UNL     1      30.020  42.798  53.003  1.00  0.00     0.034 A 
HETATM   23  N   UNL     1      27.108  44.768  53.114  1.00  0.00    -0.341 N 
HETATM   24  C   UNL     1      28.855  44.539  54.928  1.00  0.00     0.032 A 
HETATM   25  H   UNL     1      26.464  45.411  53.557  1.00  0.00     0.167 HD
HETATM   26  C   UNL     1      30.055  43.869  55.188  1.00  0.00     0.002 A 
HETATM   27  C   UNL     1      30.627  43.011  54.246  1.00  0.00     0.002 A 
ENDBRANCH   1  18
TORSDOF 5
ENDMDL
MODEL 9
REMARK VINA RESULT:      -7.8      2.592      4.799
REMARK  5 active torsions:
REMARK  status: ('A' for Active; 'I' for Inactive)
REMARK    1  A    between atoms: C_6  and  C_7 
REMARK    2  A    between atoms: C_7  and  C_8 
REMARK    3  A    between atoms: C_8  and  C_9 
REMARK    4  A    between atoms: C_9  and  N_10 
REMARK    5  A    between atoms: C_9  and  C_14 
ROOT
HETATM    1  C   UNL     1      26.217  42.784  50.277  1.00  0.00     0.253 C 
ENDROOT
BRANCH   1   2
HETATM    2  C   UNL     1      26.996  43.992  50.840  1.00  0.00     0.048 C 
BRANCH   2   3
HETATM    3  C   UNL     1      26.575  44.509  52.223  1.00  0.00     0.081 C 
BRANCH   3   4
HETATM    4  C   UNL     1      27.696  44.450  53.198  1.00  0.00     0.105 A 
HETATM    5  N   UNL     1      28.578  43.471  53.268  1.00  0.00    -0.233 NA
HETATM    6  C   UNL     1      29.363  43.773  54.362  1.00  0.00     0.085 A 
HETATM    7  C   UNL     1      28.954  44.966  54.948  1.00  0.00     0.062 A 
HETATM    8  C   UNL     1      30.432  43.061  54.925  1.00  0.00     0.034 A 
HETATM    9  C   UNL     1      29.554  45.505  56.087  1.00  0.00     0.032 A 
HETATM   10  N   UNL     1      27.914  45.397  54.167  1.00  0.00    -0.343 N 
HETATM   11  C   UNL     1      30.613  44.778  56.641  1.00  0.00     0.002 A 
HETATM   12  C   UNL     1      31.047  43.578  56.073  1.00  0.00     0.002 A 
HETATM   13  H   UNL     1      27.389  46.250  54.308  1.00  0.00     0.167 HD
ENDBRANCH   3   4
ENDBRANCH   2   3
ENDBRANCH   1   2
BRANCH   1  14
HETATM   14  N   UNL     1      25.092  42.417  51.172  1.00  0.00    -0.068 N 
HETATM   15  H   UNL     1      25.131  42.974  52.031  1.00  0.00     0.275 HD
HETATM   16  H   UNL     1      24.188  42.624  50.734  1.00  0.00     0.275 HD
HETATM   17  H   UNL     1      25.171  41.418  51.432  1.00  0.00     0.275 HD
ENDBRANCH   1  14
BRANCH   1  18
HETATM   18  C   UNL     1      27.116  41.600  50.128  1.00  0.00     0.136 A 
HETATM   19  N   UNL     1      27.455  41.052  48.978  1.00  0.00    -0.231 NA
HETATM   20  C   UNL     1      28.295  40.011  49.305  1.00  0.00     0.085 A 
HETATM   21  C   UNL     1      28.498  39.957  50.680  1.00  0.00     0.062 A 
HETATM   22  C   UNL     1      28.929  39.072  48.480  1.00  0.00     0.034 A 
HETATM   23  N   UNL     1      27.735  40.978  51.184  1.00  0.00    -0.341 N 
HETATM   24  C   UNL     1      29.325  39.016  51.297  1.00  0.00     0.032 A 
HETATM   25  H   UNL     1      27.662  41.215  52.165  1.00  0.00     0.167 HD
HETATM   26  C   UNL     1      29.952  38.088  50.458  1.00  0.00     0.002 A 
HETATM   27  C   UNL     1      29.757  38.112  49.075  1.00  0.00     0.002 A 
ENDBRANCH   1  18
TORSDOF 5
ENDMDL
MODEL 10
REMARK VINA RESULT:      -7.5     12.999     16.530
REMARK  5 active torsions:
REMARK  status: ('A' for Active; 'I' for Inactive)
REMARK    1  A    between atoms: C_6  and  C_7 
REMARK    2  A    between atoms: C_7  and  C_8 
REMARK    3  A    between atoms: C_8  and  C_9 
REMARK    4  A    between atoms: C_9  and  N_10 
REMARK    5  A    between atoms: C_9  and  C_14 
ROOT
HETATM    1  C   UNL     1      15.654  53.615  49.525  1.00  0.00     0.253 C 
ENDROOT
BRANCH   1   2
HETATM    2  C   UNL     1      14.641  53.064  50.551  1.00  0.00     0.048 C 
BRANCH   2   3
HETATM    3  C   UNL     1      13.504  54.003  50.980  1.00  0.00     0.081 C 
BRANCH   3   4
HETATM    4  C   UNL     1      14.000  55.115  51.834  1.00  0.00     0.105 A 
HETATM    5  N   UNL     1      13.713  56.389  51.645  1.00  0.00    -0.233 NA
HETATM    6  C   UNL     1      14.451  57.066  52.595  1.00  0.00     0.085 A 
HETATM    7  C   UNL     1      15.180  56.178  53.378  1.00  0.00     0.062 A 
HETATM    8  C   UNL     1      14.564  58.444  52.832  1.00  0.00     0.034 A 
HETATM    9  C   UNL     1      16.035  56.585  54.404  1.00  0.00     0.032 A 
HETATM   10  N   UNL     1      14.847  54.938  52.898  1.00  0.00    -0.343 N 
HETATM   11  C   UNL     1      16.142  57.963  54.621  1.00  0.00     0.002 A 
HETATM   12  C   UNL     1      15.420  58.879  53.852  1.00  0.00     0.002 A 
HETATM   13  H   UNL     1      15.195  54.058  53.256  1.00  0.00     0.167 HD
ENDBRANCH   3   4
ENDBRANCH   2   3
ENDBRANCH   1   2
BRANCH   1  14
HETATM   14  N   UNL     1      15.069  53.633  48.161  1.00  0.00    -0.068 N 
HETATM   15  H   UNL     1      15.426  52.843  47.616  1.00  0.00     0.275 HD
HETATM   16  H   UNL     1      14.050  53.525  48.194  1.00  0.00     0.275 HD
HETATM   17  H   UNL     1      15.346  54.507  47.680  1.00  0.00     0.275 HD
ENDBRANCH   1  14
BRANCH   1  18
HETATM   18  C   UNL     1      16.891  52.777  49.503  1.00  0.00     0.136 A 
HETATM   19  N   UNL     1      17.052  51.654  50.174  1.00  0.00    -0.231 NA
HETATM   20  C   UNL     1      18.318  51.218  49.854  1.00  0.00     0.085 A 
HETATM   21  C   UNL     1      18.917  52.076  48.938  1.00  0.00     0.062 A 
HETATM   22  C   UNL     1      19.023  50.092  50.301  1.00  0.00     0.034 A 
HETATM   23  N   UNL     1      17.989  53.064  48.731  1.00  0.00    -0.341 N 
HETATM   24  C   UNL     1      20.196  51.871  48.416  1.00  0.00     0.032 A 
HETATM   25  H   UNL     1      18.114  53.853  48.109  1.00  0.00     0.167 HD
HETATM   26  C   UNL     1      20.883  50.740  48.871  1.00  0.00     0.002 A 
HETATM   27  C   UNL     1      20.311  49.867  49.799  1.00  0.00     0.002 A 
ENDBRANCH   1  18
TORSDOF 5
ENDMDL
