MODEL 1
REMARK VINA RESULT:      -8.8      0.000      0.000
REMARK  8 active torsions:
REMARK  status: ('A' for Active; 'I' for Inactive)
REMARK    1  A    between atoms: C_2  and  N_3 
REMARK    2  A    between atoms: C_11  and  C_12 
REMARK    3  A    between atoms: C_14  and  O_15 
REMARK    4  A    between atoms: O_15  and  C_16 
REMARK    5  A    between atoms: C_18  and  O_19 
REMARK    6  A    between atoms: O_19  and  C_20 
REMARK    7  A    between atoms: C_20  and  C_21 
REMARK    8  A    between atoms: C_31  and  O_32 
ROOT
HETATM    1  N   UNL     1      17.423  48.302  48.966  1.00  0.00    -0.067 N 
HETATM    2  H   UNL     1      16.496  47.957  49.242  1.00  0.00     0.280 HD
HETATM    3  C   UNL     1      18.269  47.050  48.715  1.00  0.00     0.281 C 
HETATM    4  C   UNL     1      19.721  47.384  48.720  1.00  0.00     0.018 A 
HETATM    5  C   UNL     1      20.273  48.533  49.261  1.00  0.00    -0.024 A 
HETATM    6  C   UNL     1      21.693  48.548  49.089  1.00  0.00     0.057 A 
HETATM    7  C   UNL     1      22.138  47.411  48.464  1.00  0.00     0.087 A 
HETATM    8  N   UNL     1      23.443  47.205  48.208  1.00  0.00    -0.357 N 
HETATM    9  C   UNL     1      24.393  47.962  49.026  1.00  0.00     0.243 C 
HETATM   10  N   UNL     1      23.961  49.329  49.399  1.00  0.00    -0.235 NA
HETATM   11  C   UNL     1      22.694  49.524  49.436  1.00  0.00     0.173 C 
HETATM   12  S   UNL     1      20.888  46.341  48.054  1.00  0.00    -0.074 SA
HETATM   13  C   UNL     1      19.418  49.589  49.896  1.00  0.00     0.068 C 
HETATM   14  C   UNL     1      17.987  49.080  50.157  1.00  0.00     0.240 C 
HETATM   15  H   UNL     1      23.753  46.283  47.922  1.00  0.00     0.162 HD
ENDROOT
BRANCH   9  16
HETATM   16  C   UNL     1      24.795  47.117  50.243  1.00  0.00    -0.012 A 
HETATM   17  C   UNL     1      24.243  45.843  50.480  1.00  0.00     0.050 A 
HETATM   18  C   UNL     1      24.666  45.057  51.557  1.00  0.00     0.103 A 
HETATM   19  C   UNL     1      25.673  45.545  52.400  1.00  0.00     0.112 A 
HETATM   20  C   UNL     1      26.215  46.812  52.205  1.00  0.00     0.041 A 
HETATM   21  C   UNL     1      25.759  47.601  51.148  1.00  0.00     0.014 A 
BRANCH  18  22
HETATM   22  O   UNL     1      24.195  43.797  51.823  1.00  0.00    -0.349 OA
BRANCH  22  23
HETATM   23  C   UNL     1      24.284  42.855  50.752  1.00  0.00     0.171 C 
HETATM   24  C   UNL     1      25.740  42.452  50.602  1.00  0.00     0.034 C 
ENDBRANCH  22  23
ENDBRANCH  18  22
BRANCH  19  25
HETATM   25  O   UNL     1      26.162  44.651  53.381  1.00  0.00    -0.272 OA
BRANCH  25  26
HETATM   26  C   UNL     1      27.089  45.008  54.347  1.00  0.00     0.298 C 
HETATM   27  O   UNL     1      26.961  45.853  55.218  1.00  0.00    -0.259 OA
BRANCH  26  28
HETATM   28  C   UNL     1      28.338  44.232  54.123  1.00  0.00     0.039 A 
HETATM   29  C   UNL     1      28.445  43.474  52.950  1.00  0.00     0.017 A 
HETATM   30  C   UNL     1      29.588  42.709  52.709  1.00  0.00     0.001 A 
HETATM   31  C   UNL     1      30.632  42.704  53.633  1.00  0.00     0.000 A 
HETATM   32  C   UNL     1      30.538  43.465  54.798  1.00  0.00     0.001 A 
HETATM   33  C   UNL     1      29.395  44.229  55.045  1.00  0.00     0.017 A 
ENDBRANCH  26  28
ENDBRANCH  25  26
ENDBRANCH  19  25
ENDBRANCH   9  16
BRANCH  11  34
HETATM   34  O   UNL     1      22.245  50.730  49.824  1.00  0.00    -0.344 OA
HETATM   35  H   UNL     1      21.495  50.945  49.242  1.00  0.00     0.219 HD
ENDBRANCH  11  34
BRANCH   1  36
HETATM   36  C   UNL     1      17.228  49.103  47.695  1.00  0.00     0.231 C 
HETATM   37  C   UNL     1      15.969  49.948  47.771  1.00  0.00     0.034 C 
ENDBRANCH   1  36
TORSDOF 8
ENDMDL
MODEL 2
REMARK VINA RESULT:      -8.5      2.897      4.678
REMARK  8 active torsions:
REMARK  status: ('A' for Active; 'I' for Inactive)
REMARK    1  A    between atoms: C_2  and  N_3 
REMARK    2  A    between atoms: C_11  and  C_12 
REMARK    3  A    between atoms: C_14  and  O_15 
REMARK    4  A    between atoms: O_15  and  C_16 
REMARK    5  A    between atoms: C_18  and  O_19 
REMARK    6  A    between atoms: O_19  and  C_20 
REMARK    7  A    between atoms: C_20  and  C_21 
REMARK    8  A    between atoms: C_31  and  O_32 
ROOT
HETATM    1  N   UNL     1      17.269  52.553  48.762  1.00  0.00    -0.067 N 
HETATM    2  H   UNL     1      17.274  53.539  49.049  1.00  0.00     0.280 HD
HETATM    3  C   UNL     1      17.895  51.782  49.928  1.00  0.00     0.281 C 
HETATM    4  C   UNL     1      18.331  50.427  49.491  1.00  0.00     0.018 A 
HETATM    5  C   UNL     1      18.533  50.038  48.177  1.00  0.00    -0.024 A 
HETATM    6  C   UNL     1      18.940  48.669  48.105  1.00  0.00     0.057 A 
HETATM    7  C   UNL     1      19.053  48.110  49.353  1.00  0.00     0.087 A 
HETATM    8  N   UNL     1      19.434  46.831  49.525  1.00  0.00    -0.357 N 
HETATM    9  C   UNL     1      20.177  46.219  48.423  1.00  0.00     0.243 C 
HETATM   10  N   UNL     1      19.768  46.649  47.065  1.00  0.00    -0.235 NA
HETATM   11  C   UNL     1      19.226  47.808  46.987  1.00  0.00     0.173 C 
HETATM   12  S   UNL     1      18.656  49.182  50.605  1.00  0.00    -0.074 SA
HETATM   13  C   UNL     1      18.300  50.985  47.036  1.00  0.00     0.068 C 
HETATM   14  C   UNL     1      18.162  52.440  47.525  1.00  0.00     0.240 C 
HETATM   15  H   UNL     1      19.689  46.510  50.453  1.00  0.00     0.162 HD
ENDROOT
BRANCH   9  16
HETATM   16  C   UNL     1      21.682  46.397  48.669  1.00  0.00    -0.012 A 
HETATM   17  C   UNL     1      22.264  47.670  48.837  1.00  0.00     0.050 A 
HETATM   18  C   UNL     1      23.624  47.815  49.126  1.00  0.00     0.103 A 
HETATM   19  C   UNL     1      24.414  46.667  49.269  1.00  0.00     0.112 A 
HETATM   20  C   UNL     1      23.871  45.398  49.081  1.00  0.00     0.041 A 
HETATM   21  C   UNL     1      22.520  45.269  48.758  1.00  0.00     0.014 A 
BRANCH  18  22
HETATM   22  O   UNL     1      24.243  49.021  49.334  1.00  0.00    -0.349 OA
BRANCH  22  23
HETATM   23  C   UNL     1      24.540  49.783  48.163  1.00  0.00     0.171 C 
HETATM   24  C   UNL     1      23.505  50.888  48.047  1.00  0.00     0.034 C 
ENDBRANCH  22  23
ENDBRANCH  18  22
BRANCH  19  25
HETATM   25  O   UNL     1      25.745  46.867  49.704  1.00  0.00    -0.272 OA
BRANCH  25  26
HETATM   26  C   UNL     1      26.540  45.859  50.222  1.00  0.00     0.298 C 
HETATM   27  O   UNL     1      27.322  45.146  49.614  1.00  0.00    -0.259 OA
BRANCH  26  28
HETATM   28  C   UNL     1      26.248  45.716  51.674  1.00  0.00     0.039 A 
HETATM   29  C   UNL     1      26.190  46.878  52.455  1.00  0.00     0.017 A 
HETATM   30  C   UNL     1      25.944  46.792  53.827  1.00  0.00     0.001 A 
HETATM   31  C   UNL     1      25.746  45.547  54.423  1.00  0.00     0.000 A 
HETATM   32  C   UNL     1      25.790  44.386  53.651  1.00  0.00     0.001 A 
HETATM   33  C   UNL     1      26.040  44.467  52.279  1.00  0.00     0.017 A 
ENDBRANCH  26  28
ENDBRANCH  25  26
ENDBRANCH  19  25
ENDBRANCH   9  16
BRANCH  11  34
HETATM   34  O   UNL     1      18.887  48.273  45.772  1.00  0.00    -0.344 OA
HETATM   35  H   UNL     1      18.414  49.111  45.919  1.00  0.00     0.219 HD
ENDBRANCH  11  34
BRANCH   1  36
HETATM   36  C   UNL     1      15.818  52.167  48.557  1.00  0.00     0.231 C 
HETATM   37  C   UNL     1      14.888  53.223  49.127  1.00  0.00     0.034 C 
ENDBRANCH   1  36
TORSDOF 8
ENDMDL
MODEL 3
REMARK VINA RESULT:      -8.2      3.794      9.595
REMARK  8 active torsions:
REMARK  status: ('A' for Active; 'I' for Inactive)
REMARK    1  A    between atoms: C_2  and  N_3 
REMARK    2  A    between atoms: C_11  and  C_12 
REMARK    3  A    between atoms: C_14  and  O_15 
REMARK    4  A    between atoms: O_15  and  C_16 
REMARK    5  A    between atoms: C_18  and  O_19 
REMARK    6  A    between atoms: O_19  and  C_20 
REMARK    7  A    between atoms: C_20  and  C_21 
REMARK    8  A    between atoms: C_31  and  O_32 
ROOT
HETATM    1  N   UNL     1      27.942  39.585  47.459  1.00  0.00    -0.067 N 
HETATM    2  H   UNL     1      28.658  39.368  46.756  1.00  0.00     0.280 HD
HETATM    3  C   UNL     1      26.751  40.144  46.674  1.00  0.00     0.281 C 
HETATM    4  C   UNL     1      25.822  40.879  47.577  1.00  0.00     0.018 A 
HETATM    5  C   UNL     1      26.144  41.356  48.837  1.00  0.00    -0.024 A 
HETATM    6  C   UNL     1      25.022  42.006  49.440  1.00  0.00     0.057 A 
HETATM    7  C   UNL     1      23.935  42.016  48.604  1.00  0.00     0.087 A 
HETATM    8  N   UNL     1      22.769  42.586  48.962  1.00  0.00    -0.357 N 
HETATM    9  C   UNL     1      22.836  43.594  50.021  1.00  0.00     0.243 C 
HETATM   10  N   UNL     1      23.842  43.338  51.078  1.00  0.00    -0.235 NA
HETATM   11  C   UNL     1      24.844  42.617  50.732  1.00  0.00     0.173 C 
HETATM   12  S   UNL     1      24.221  41.238  47.125  1.00  0.00    -0.074 SA
HETATM   13  C   UNL     1      27.506  41.144  49.430  1.00  0.00     0.068 C 
HETATM   14  C   UNL     1      28.519  40.672  48.369  1.00  0.00     0.240 C 
HETATM   15  H   UNL     1      22.056  42.741  48.257  1.00  0.00     0.162 HD
ENDROOT
BRANCH   9  16
HETATM   16  C   UNL     1      22.988  44.983  49.386  1.00  0.00    -0.012 A 
HETATM   17  C   UNL     1      22.239  45.373  48.257  1.00  0.00     0.050 A 
HETATM   18  C   UNL     1      22.340  46.663  47.729  1.00  0.00     0.103 A 
HETATM   19  C   UNL     1      23.190  47.587  48.350  1.00  0.00     0.112 A 
HETATM   20  C   UNL     1      23.963  47.221  49.449  1.00  0.00     0.041 A 
HETATM   21  C   UNL     1      23.879  45.919  49.945  1.00  0.00     0.014 A 
BRANCH  18  22
HETATM   22  O   UNL     1      21.615  47.115  46.655  1.00  0.00    -0.349 OA
BRANCH  22  23
HETATM   23  C   UNL     1      20.235  46.747  46.632  1.00  0.00     0.171 C 
HETATM   24  C   UNL     1      19.491  47.655  47.597  1.00  0.00     0.034 C 
ENDBRANCH  22  23
ENDBRANCH  18  22
BRANCH  19  25
HETATM   25  O   UNL     1      23.142  48.915  47.863  1.00  0.00    -0.272 OA
BRANCH  25  26
HETATM   26  C   UNL     1      23.212  50.031  48.679  1.00  0.00     0.298 C 
HETATM   27  O   UNL     1      24.208  50.507  49.199  1.00  0.00    -0.259 OA
BRANCH  26  28
HETATM   28  C   UNL     1      21.836  50.555  48.894  1.00  0.00     0.039 A 
HETATM   29  C   UNL     1      21.065  50.873  47.769  1.00  0.00     0.017 A 
HETATM   30  C   UNL     1      19.777  51.391  47.922  1.00  0.00     0.001 A 
HETATM   31  C   UNL     1      19.251  51.586  49.198  1.00  0.00     0.000 A 
HETATM   32  C   UNL     1      20.007  51.260  50.324  1.00  0.00     0.001 A 
HETATM   33  C   UNL     1      21.297  50.745  50.176  1.00  0.00     0.017 A 
ENDBRANCH  26  28
ENDBRANCH  25  26
ENDBRANCH  19  25
ENDBRANCH   9  16
BRANCH  11  34
HETATM   34  O   UNL     1      25.816  42.400  51.635  1.00  0.00    -0.344 OA
HETATM   35  H   UNL     1      25.709  43.079  52.325  1.00  0.00     0.219 HD
ENDBRANCH  11  34
BRANCH   1  36
HETATM   36  C   UNL     1      27.593  38.279  48.142  1.00  0.00     0.231 C 
HETATM   37  C   UNL     1      28.764  37.760  48.957  1.00  0.00     0.034 C 
ENDBRANCH   1  36
TORSDOF 8
ENDMDL
MODEL 4
REMARK VINA RESULT:      -8.1     14.295     15.837
REMARK  8 active torsions:
REMARK  status: ('A' for Active; 'I' for Inactive)
REMARK    1  A    between atoms: C_2  and  N_3 
REMARK    2  A    between atoms: C_11  and  C_12 
REMARK    3  A    between atoms: C_14  and  O_15 
REMARK    4  A    between atoms: O_15  and  C_16 
REMARK    5  A    between atoms: C_18  and  O_19 
REMARK    6  A    between atoms: O_19  and  C_20 
REMARK    7  A    between atoms: C_20  and  C_21 
REMARK    8  A    between atoms: C_31  and  O_32 
ROOT
HETATM    1  N   UNL     1      29.236  52.693  41.201  1.00  0.00    -0.067 N 
HETATM    2  H   UNL     1      28.446  53.230  41.577  1.00  0.00     0.280 HD
HETATM    3  C   UNL     1      29.979  52.143  42.423  1.00  0.00     0.281 C 
HETATM    4  C   UNL     1      31.355  51.709  42.053  1.00  0.00     0.018 A 
HETATM    5  C   UNL     1      32.033  52.095  40.908  1.00  0.00    -0.024 A 
HETATM    6  C   UNL     1      33.329  51.491  40.853  1.00  0.00     0.057 A 
HETATM    7  C   UNL     1      33.571  50.716  41.958  1.00  0.00     0.087 A 
HETATM    8  N   UNL     1      34.735  50.058  42.123  1.00  0.00    -0.357 N 
HETATM    9  C   UNL     1      35.881  50.568  41.370  1.00  0.00     0.243 C 
HETATM   10  N   UNL     1      35.569  51.110  40.026  1.00  0.00    -0.235 NA
HETATM   11  C   UNL     1      34.375  51.546  39.865  1.00  0.00     0.173 C 
HETATM   12  S   UNL     1      32.271  50.673  43.045  1.00  0.00    -0.074 SA
HETATM   13  C   UNL     1      31.404  53.005  39.895  1.00  0.00     0.068 C 
HETATM   14  C   UNL     1      30.133  53.678  40.448  1.00  0.00     0.240 C 
HETATM   15  H   UNL     1      34.952  49.655  43.027  1.00  0.00     0.162 HD
ENDROOT
BRANCH   9  16
HETATM   16  C   UNL     1      36.654  51.566  42.243  1.00  0.00    -0.012 A 
HETATM   17  C   UNL     1      37.392  51.155  43.371  1.00  0.00     0.050 A 
HETATM   18  C   UNL     1      38.144  52.065  44.119  1.00  0.00     0.103 A 
HETATM   19  C   UNL     1      38.176  53.408  43.722  1.00  0.00     0.112 A 
HETATM   20  C   UNL     1      37.435  53.848  42.628  1.00  0.00     0.041 A 
HETATM   21  C   UNL     1      36.660  52.935  41.911  1.00  0.00     0.014 A 
BRANCH  18  22
HETATM   22  O   UNL     1      38.909  51.724  45.205  1.00  0.00    -0.349 OA
BRANCH  22  23
HETATM   23  C   UNL     1      40.037  50.889  44.939  1.00  0.00     0.171 C 
HETATM   24  C   UNL     1      41.286  51.633  45.379  1.00  0.00     0.034 C 
ENDBRANCH  22  23
ENDBRANCH  18  22
BRANCH  19  25
HETATM   25  O   UNL     1      39.066  54.253  44.426  1.00  0.00    -0.272 OA
BRANCH  25  26
HETATM   26  C   UNL     1      38.661  55.142  45.408  1.00  0.00     0.298 C 
HETATM   27  O   UNL     1      38.006  56.160  45.260  1.00  0.00    -0.259 OA
BRANCH  26  28
HETATM   28  C   UNL     1      39.215  54.698  46.716  1.00  0.00     0.039 A 
HETATM   29  C   UNL     1      40.590  54.850  46.937  1.00  0.00     0.017 A 
HETATM   30  C   UNL     1      41.160  54.425  48.139  1.00  0.00     0.001 A 
HETATM   31  C   UNL     1      40.359  53.853  49.127  1.00  0.00     0.000 A 
HETATM   32  C   UNL     1      38.988  53.709  48.919  1.00  0.00     0.001 A 
HETATM   33  C   UNL     1      38.414  54.129  47.717  1.00  0.00     0.017 A 
ENDBRANCH  26  28
ENDBRANCH  25  26
ENDBRANCH  19  25
ENDBRANCH   9  16
BRANCH  11  34
HETATM   34  O   UNL     1      34.053  52.101  38.683  1.00  0.00    -0.344 OA
HETATM   35  H   UNL     1      34.725  51.803  38.046  1.00  0.00     0.219 HD
ENDBRANCH  11  34
BRANCH   1  36
HETATM   36  C   UNL     1      28.645  51.577  40.363  1.00  0.00     0.231 C 
HETATM   37  C   UNL     1      27.772  50.667  41.207  1.00  0.00     0.034 C 
ENDBRANCH   1  36
TORSDOF 8
ENDMDL
MODEL 5
REMARK VINA RESULT:      -8.0      3.910      9.525
REMARK  8 active torsions:
REMARK  status: ('A' for Active; 'I' for Inactive)
REMARK    1  A    between atoms: C_2  and  N_3 
REMARK    2  A    between atoms: C_11  and  C_12 
REMARK    3  A    between atoms: C_14  and  O_15 
REMARK    4  A    between atoms: O_15  and  C_16 
REMARK    5  A    between atoms: C_18  and  O_19 
REMARK    6  A    between atoms: O_19  and  C_20 
REMARK    7  A    between atoms: C_20  and  C_21 
REMARK    8  A    between atoms: C_31  and  O_32 
ROOT
HETATM    1  N   UNL     1      27.725  39.785  46.706  1.00  0.00    -0.067 N 
HETATM    2  H   UNL     1      28.362  39.646  45.913  1.00  0.00     0.280 HD
HETATM    3  C   UNL     1      26.466  40.426  46.114  1.00  0.00     0.281 C 
HETATM    4  C   UNL     1      25.643  41.058  47.182  1.00  0.00     0.018 A 
HETATM    5  C   UNL     1      26.099  41.394  48.447  1.00  0.00    -0.024 A 
HETATM    6  C   UNL     1      25.053  41.975  49.230  1.00  0.00     0.057 A 
HETATM    7  C   UNL     1      23.885  42.076  48.517  1.00  0.00     0.087 A 
HETATM    8  N   UNL     1      22.769  42.604  49.054  1.00  0.00    -0.357 N 
HETATM    9  C   UNL     1      22.956  43.490  50.203  1.00  0.00     0.243 C 
HETATM   10  N   UNL     1      24.063  43.120  51.116  1.00  0.00    -0.235 NA
HETATM   11  C   UNL     1      25.016  42.442  50.592  1.00  0.00     0.173 C 
HETATM   12  S   UNL     1      24.008  41.464  46.941  1.00  0.00    -0.074 SA
HETATM   13  C   UNL     1      27.512  41.119  48.868  1.00  0.00     0.068 C 
HETATM   14  C   UNL     1      28.405  40.765  47.664  1.00  0.00     0.240 C 
HETATM   15  H   UNL     1      21.989  42.835  48.448  1.00  0.00     0.162 HD
ENDROOT
BRANCH   9  16
HETATM   16  C   UNL     1      23.058  44.940  49.710  1.00  0.00    -0.012 A 
HETATM   17  C   UNL     1      24.064  45.814  50.168  1.00  0.00     0.050 A 
HETATM   18  C   UNL     1      24.185  47.112  49.662  1.00  0.00     0.103 A 
HETATM   19  C   UNL     1      23.298  47.538  48.666  1.00  0.00     0.112 A 
HETATM   20  C   UNL     1      22.277  46.705  48.215  1.00  0.00     0.041 A 
HETATM   21  C   UNL     1      22.145  45.425  48.753  1.00  0.00     0.014 A 
BRANCH  18  22
HETATM   22  O   UNL     1      25.161  47.999  50.041  1.00  0.00    -0.349 OA
BRANCH  22  23
HETATM   23  C   UNL     1      26.505  47.613  49.750  1.00  0.00     0.171 C 
HETATM   24  C   UNL     1      27.186  48.777  49.052  1.00  0.00     0.034 C 
ENDBRANCH  22  23
ENDBRANCH  18  22
BRANCH  19  25
HETATM   25  O   UNL     1      23.557  48.804  48.089  1.00  0.00    -0.272 OA
BRANCH  25  26
HETATM   26  C   UNL     1      23.300  50.004  48.731  1.00  0.00     0.298 C 
HETATM   27  O   UNL     1      24.062  50.642  49.439  1.00  0.00    -0.259 OA
BRANCH  26  28
HETATM   28  C   UNL     1      21.885  50.389  48.481  1.00  0.00     0.039 A 
HETATM   29  C   UNL     1      21.187  51.043  49.505  1.00  0.00     0.017 A 
HETATM   30  C   UNL     1      19.849  51.401  49.326  1.00  0.00     0.001 A 
HETATM   31  C   UNL     1      19.205  51.115  48.123  1.00  0.00     0.000 A 
HETATM   32  C   UNL     1      19.896  50.474  47.094  1.00  0.00     0.001 A 
HETATM   33  C   UNL     1      21.234  50.111  47.271  1.00  0.00     0.017 A 
ENDBRANCH  26  28
ENDBRANCH  25  26
ENDBRANCH  19  25
ENDBRANCH   9  16
BRANCH  11  34
HETATM   34  O   UNL     1      26.073  42.128  51.361  1.00  0.00    -0.344 OA
HETATM   35  H   UNL     1      26.815  42.674  51.046  1.00  0.00     0.219 HD
ENDBRANCH  11  34
BRANCH   1  36
HETATM   36  C   UNL     1      27.434  38.412  47.276  1.00  0.00     0.231 C 
HETATM   37  C   UNL     1      28.618  37.481  47.088  1.00  0.00     0.034 C 
ENDBRANCH   1  36
TORSDOF 8
ENDMDL
MODEL 6
REMARK VINA RESULT:      -8.0     19.108     21.670
REMARK  8 active torsions:
REMARK  status: ('A' for Active; 'I' for Inactive)
REMARK    1  A    between atoms: C_2  and  N_3 
REMARK    2  A    between atoms: C_11  and  C_12 
REMARK    3  A    between atoms: C_14  and  O_15 
REMARK    4  A    between atoms: O_15  and  C_16 
REMARK    5  A    between atoms: C_18  and  O_19 
REMARK    6  A    between atoms: O_19  and  C_20 
REMARK    7  A    between atoms: C_20  and  C_21 
REMARK    8  A    between atoms: C_31  and  O_32 
ROOT
HETATM    1  N   UNL     1      39.273  50.349  67.141  1.00  0.00    -0.067 N 
HETATM    2  H   UNL     1      40.072  50.834  67.564  1.00  0.00     0.280 HD
HETATM    3  C   UNL     1      39.129  49.037  67.920  1.00  0.00     0.281 C 
HETATM    4  C   UNL     1      38.297  48.062  67.161  1.00  0.00     0.018 A 
HETATM    5  C   UNL     1      38.023  48.131  65.805  1.00  0.00    -0.024 A 
HETATM    6  C   UNL     1      37.188  47.045  65.395  1.00  0.00     0.057 A 
HETATM    7  C   UNL     1      36.903  46.205  66.443  1.00  0.00     0.087 A 
HETATM    8  N   UNL     1      36.139  45.108  66.285  1.00  0.00    -0.357 N 
HETATM    9  C   UNL     1      36.036  44.577  64.925  1.00  0.00     0.243 C 
HETATM   10  N   UNL     1      36.031  45.593  63.846  1.00  0.00    -0.235 NA
HETATM   11  C   UNL     1      36.607  46.704  64.122  1.00  0.00     0.173 C 
HETATM   12  S   UNL     1      37.590  46.706  67.909  1.00  0.00    -0.074 SA
HETATM   13  C   UNL     1      38.548  49.251  64.956  1.00  0.00     0.068 C 
HETATM   14  C   UNL     1      39.644  50.051  65.687  1.00  0.00     0.240 C 
HETATM   15  H   UNL     1      36.106  44.416  67.026  1.00  0.00     0.162 HD
ENDROOT
BRANCH   9  16
HETATM   16  C   UNL     1      37.113  43.504  64.719  1.00  0.00    -0.012 A 
HETATM   17  C   UNL     1      38.401  43.822  64.243  1.00  0.00     0.050 A 
HETATM   18  C   UNL     1      39.393  42.845  64.123  1.00  0.00     0.103 A 
HETATM   19  C   UNL     1      39.100  41.529  64.503  1.00  0.00     0.112 A 
HETATM   20  C   UNL     1      37.828  41.181  64.950  1.00  0.00     0.041 A 
HETATM   21  C   UNL     1      36.836  42.159  65.032  1.00  0.00     0.014 A 
BRANCH  18  22
HETATM   22  O   UNL     1      40.674  43.095  63.699  1.00  0.00    -0.349 OA
BRANCH  22  23
HETATM   23  C   UNL     1      41.518  43.779  64.626  1.00  0.00     0.171 C 
HETATM   24  C   UNL     1      42.117  44.982  63.916  1.00  0.00     0.034 C 
ENDBRANCH  22  23
ENDBRANCH  18  22
BRANCH  19  25
HETATM   25  O   UNL     1      40.181  40.615  64.498  1.00  0.00    -0.272 OA
BRANCH  25  26
HETATM   26  C   UNL     1      40.175  39.428  63.785  1.00  0.00     0.298 C 
HETATM   27  O   UNL     1      39.789  39.254  62.641  1.00  0.00    -0.259 OA
BRANCH  26  28
HETATM   28  C   UNL     1      40.664  38.335  64.669  1.00  0.00     0.039 A 
HETATM   29  C   UNL     1      41.833  37.658  64.297  1.00  0.00     0.017 A 
HETATM   30  C   UNL     1      42.317  36.609  65.081  1.00  0.00     0.001 A 
HETATM   31  C   UNL     1      41.641  36.237  66.243  1.00  0.00     0.000 A 
HETATM   32  C   UNL     1      40.483  36.914  66.626  1.00  0.00     0.001 A 
HETATM   33  C   UNL     1      39.993  37.962  65.842  1.00  0.00     0.017 A 
ENDBRANCH  26  28
ENDBRANCH  25  26
ENDBRANCH  19  25
ENDBRANCH   9  16
BRANCH  11  34
HETATM   34  O   UNL     1      36.682  47.641  63.161  1.00  0.00    -0.344 OA
HETATM   35  H   UNL     1      36.784  48.495  63.616  1.00  0.00     0.219 HD
ENDBRANCH  11  34
BRANCH   1  36
HETATM   36  C   UNL     1      38.067  51.245  67.336  1.00  0.00     0.231 C 
HETATM   37  C   UNL     1      38.335  52.642  66.807  1.00  0.00     0.034 C 
ENDBRANCH   1  36
TORSDOF 8
ENDMDL
MODEL 7
REMARK VINA RESULT:      -8.0      5.569      8.731
REMARK  8 active torsions:
REMARK  status: ('A' for Active; 'I' for Inactive)
REMARK    1  A    between atoms: C_2  and  N_3 
REMARK    2  A    between atoms: C_11  and  C_12 
REMARK    3  A    between atoms: C_14  and  O_15 
REMARK    4  A    between atoms: O_15  and  C_16 
REMARK    5  A    between atoms: C_18  and  O_19 
REMARK    6  A    between atoms: O_19  and  C_20 
REMARK    7  A    between atoms: C_20  and  C_21 
REMARK    8  A    between atoms: C_31  and  O_32 
ROOT
HETATM    1  N   UNL     1      27.250  40.461  43.042  1.00  0.00    -0.067 N 
HETATM    2  H   UNL     1      27.365  41.065  42.220  1.00  0.00     0.280 HD
HETATM    3  C   UNL     1      26.272  41.199  43.962  1.00  0.00     0.281 C 
HETATM    4  C   UNL     1      26.339  40.657  45.347  1.00  0.00     0.018 A 
HETATM    5  C   UNL     1      27.380  39.899  45.859  1.00  0.00    -0.024 A 
HETATM    6  C   UNL     1      27.126  39.531  47.217  1.00  0.00     0.057 A 
HETATM    7  C   UNL     1      25.937  40.048  47.666  1.00  0.00     0.087 A 
HETATM    8  N   UNL     1      25.500  39.836  48.921  1.00  0.00    -0.357 N 
HETATM    9  C   UNL     1      26.515  39.477  49.912  1.00  0.00     0.243 C 
HETATM   10  N   UNL     1      27.624  38.633  49.407  1.00  0.00    -0.235 NA
HETATM   11  C   UNL     1      27.871  38.728  48.153  1.00  0.00     0.173 C 
HETATM   12  S   UNL     1      25.107  40.940  46.487  1.00  0.00    -0.074 SA
HETATM   13  C   UNL     1      28.567  39.531  45.018  1.00  0.00     0.068 C 
HETATM   14  C   UNL     1      28.619  40.356  43.718  1.00  0.00     0.240 C 
HETATM   15  H   UNL     1      24.722  40.383  49.274  1.00  0.00     0.162 HD
ENDROOT
BRANCH   9  16
HETATM   16  C   UNL     1      27.014  40.750  50.608  1.00  0.00    -0.012 A 
HETATM   17  C   UNL     1      26.282  41.955  50.572  1.00  0.00     0.050 A 
HETATM   18  C   UNL     1      26.715  43.089  51.265  1.00  0.00     0.103 A 
HETATM   19  C   UNL     1      27.890  43.014  52.024  1.00  0.00     0.112 A 
HETATM   20  C   UNL     1      28.648  41.846  52.055  1.00  0.00     0.041 A 
HETATM   21  C   UNL     1      28.223  40.731  51.330  1.00  0.00     0.014 A 
BRANCH  18  22
HETATM   22  O   UNL     1      26.034  44.279  51.297  1.00  0.00    -0.349 OA
BRANCH  22  23
HETATM   23  C   UNL     1      25.711  44.851  50.029  1.00  0.00     0.171 C 
HETATM   24  C   UNL     1      26.781  45.874  49.690  1.00  0.00     0.034 C 
ENDBRANCH  22  23
ENDBRANCH  18  22
BRANCH  19  25
HETATM   25  O   UNL     1      28.202  44.143  52.818  1.00  0.00    -0.272 OA
BRANCH  25  26
HETATM   26  C   UNL     1      27.769  44.302  54.124  1.00  0.00     0.298 C 
HETATM   27  O   UNL     1      26.618  44.409  54.514  1.00  0.00    -0.259 OA
BRANCH  26  28
HETATM   28  C   UNL     1      28.957  44.393  55.015  1.00  0.00     0.039 A 
HETATM   29  C   UNL     1      29.850  43.313  55.039  1.00  0.00     0.017 A 
HETATM   30  C   UNL     1      30.965  43.342  55.879  1.00  0.00     0.001 A 
HETATM   31  C   UNL     1      31.198  44.451  56.691  1.00  0.00     0.000 A 
HETATM   32  C   UNL     1      30.321  45.535  56.664  1.00  0.00     0.001 A 
HETATM   33  C   UNL     1      29.202  45.509  55.829  1.00  0.00     0.017 A 
ENDBRANCH  26  28
ENDBRANCH  25  26
ENDBRANCH  19  25
ENDBRANCH   9  16
BRANCH  11  34
HETATM   34  O   UNL     1      28.903  38.029  47.650  1.00  0.00    -0.344 OA
HETATM   35  H   UNL     1      28.522  37.385  47.027  1.00  0.00     0.219 HD
ENDBRANCH  11  34
BRANCH   1  36
HETATM   36  C   UNL     1      26.666  39.155  42.544  1.00  0.00     0.231 C 
HETATM   37  C   UNL     1      27.094  38.877  41.115  1.00  0.00     0.034 C 
ENDBRANCH   1  36
TORSDOF 8
ENDMDL
MODEL 8
REMARK VINA RESULT:      -7.8     14.024     17.454
REMARK  8 active torsions:
REMARK  status: ('A' for Active; 'I' for Inactive)
REMARK    1  A    between atoms: C_2  and  N_3 
REMARK    2  A    between atoms: C_11  and  C_12 
REMARK    3  A    between atoms: C_14  and  O_15 
REMARK    4  A    between atoms: O_15  and  C_16 
REMARK    5  A    between atoms: C_18  and  O_19 
REMARK    6  A    between atoms: O_19  and  C_20 
REMARK    7  A    between atoms: C_20  and  C_21 
REMARK    8  A    between atoms: C_31  and  O_32 
ROOT
HETATM    1  N   UNL     1      39.182  55.760  46.444  1.00  0.00    -0.067 N 
HETATM    2  H   UNL     1      39.088  56.558  47.084  1.00  0.00     0.280 HD
HETATM    3  C   UNL     1      38.443  56.170  45.166  1.00  0.00     0.281 C 
HETATM    4  C   UNL     1      38.139  54.977  44.327  1.00  0.00     0.018 A 
HETATM    5  C   UNL     1      38.137  53.666  44.775  1.00  0.00    -0.024 A 
HETATM    6  C   UNL     1      37.814  52.763  43.713  1.00  0.00     0.057 A 
HETATM    7  C   UNL     1      37.560  53.432  42.542  1.00  0.00     0.087 A 
HETATM    8  N   UNL     1      37.225  52.781  41.412  1.00  0.00    -0.357 N 
HETATM    9  C   UNL     1      36.670  51.437  41.576  1.00  0.00     0.243 C 
HETATM   10  N   UNL     1      37.238  50.647  42.694  1.00  0.00    -0.235 NA
HETATM   11  C   UNL     1      37.726  51.326  43.665  1.00  0.00     0.173 C 
HETATM   12  S   UNL     1      37.729  55.112  42.681  1.00  0.00    -0.074 SA
HETATM   13  C   UNL     1      38.475  53.323  46.196  1.00  0.00     0.068 C 
HETATM   14  C   UNL     1      38.472  54.573  47.097  1.00  0.00     0.240 C 
HETATM   15  H   UNL     1      36.863  53.309  40.625  1.00  0.00     0.162 HD
ENDROOT
BRANCH   9  16
HETATM   16  C   UNL     1      35.139  51.528  41.636  1.00  0.00    -0.012 A 
HETATM   17  C   UNL     1      34.367  51.852  40.502  1.00  0.00     0.050 A 
HETATM   18  C   UNL     1      32.970  51.867  40.555  1.00  0.00     0.103 A 
HETATM   19  C   UNL     1      32.332  51.533  41.756  1.00  0.00     0.112 A 
HETATM   20  C   UNL     1      33.070  51.236  42.899  1.00  0.00     0.041 A 
HETATM   21  C   UNL     1      34.464  51.259  42.843  1.00  0.00     0.014 A 
BRANCH  18  22
HETATM   22  O   UNL     1      32.161  52.141  39.481  1.00  0.00    -0.349 OA
BRANCH  22  23
HETATM   23  C   UNL     1      32.278  51.255  38.367  1.00  0.00     0.171 C 
HETATM   24  C   UNL     1      31.050  51.437  37.492  1.00  0.00     0.034 C 
ENDBRANCH  22  23
ENDBRANCH  18  22
BRANCH  19  25
HETATM   25  O   UNL     1      30.922  51.423  41.713  1.00  0.00    -0.272 OA
BRANCH  25  26
HETATM   26  C   UNL     1      30.249  50.213  41.710  1.00  0.00     0.298 C 
HETATM   27  O   UNL     1      30.403  49.279  42.480  1.00  0.00    -0.259 OA
BRANCH  26  28
HETATM   28  C   UNL     1      29.319  50.183  40.549  1.00  0.00     0.039 A 
HETATM   29  C   UNL     1      29.234  49.002  39.800  1.00  0.00     0.017 A 
HETATM   30  C   UNL     1      28.394  48.935  38.686  1.00  0.00     0.001 A 
HETATM   31  C   UNL     1      27.631  50.043  38.320  1.00  0.00     0.000 A 
HETATM   32  C   UNL     1      27.701  51.218  39.068  1.00  0.00     0.001 A 
HETATM   33  C   UNL     1      28.542  51.291  40.180  1.00  0.00     0.017 A 
ENDBRANCH  26  28
ENDBRANCH  25  26
ENDBRANCH  19  25
ENDBRANCH   9  16
BRANCH  11  34
HETATM   34  O   UNL     1      38.204  50.662  44.732  1.00  0.00    -0.344 OA
HETATM   35  H   UNL     1      38.567  49.824  44.395  1.00  0.00     0.219 HD
ENDBRANCH  11  34
BRANCH   1  36
HETATM   36  C   UNL     1      40.665  55.577  46.192  1.00  0.00     0.231 C 
HETATM   37  C   UNL     1      41.362  55.028  47.423  1.00  0.00     0.034 C 
ENDBRANCH   1  36
TORSDOF 8
ENDMDL
MODEL 9
REMARK VINA RESULT:      -7.6     14.378     17.798
REMARK  8 active torsions:
REMARK  status: ('A' for Active; 'I' for Inactive)
REMARK    1  A    between atoms: C_2  and  N_3 
REMARK    2  A    between atoms: C_11  and  C_12 
REMARK    3  A    between atoms: C_14  and  O_15 
REMARK    4  A    between atoms: O_15  and  C_16 
REMARK    5  A    between atoms: C_18  and  O_19 
REMARK    6  A    between atoms: O_19  and  C_20 
REMARK    7  A    between atoms: C_20  and  C_21 
REMARK    8  A    between atoms: C_31  and  O_32 
ROOT
HETATM    1  N   UNL     1      39.087  55.529  46.538  1.00  0.00    -0.067 N 
HETATM    2  H   UNL     1      38.900  56.349  47.127  1.00  0.00     0.280 HD
HETATM    3  C   UNL     1      38.784  55.975  45.104  1.00  0.00     0.281 C 
HETATM    4  C   UNL     1      38.606  54.797  44.211  1.00  0.00     0.018 A 
HETATM    5  C   UNL     1      38.342  53.505  44.637  1.00  0.00    -0.024 A 
HETATM    6  C   UNL     1      38.238  52.611  43.526  1.00  0.00     0.057 A 
HETATM    7  C   UNL     1      38.396  53.269  42.332  1.00  0.00     0.087 A 
HETATM    8  N   UNL     1      38.327  52.624  41.152  1.00  0.00    -0.357 N 
HETATM    9  C   UNL     1      37.611  51.348  41.149  1.00  0.00     0.243 C 
HETATM   10  N   UNL     1      37.756  50.536  42.381  1.00  0.00    -0.235 NA
HETATM   11  C   UNL     1      38.019  51.189  43.452  1.00  0.00     0.173 C 
HETATM   12  S   UNL     1      38.693  54.927  42.517  1.00  0.00    -0.074 SA
HETATM   13  C   UNL     1      38.229  53.170  46.095  1.00  0.00     0.068 C 
HETATM   14  C   UNL     1      38.102  54.438  46.961  1.00  0.00     0.240 C 
HETATM   15  H   UNL     1      38.257  53.164  40.296  1.00  0.00     0.162 HD
ENDROOT
BRANCH   9  16
HETATM   16  C   UNL     1      36.143  51.593  40.774  1.00  0.00    -0.012 A 
HETATM   17  C   UNL     1      35.081  51.127  41.575  1.00  0.00     0.050 A 
HETATM   18  C   UNL     1      33.750  51.414  41.256  1.00  0.00     0.103 A 
HETATM   19  C   UNL     1      33.476  52.197  40.128  1.00  0.00     0.112 A 
HETATM   20  C   UNL     1      34.504  52.647  39.303  1.00  0.00     0.041 A 
HETATM   21  C   UNL     1      35.826  52.324  39.613  1.00  0.00     0.014 A 
BRANCH  18  22
HETATM   22  O   UNL     1      32.675  51.019  42.011  1.00  0.00    -0.349 OA
BRANCH  22  23
HETATM   23  C   UNL     1      32.376  49.623  41.992  1.00  0.00     0.171 C 
HETATM   24  C   UNL     1      30.939  49.445  42.452  1.00  0.00     0.034 C 
ENDBRANCH  22  23
ENDBRANCH  18  22
BRANCH  19  25
HETATM   25  O   UNL     1      32.126  52.576  39.936  1.00  0.00    -0.272 OA
BRANCH  25  26
HETATM   26  C   UNL     1      31.245  51.882  39.125  1.00  0.00     0.298 C 
HETATM   27  O   UNL     1      31.452  51.457  38.000  1.00  0.00    -0.259 OA
BRANCH  26  28
HETATM   28  C   UNL     1      29.933  51.778  39.819  1.00  0.00     0.039 A 
HETATM   29  C   UNL     1      29.094  50.705  39.492  1.00  0.00     0.017 A 
HETATM   30  C   UNL     1      27.843  50.580  40.099  1.00  0.00     0.001 A 
HETATM   31  C   UNL     1      27.427  51.521  41.040  1.00  0.00     0.000 A 
HETATM   32  C   UNL     1      28.261  52.586  41.380  1.00  0.00     0.001 A 
HETATM   33  C   UNL     1      29.512  52.717  40.773  1.00  0.00     0.017 A 
ENDBRANCH  26  28
ENDBRANCH  25  26
ENDBRANCH  19  25
ENDBRANCH   9  16
BRANCH  11  34
HETATM   34  O   UNL     1      38.105  50.510  44.609  1.00  0.00    -0.344 OA
HETATM   35  H   UNL     1      37.471  50.925  45.220  1.00  0.00     0.219 HD
ENDBRANCH  11  34
BRANCH   1  36
HETATM   36  C   UNL     1      40.553  55.191  46.715  1.00  0.00     0.231 C 
HETATM   37  C   UNL     1      40.785  54.441  48.014  1.00  0.00     0.034 C 
ENDBRANCH   1  36
TORSDOF 8
ENDMDL
MODEL 10
REMARK VINA RESULT:      -7.6      5.930      9.821
REMARK  8 active torsions:
REMARK  status: ('A' for Active; 'I' for Inactive)
REMARK    1  A    between atoms: C_2  and  N_3 
REMARK    2  A    between atoms: C_11  and  C_12 
REMARK    3  A    between atoms: C_14  and  O_15 
REMARK    4  A    between atoms: O_15  and  C_16 
REMARK    5  A    between atoms: C_18  and  O_19 
REMARK    6  A    between atoms: O_19  and  C_20 
REMARK    7  A    between atoms: C_20  and  C_21 
REMARK    8  A    between atoms: C_31  and  O_32 
ROOT
HETATM    1  N   UNL     1      29.886  38.108  42.860  1.00  0.00    -0.067 N 
HETATM    2  H   UNL     1      30.754  38.210  42.321  1.00  0.00     0.280 HD
HETATM    3  C   UNL     1      29.422  39.535  43.169  1.00  0.00     0.281 C 
HETATM    4  C   UNL     1      28.429  39.538  44.279  1.00  0.00     0.018 A 
HETATM    5  C   UNL     1      28.237  38.505  45.182  1.00  0.00    -0.024 A 
HETATM    6  C   UNL     1      27.202  38.825  46.114  1.00  0.00     0.057 A 
HETATM    7  C   UNL     1      26.693  40.080  45.891  1.00  0.00     0.087 A 
HETATM    8  N   UNL     1      25.713  40.595  46.657  1.00  0.00    -0.357 N 
HETATM    9  C   UNL     1      25.555  40.011  47.990  1.00  0.00     0.243 C 
HETATM   10  N   UNL     1      25.821  38.556  48.081  1.00  0.00    -0.235 NA
HETATM   11  C   UNL     1      26.615  38.077  47.196  1.00  0.00     0.173 C 
HETATM   12  S   UNL     1      27.409  40.868  44.573  1.00  0.00    -0.074 SA
HETATM   13  C   UNL     1      29.033  37.236  45.099  1.00  0.00     0.068 C 
HETATM   14  C   UNL     1      30.246  37.386  44.160  1.00  0.00     0.240 C 
HETATM   15  H   UNL     1      25.496  41.583  46.587  1.00  0.00     0.162 HD
ENDROOT
BRANCH   9  16
HETATM   16  C   UNL     1      26.377  40.825  48.998  1.00  0.00    -0.012 A 
HETATM   17  C   UNL     1      26.471  42.229  48.923  1.00  0.00     0.050 A 
HETATM   18  C   UNL     1      27.169  42.964  49.885  1.00  0.00     0.103 A 
HETATM   19  C   UNL     1      27.768  42.286  50.954  1.00  0.00     0.112 A 
HETATM   20  C   UNL     1      27.715  40.897  51.039  1.00  0.00     0.041 A 
HETATM   21  C   UNL     1      27.045  40.172  50.053  1.00  0.00     0.014 A 
BRANCH  18  22
HETATM   22  O   UNL     1      27.269  44.332  49.887  1.00  0.00    -0.349 OA
BRANCH  22  23
HETATM   23  C   UNL     1      26.035  45.050  49.885  1.00  0.00     0.171 C 
HETATM   24  C   UNL     1      26.142  46.171  50.904  1.00  0.00     0.034 C 
ENDBRANCH  22  23
ENDBRANCH  18  22
BRANCH  19  25
HETATM   25  O   UNL     1      28.335  43.088  51.973  1.00  0.00    -0.272 OA
BRANCH  25  26
HETATM   26  C   UNL     1      27.662  43.443  53.130  1.00  0.00     0.298 C 
HETATM   27  O   UNL     1      26.455  43.459  53.308  1.00  0.00    -0.259 OA
BRANCH  26  28
HETATM   28  C   UNL     1      28.654  43.883  54.147  1.00  0.00     0.039 A 
HETATM   29  C   UNL     1      29.721  43.026  54.444  1.00  0.00     0.017 A 
HETATM   30  C   UNL     1      30.664  43.385  55.410  1.00  0.00     0.001 A 
HETATM   31  C   UNL     1      30.549  44.604  56.077  1.00  0.00     0.000 A 
HETATM   32  C   UNL     1      29.497  45.469  55.778  1.00  0.00     0.001 A 
HETATM   33  C   UNL     1      28.550  45.112  54.816  1.00  0.00     0.017 A 
ENDBRANCH  26  28
ENDBRANCH  25  26
ENDBRANCH  19  25
ENDBRANCH   9  16
BRANCH  11  34
HETATM   34  O   UNL     1      26.937  36.774  47.266  1.00  0.00    -0.344 OA
HETATM   35  H   UNL     1      26.698  36.385  46.406  1.00  0.00     0.219 HD
ENDBRANCH  11  34
BRANCH   1  36
HETATM   36  C   UNL     1      28.900  37.386  41.963  1.00  0.00     0.231 C 
HETATM   37  C   UNL     1      28.500  38.254  40.784  1.00  0.00     0.034 C 
ENDBRANCH   1  36
TORSDOF 8
ENDMDL
