MODEL 1
REMARK VINA RESULT:      -9.3      0.000      0.000
REMARK  5 active torsions:
REMARK  status: ('A' for Active; 'I' for Inactive)
REMARK    1  A    between atoms: C_8  and  C_9 
REMARK    2  A    between atoms: N_10  and  N_11 
REMARK       I    between atoms: N_11  and  C_12 
REMARK    3  A    between atoms: C_12  and  C_13 
REMARK    4  A    between atoms: C_13  and  O_14 
REMARK    5  A    between atoms: O_14  and  C_15 
ROOT
HETATM    1  N   UNL     1      26.135  46.509  52.278  1.00  0.00    -0.246 N 
HETATM    2  C   UNL     1      26.055  46.506  53.665  1.00  0.00     0.261 C 
HETATM    3  O   UNL     1      25.695  47.440  54.378  1.00  0.00    -0.269 OA
HETATM    4  H   UNL     1      26.247  45.602  51.826  1.00  0.00     0.192 HD
ENDROOT
BRANCH   1   5
HETATM    5  N   UNL     1      25.726  47.509  51.427  1.00  0.00    -0.184 NA
HETATM    6  C   UNL     1      26.083  47.470  50.184  1.00  0.00     0.152 C 
BRANCH   6   7
HETATM    7  C   UNL     1      25.698  48.547  49.293  1.00  0.00     0.011 A 
HETATM    8  C   UNL     1      24.362  48.948  48.963  1.00  0.00     0.004 A 
HETATM    9  C   UNL     1      23.078  48.489  49.330  1.00  0.00     0.014 A 
HETATM   10  C   UNL     1      24.454  50.020  48.075  1.00  0.00     0.043 A 
HETATM   11  C   UNL     1      21.944  49.113  48.799  1.00  0.00     0.001 A 
HETATM   12  C   UNL     1      22.071  50.183  47.917  1.00  0.00     0.002 A 
HETATM   13  C   UNL     1      23.329  50.659  47.539  1.00  0.00     0.030 A 
HETATM   14  N   UNL     1      25.793  50.265  47.873  1.00  0.00    -0.364 N 
HETATM   15  H   UNL     1      26.159  50.989  47.271  1.00  0.00     0.165 HD
HETATM   16  C   UNL     1      26.550  49.382  48.594  1.00  0.00     0.102 A 
ENDBRANCH   6   7
ENDBRANCH   1   5
BRANCH   2  17
HETATM   17  C   UNL     1      26.543  45.199  54.289  1.00  0.00     0.280 C 
BRANCH  17  18
HETATM   18  O   UNL     1      27.753  44.746  53.690  1.00  0.00    -0.341 OA
BRANCH  18  19
HETATM   19  C   UNL     1      28.794  44.529  54.558  1.00  0.00     0.086 A 
HETATM   20  C   UNL     1      29.532  43.344  54.405  1.00  0.00     0.045 A 
HETATM   21 BR   UNL     1      29.095  42.076  53.061  1.00  0.00    -0.048 Br
HETATM   22  C   UNL     1      30.604  43.057  55.255  1.00  0.00     0.046 A 
HETATM   23  C   UNL     1      30.950  43.962  56.252  1.00  0.00     0.035 A 
HETATM   24 CL   UNL     1      32.264  43.614  57.308  1.00  0.00    -0.084 Cl
HETATM   25  C   UNL     1      30.243  45.154  56.402  1.00  0.00     0.026 A 
HETATM   26  C   UNL     1      29.170  45.439  55.552  1.00  0.00     0.040 A 
ENDBRANCH  18  19
ENDBRANCH  17  18
ENDBRANCH   2  17
TORSDOF 5
ENDMDL
MODEL 2
REMARK VINA RESULT:      -9.1      1.754      2.244
REMARK  5 active torsions:
REMARK  status: ('A' for Active; 'I' for Inactive)
REMARK    1  A    between atoms: C_8  and  C_9 
REMARK    2  A    between atoms: N_10  and  N_11 
REMARK       I    between atoms: N_11  and  C_12 
REMARK    3  A    between atoms: C_12  and  C_13 
REMARK    4  A    between atoms: C_13  and  O_14 
REMARK    5  A    between atoms: O_14  and  C_15 
ROOT
HETATM    1  N   UNL     1      26.575  45.588  50.993  1.00  0.00    -0.246 N 
HETATM    2  C   UNL     1      27.147  44.346  50.751  1.00  0.00     0.261 C 
HETATM    3  O   UNL     1      27.261  43.794  49.658  1.00  0.00    -0.269 OA
HETATM    4  H   UNL     1      26.743  45.996  51.912  1.00  0.00     0.192 HD
ENDROOT
BRANCH   1   5
HETATM    5  N   UNL     1      26.126  46.490  50.057  1.00  0.00    -0.184 NA
HETATM    6  C   UNL     1      26.333  47.754  50.242  1.00  0.00     0.152 C 
BRANCH   6   7
HETATM    7  C   UNL     1      25.819  48.713  49.284  1.00  0.00     0.011 A 
HETATM    8  C   UNL     1      24.441  48.998  49.015  1.00  0.00     0.004 A 
HETATM    9  C   UNL     1      23.218  48.501  49.515  1.00  0.00     0.014 A 
HETATM   10  C   UNL     1      24.402  49.981  48.025  1.00  0.00     0.043 A 
HETATM   11  C   UNL     1      22.011  48.999  49.012  1.00  0.00     0.001 A 
HETATM   12  C   UNL     1      22.007  49.983  48.026  1.00  0.00     0.002 A 
HETATM   13  C   UNL     1      23.203  50.495  47.515  1.00  0.00     0.030 A 
HETATM   14  N   UNL     1      25.705  50.284  47.705  1.00  0.00    -0.364 N 
HETATM   15  H   UNL     1      25.981  50.966  47.013  1.00  0.00     0.165 HD
HETATM   16  C   UNL     1      26.565  49.524  48.449  1.00  0.00     0.102 A 
ENDBRANCH   6   7
ENDBRANCH   1   5
BRANCH   2  17
HETATM   17  C   UNL     1      27.592  43.634  52.028  1.00  0.00     0.280 C 
BRANCH  17  18
HETATM   18  O   UNL     1      27.688  44.532  53.129  1.00  0.00    -0.341 OA
BRANCH  18  19
HETATM   19  C   UNL     1      28.701  44.269  54.017  1.00  0.00     0.086 A 
HETATM   20  C   UNL     1      28.953  45.222  55.018  1.00  0.00     0.045 A 
HETATM   21 BR   UNL     1      27.944  46.827  55.127  1.00  0.00    -0.048 Br
HETATM   22  C   UNL     1      29.970  45.021  55.955  1.00  0.00     0.046 A 
HETATM   23  C   UNL     1      30.730  43.857  55.901  1.00  0.00     0.035 A 
HETATM   24 CL   UNL     1      31.990  43.603  57.046  1.00  0.00    -0.084 Cl
HETATM   25  C   UNL     1      30.477  42.891  54.930  1.00  0.00     0.026 A 
HETATM   26  C   UNL     1      29.460  43.094  53.992  1.00  0.00     0.040 A 
ENDBRANCH  18  19
ENDBRANCH  17  18
ENDBRANCH   2  17
TORSDOF 5
ENDMDL
MODEL 3
REMARK VINA RESULT:      -8.6      4.603      9.766
REMARK  5 active torsions:
REMARK  status: ('A' for Active; 'I' for Inactive)
REMARK    1  A    between atoms: C_8  and  C_9 
REMARK    2  A    between atoms: N_10  and  N_11 
REMARK       I    between atoms: N_11  and  C_12 
REMARK    3  A    between atoms: C_12  and  C_13 
REMARK    4  A    between atoms: C_13  and  O_14 
REMARK    5  A    between atoms: O_14  and  C_15 
ROOT
HETATM    1  N   UNL     1      24.942  46.740  51.691  1.00  0.00    -0.246 N 
HETATM    2  C   UNL     1      25.059  46.788  50.308  1.00  0.00     0.261 C 
HETATM    3  O   UNL     1      26.089  46.992  49.669  1.00  0.00    -0.269 OA
HETATM    4  H   UNL     1      24.073  46.357  52.063  1.00  0.00     0.192 HD
ENDROOT
BRANCH   1   5
HETATM    5  N   UNL     1      25.962  46.800  52.611  1.00  0.00    -0.184 NA
HETATM    6  C   UNL     1      26.345  45.716  53.206  1.00  0.00     0.152 C 
BRANCH   6   7
HETATM    7  C   UNL     1      27.385  45.780  54.214  1.00  0.00     0.011 A 
HETATM    8  C   UNL     1      28.455  44.846  54.399  1.00  0.00     0.004 A 
HETATM    9  C   UNL     1      28.840  43.651  53.754  1.00  0.00     0.014 A 
HETATM   10  C   UNL     1      29.219  45.292  55.480  1.00  0.00     0.043 A 
HETATM   11  C   UNL     1      29.964  42.951  54.208  1.00  0.00     0.001 A 
HETATM   12  C   UNL     1      30.706  43.425  55.287  1.00  0.00     0.002 A 
HETATM   13  C   UNL     1      30.349  44.607  55.943  1.00  0.00     0.030 A 
HETATM   14  N   UNL     1      28.638  46.454  55.933  1.00  0.00    -0.364 N 
HETATM   15  H   UNL     1      28.979  46.998  56.712  1.00  0.00     0.165 HD
HETATM   16  C   UNL     1      27.532  46.754  55.186  1.00  0.00     0.102 A 
ENDBRANCH   6   7
ENDBRANCH   1   5
BRANCH   2  17
HETATM   17  C   UNL     1      23.721  46.628  49.589  1.00  0.00     0.280 C 
BRANCH  17  18
HETATM   18  O   UNL     1      23.651  47.433  48.416  1.00  0.00    -0.341 OA
BRANCH  18  19
HETATM   19  C   UNL     1      22.753  48.470  48.465  1.00  0.00     0.086 A 
HETATM   20  C   UNL     1      23.253  49.772  48.301  1.00  0.00     0.045 A 
HETATM   21 BR   UNL     1      25.108  50.091  48.041  1.00  0.00    -0.048 Br
HETATM   22  C   UNL     1      22.397  50.876  48.342  1.00  0.00     0.046 A 
HETATM   23  C   UNL     1      21.033  50.678  48.534  1.00  0.00     0.035 A 
HETATM   24 CL   UNL     1      19.972  52.031  48.594  1.00  0.00    -0.084 Cl
HETATM   25  C   UNL     1      20.518  49.392  48.675  1.00  0.00     0.026 A 
HETATM   26  C   UNL     1      21.376  48.289  48.634  1.00  0.00     0.040 A 
ENDBRANCH  18  19
ENDBRANCH  17  18
ENDBRANCH   2  17
TORSDOF 5
ENDMDL
MODEL 4
REMARK VINA RESULT:      -8.5      5.141      8.484
REMARK  5 active torsions:
REMARK  status: ('A' for Active; 'I' for Inactive)
REMARK    1  A    between atoms: C_8  and  C_9 
REMARK    2  A    between atoms: N_10  and  N_11 
REMARK       I    between atoms: N_11  and  C_12 
REMARK    3  A    between atoms: C_12  and  C_13 
REMARK    4  A    between atoms: C_13  and  O_14 
REMARK    5  A    between atoms: O_14  and  C_15 
ROOT
HETATM    1  N   UNL     1      26.471  43.879  51.687  1.00  0.00    -0.246 N 
HETATM    2  C   UNL     1      26.823  44.063  50.356  1.00  0.00     0.261 C 
HETATM    3  O   UNL     1      27.544  44.953  49.908  1.00  0.00    -0.269 OA
HETATM    4  H   UNL     1      26.044  42.984  51.926  1.00  0.00     0.192 HD
ENDROOT
BRANCH   1   5
HETATM    5  N   UNL     1      26.941  44.579  52.773  1.00  0.00    -0.184 NA
HETATM    6  C   UNL     1      28.056  44.222  53.324  1.00  0.00     0.152 C 
BRANCH   6   7
HETATM    7  C   UNL     1      28.532  44.925  54.500  1.00  0.00     0.011 A 
HETATM    8  C   UNL     1      29.559  44.490  55.398  1.00  0.00     0.004 A 
HETATM    9  C   UNL     1      30.384  43.347  55.471  1.00  0.00     0.014 A 
HETATM   10  C   UNL     1      29.693  45.468  56.386  1.00  0.00     0.043 A 
HETATM   11  C   UNL     1      31.303  43.222  56.519  1.00  0.00     0.001 A 
HETATM   12  C   UNL     1      31.413  44.217  57.487  1.00  0.00     0.002 A 
HETATM   13  C   UNL     1      30.611  45.361  57.438  1.00  0.00     0.030 A 
HETATM   14  N   UNL     1      28.784  46.459  56.099  1.00  0.00    -0.364 N 
HETATM   15  H   UNL     1      28.656  47.296  56.650  1.00  0.00     0.165 HD
HETATM   16  C   UNL     1      28.075  46.142  54.973  1.00  0.00     0.102 A 
ENDBRANCH   6   7
ENDBRANCH   1   5
BRANCH   2  17
HETATM   17  C   UNL     1      26.155  43.061  49.416  1.00  0.00     0.280 C 
BRANCH  17  18
HETATM   18  O   UNL     1      27.095  42.459  48.530  1.00  0.00    -0.341 OA
BRANCH  18  19
HETATM   19  C   UNL     1      27.688  41.311  48.991  1.00  0.00     0.086 A 
HETATM   20  C   UNL     1      28.215  40.423  48.039  1.00  0.00     0.045 A 
HETATM   21 BR   UNL     1      28.093  40.786  46.179  1.00  0.00    -0.048 Br
HETATM   22  C   UNL     1      28.831  39.234  48.437  1.00  0.00     0.046 A 
HETATM   23  C   UNL     1      28.934  38.935  49.792  1.00  0.00     0.035 A 
HETATM   24 CL   UNL     1      29.685  37.470  50.292  1.00  0.00    -0.084 Cl
HETATM   25  C   UNL     1      28.439  39.817  50.750  1.00  0.00     0.026 A 
HETATM   26  C   UNL     1      27.821  41.006  50.350  1.00  0.00     0.040 A 
ENDBRANCH  18  19
ENDBRANCH  17  18
ENDBRANCH   2  17
TORSDOF 5
ENDMDL
MODEL 5
REMARK VINA RESULT:      -8.4      4.570      9.801
REMARK  5 active torsions:
REMARK  status: ('A' for Active; 'I' for Inactive)
REMARK    1  A    between atoms: C_8  and  C_9 
REMARK    2  A    between atoms: N_10  and  N_11 
REMARK       I    between atoms: N_11  and  C_12 
REMARK    3  A    between atoms: C_12  and  C_13 
REMARK    4  A    between atoms: C_13  and  O_14 
REMARK    5  A    between atoms: O_14  and  C_15 
ROOT
HETATM    1  N   UNL     1      25.829  45.370  51.199  1.00  0.00    -0.246 N 
HETATM    2  C   UNL     1      25.575  46.619  50.649  1.00  0.00     0.261 C 
HETATM    3  O   UNL     1      26.345  47.577  50.625  1.00  0.00    -0.269 OA
HETATM    4  H   UNL     1      25.178  44.623  50.957  1.00  0.00     0.192 HD
ENDROOT
BRANCH   1   5
HETATM    5  N   UNL     1      27.020  44.921  51.722  1.00  0.00    -0.184 NA
HETATM    6  C   UNL     1      27.037  44.399  52.906  1.00  0.00     0.152 C 
BRANCH   6   7
HETATM    7  C   UNL     1      28.296  43.971  53.483  1.00  0.00     0.011 A 
HETATM    8  C   UNL     1      28.915  44.489  54.667  1.00  0.00     0.004 A 
HETATM    9  C   UNL     1      28.574  45.498  55.594  1.00  0.00     0.014 A 
HETATM   10  C   UNL     1      30.110  43.793  54.854  1.00  0.00     0.043 A 
HETATM   11  C   UNL     1      29.432  45.772  56.664  1.00  0.00     0.001 A 
HETATM   12  C   UNL     1      30.616  45.057  56.824  1.00  0.00     0.002 A 
HETATM   13  C   UNL     1      30.977  44.052  55.923  1.00  0.00     0.030 A 
HETATM   14  N   UNL     1      30.214  42.885  53.826  1.00  0.00    -0.364 N 
HETATM   15  H   UNL     1      30.985  42.243  53.705  1.00  0.00     0.165 HD
HETATM   16  C   UNL     1      29.135  42.987  52.992  1.00  0.00     0.102 A 
ENDBRANCH   6   7
ENDBRANCH   1   5
BRANCH   2  17
HETATM   17  C   UNL     1      24.155  46.754  50.102  1.00  0.00     0.280 C 
BRANCH  17  18
HETATM   18  O   UNL     1      24.127  47.473  48.873  1.00  0.00    -0.341 OA
BRANCH  18  19
HETATM   19  C   UNL     1      23.192  48.474  48.797  1.00  0.00     0.086 A 
HETATM   20  C   UNL     1      23.636  49.753  48.422  1.00  0.00     0.045 A 
HETATM   21 BR   UNL     1      25.469  50.092  48.053  1.00  0.00    -0.048 Br
HETATM   22  C   UNL     1      22.739  50.820  48.326  1.00  0.00     0.046 A 
HETATM   23  C   UNL     1      21.390  50.608  48.592  1.00  0.00     0.035 A 
HETATM   24 CL   UNL     1      20.279  51.917  48.483  1.00  0.00    -0.084 Cl
HETATM   25  C   UNL     1      20.930  49.340  48.941  1.00  0.00     0.026 A 
HETATM   26  C   UNL     1      21.829  48.274  49.038  1.00  0.00     0.040 A 
ENDBRANCH  18  19
ENDBRANCH  17  18
ENDBRANCH   2  17
TORSDOF 5
ENDMDL
MODEL 6
REMARK VINA RESULT:      -8.2      5.768      7.706
REMARK  5 active torsions:
REMARK  status: ('A' for Active; 'I' for Inactive)
REMARK    1  A    between atoms: C_8  and  C_9 
REMARK    2  A    between atoms: N_10  and  N_11 
REMARK       I    between atoms: N_11  and  C_12 
REMARK    3  A    between atoms: C_12  and  C_13 
REMARK    4  A    between atoms: C_13  and  O_14 
REMARK    5  A    between atoms: O_14  and  C_15 
ROOT
HETATM    1  N   UNL     1      27.062  41.555  52.013  1.00  0.00    -0.246 N 
HETATM    2  C   UNL     1      26.741  42.898  51.863  1.00  0.00     0.261 C 
HETATM    3  O   UNL     1      26.532  43.485  50.803  1.00  0.00    -0.269 OA
HETATM    4  H   UNL     1      26.999  41.173  52.956  1.00  0.00     0.192 HD
ENDROOT
BRANCH   1   5
HETATM    5  N   UNL     1      27.101  40.597  51.027  1.00  0.00    -0.184 NA
HETATM    6  C   UNL     1      28.225  40.334  50.441  1.00  0.00     0.152 C 
BRANCH   6   7
HETATM    7  C   UNL     1      28.263  39.362  49.366  1.00  0.00     0.011 A 
HETATM    8  C   UNL     1      28.203  39.637  47.962  1.00  0.00     0.004 A 
HETATM    9  C   UNL     1      28.085  40.817  47.195  1.00  0.00     0.014 A 
HETATM   10  C   UNL     1      28.269  38.414  47.292  1.00  0.00     0.043 A 
HETATM   11  C   UNL     1      28.038  40.732  45.799  1.00  0.00     0.001 A 
HETATM   12  C   UNL     1      28.110  39.496  45.161  1.00  0.00     0.002 A 
HETATM   13  C   UNL     1      28.229  38.313  45.896  1.00  0.00     0.030 A 
HETATM   14  N   UNL     1      28.368  37.433  48.250  1.00  0.00    -0.364 N 
HETATM   15  H   UNL     1      28.430  36.444  48.054  1.00  0.00     0.165 HD
HETATM   16  C   UNL     1      28.358  37.989  49.501  1.00  0.00     0.102 A 
ENDBRANCH   6   7
ENDBRANCH   1   5
BRANCH   2  17
HETATM   17  C   UNL     1      26.733  43.662  53.186  1.00  0.00     0.280 C 
BRANCH  17  18
HETATM   18  O   UNL     1      27.774  44.633  53.242  1.00  0.00    -0.341 OA
BRANCH  18  19
HETATM   19  C   UNL     1      28.776  44.370  54.143  1.00  0.00     0.086 A 
HETATM   20  C   UNL     1      29.019  45.326  55.143  1.00  0.00     0.045 A 
HETATM   21 BR   UNL     1      28.014  46.936  55.234  1.00  0.00    -0.048 Br
HETATM   22  C   UNL     1      30.024  45.126  56.093  1.00  0.00     0.046 A 
HETATM   23  C   UNL     1      30.781  43.959  56.053  1.00  0.00     0.035 A 
HETATM   24 CL   UNL     1      32.026  43.706  57.214  1.00  0.00    -0.084 Cl
HETATM   25  C   UNL     1      30.536  42.990  55.083  1.00  0.00     0.026 A 
HETATM   26  C   UNL     1      29.531  43.192  54.133  1.00  0.00     0.040 A 
ENDBRANCH  18  19
ENDBRANCH  17  18
ENDBRANCH   2  17
TORSDOF 5
ENDMDL
MODEL 7
REMARK VINA RESULT:      -8.1      6.849      9.855
REMARK  5 active torsions:
REMARK  status: ('A' for Active; 'I' for Inactive)
REMARK    1  A    between atoms: C_8  and  C_9 
REMARK    2  A    between atoms: N_10  and  N_11 
REMARK       I    between atoms: N_11  and  C_12 
REMARK    3  A    between atoms: C_12  and  C_13 
REMARK    4  A    between atoms: C_13  and  O_14 
REMARK    5  A    between atoms: O_14  and  C_15 
ROOT
HETATM    1  N   UNL     1      29.119  41.103  52.444  1.00  0.00    -0.246 N 
HETATM    2  C   UNL     1      28.148  40.842  51.486  1.00  0.00     0.261 C 
HETATM    3  O   UNL     1      27.007  41.299  51.459  1.00  0.00    -0.269 OA
HETATM    4  H   UNL     1      30.072  40.819  52.218  1.00  0.00     0.192 HD
ENDROOT
BRANCH   1   5
HETATM    5  N   UNL     1      29.038  42.002  53.482  1.00  0.00    -0.184 NA
HETATM    6  C   UNL     1      29.341  43.242  53.272  1.00  0.00     0.152 C 
BRANCH   6   7
HETATM    7  C   UNL     1      29.307  44.185  54.374  1.00  0.00     0.011 A 
HETATM    8  C   UNL     1      30.112  44.147  55.558  1.00  0.00     0.004 A 
HETATM    9  C   UNL     1      31.111  43.274  56.040  1.00  0.00     0.014 A 
HETATM   10  C   UNL     1      29.750  45.240  56.346  1.00  0.00     0.043 A 
HETATM   11  C   UNL     1      31.707  43.523  57.282  1.00  0.00     0.001 A 
HETATM   12  C   UNL     1      31.325  44.625  58.042  1.00  0.00     0.002 A 
HETATM   13  C   UNL     1      30.340  45.507  57.588  1.00  0.00     0.030 A 
HETATM   14  N   UNL     1      28.765  45.919  55.668  1.00  0.00    -0.364 N 
HETATM   15  H   UNL     1      28.310  46.756  56.004  1.00  0.00     0.165 HD
HETATM   16  C   UNL     1      28.484  45.291  54.485  1.00  0.00     0.102 A 
ENDBRANCH   6   7
ENDBRANCH   1   5
BRANCH   2  17
HETATM   17  C   UNL     1      28.601  39.827  50.437  1.00  0.00     0.280 C 
BRANCH  17  18
HETATM   18  O   UNL     1      27.515  39.379  49.632  1.00  0.00    -0.341 OA
BRANCH  18  19
HETATM   19  C   UNL     1      27.662  39.577  48.282  1.00  0.00     0.086 A 
HETATM   20  C   UNL     1      27.393  38.492  47.432  1.00  0.00     0.045 A 
HETATM   21 BR   UNL     1      26.863  36.804  48.125  1.00  0.00    -0.048 Br
HETATM   22  C   UNL     1      27.524  38.620  46.046  1.00  0.00     0.046 A 
HETATM   23  C   UNL     1      27.913  39.842  45.506  1.00  0.00     0.035 A 
HETATM   24 CL   UNL     1      28.084  40.009  43.801  1.00  0.00    -0.084 Cl
HETATM   25  C   UNL     1      28.160  40.935  46.333  1.00  0.00     0.026 A 
HETATM   26  C   UNL     1      28.030  40.804  47.719  1.00  0.00     0.040 A 
ENDBRANCH  18  19
ENDBRANCH  17  18
ENDBRANCH   2  17
TORSDOF 5
ENDMDL
MODEL 8
REMARK VINA RESULT:      -8.1      2.482      3.275
REMARK  5 active torsions:
REMARK  status: ('A' for Active; 'I' for Inactive)
REMARK    1  A    between atoms: C_8  and  C_9 
REMARK    2  A    between atoms: N_10  and  N_11 
REMARK       I    between atoms: N_11  and  C_12 
REMARK    3  A    between atoms: C_12  and  C_13 
REMARK    4  A    between atoms: C_13  and  O_14 
REMARK    5  A    between atoms: O_14  and  C_15 
ROOT
HETATM    1  N   UNL     1      24.884  46.363  50.499  1.00  0.00    -0.246 N 
HETATM    2  C   UNL     1      25.063  45.349  51.431  1.00  0.00     0.261 C 
HETATM    3  O   UNL     1      24.219  44.530  51.790  1.00  0.00    -0.269 OA
HETATM    4  H   UNL     1      25.728  46.821  50.157  1.00  0.00     0.192 HD
ENDROOT
BRANCH   1   5
HETATM    5  N   UNL     1      23.774  46.584  49.718  1.00  0.00    -0.184 NA
HETATM    6  C   UNL     1      23.533  47.778  49.282  1.00  0.00     0.152 C 
BRANCH   6   7
HETATM    7  C   UNL     1      22.338  48.027  48.500  1.00  0.00     0.011 A 
HETATM    8  C   UNL     1      21.582  49.244  48.456  1.00  0.00     0.004 A 
HETATM    9  C   UNL     1      21.700  50.498  49.093  1.00  0.00     0.014 A 
HETATM   10  C   UNL     1      20.515  49.043  47.579  1.00  0.00     0.043 A 
HETATM   11  C   UNL     1      20.755  51.497  48.834  1.00  0.00     0.001 A 
HETATM   12  C   UNL     1      19.704  51.265  47.950  1.00  0.00     0.002 A 
HETATM   13  C   UNL     1      19.564  50.034  47.304  1.00  0.00     0.030 A 
HETATM   14  N   UNL     1      20.617  47.756  47.105  1.00  0.00    -0.364 N 
HETATM   15  H   UNL     1      19.974  47.333  46.450  1.00  0.00     0.165 HD
HETATM   16  C   UNL     1      21.704  47.133  47.656  1.00  0.00     0.102 A 
ENDBRANCH   6   7
ENDBRANCH   1   5
BRANCH   2  17
HETATM   17  C   UNL     1      26.449  45.363  52.073  1.00  0.00     0.280 C 
BRANCH  17  18
HETATM   18  O   UNL     1      26.382  45.176  53.484  1.00  0.00    -0.341 OA
BRANCH  18  19
HETATM   19  C   UNL     1      27.538  44.732  54.075  1.00  0.00     0.086 A 
HETATM   20  C   UNL     1      28.225  45.625  54.913  1.00  0.00     0.045 A 
HETATM   21 BR   UNL     1      27.590  47.392  55.203  1.00  0.00    -0.048 Br
HETATM   22  C   UNL     1      29.409  45.242  55.547  1.00  0.00     0.046 A 
HETATM   23  C   UNL     1      29.904  43.956  55.354  1.00  0.00     0.035 A 
HETATM   24 CL   UNL     1      31.366  43.475  56.125  1.00  0.00    -0.084 Cl
HETATM   25  C   UNL     1      29.222  43.050  54.545  1.00  0.00     0.026 A 
HETATM   26  C   UNL     1      28.037  43.436  53.911  1.00  0.00     0.040 A 
ENDBRANCH  18  19
ENDBRANCH  17  18
ENDBRANCH   2  17
TORSDOF 5
ENDMDL
MODEL 9
REMARK VINA RESULT:      -7.9      5.841     10.555
REMARK  5 active torsions:
REMARK  status: ('A' for Active; 'I' for Inactive)
REMARK    1  A    between atoms: C_8  and  C_9 
REMARK    2  A    between atoms: N_10  and  N_11 
REMARK       I    between atoms: N_11  and  C_12 
REMARK    3  A    between atoms: C_12  and  C_13 
REMARK    4  A    between atoms: C_13  and  O_14 
REMARK    5  A    between atoms: O_14  and  C_15 
ROOT
HETATM    1  N   UNL     1      23.590  47.967  49.982  1.00  0.00    -0.246 N 
HETATM    2  C   UNL     1      22.811  48.354  48.899  1.00  0.00     0.261 C 
HETATM    3  O   UNL     1      22.868  47.897  47.759  1.00  0.00    -0.269 OA
HETATM    4  H   UNL     1      23.284  48.286  50.901  1.00  0.00     0.192 HD
ENDROOT
BRANCH   1   5
HETATM    5  N   UNL     1      24.494  46.931  50.025  1.00  0.00    -0.184 NA
HETATM    6  C   UNL     1      25.011  46.587  51.160  1.00  0.00     0.152 C 
BRANCH   6   7
HETATM    7  C   UNL     1      26.001  45.529  51.205  1.00  0.00     0.011 A 
HETATM    8  C   UNL     1      26.755  45.111  52.349  1.00  0.00     0.004 A 
HETATM    9  C   UNL     1      26.814  45.532  53.696  1.00  0.00     0.014 A 
HETATM   10  C   UNL     1      27.589  44.067  51.944  1.00  0.00     0.043 A 
HETATM   11  C   UNL     1      27.697  44.901  54.579  1.00  0.00     0.001 A 
HETATM   12  C   UNL     1      28.513  43.861  54.143  1.00  0.00     0.002 A 
HETATM   13  C   UNL     1      28.474  43.422  52.816  1.00  0.00     0.030 A 
HETATM   14  N   UNL     1      27.351  43.857  50.605  1.00  0.00    -0.364 N 
HETATM   15  H   UNL     1      27.818  43.159  50.043  1.00  0.00     0.165 HD
HETATM   16  C   UNL     1      26.405  44.733  50.148  1.00  0.00     0.102 A 
ENDBRANCH   6   7
ENDBRANCH   1   5
BRANCH   2  17
HETATM   17  C   UNL     1      21.865  49.509  49.224  1.00  0.00     0.280 C 
BRANCH  17  18
HETATM   18  O   UNL     1      20.673  49.451  48.446  1.00  0.00    -0.341 OA
BRANCH  18  19
HETATM   19  C   UNL     1      19.727  50.399  48.747  1.00  0.00     0.086 A 
HETATM   20  C   UNL     1      18.688  50.028  49.616  1.00  0.00     0.045 A 
HETATM   21 BR   UNL     1      18.581  48.272  50.333  1.00  0.00    -0.048 Br
HETATM   22  C   UNL     1      17.689  50.941  49.965  1.00  0.00     0.046 A 
HETATM   23  C   UNL     1      17.735  52.234  49.455  1.00  0.00     0.035 A 
HETATM   24 CL   UNL     1      16.506  53.364  49.873  1.00  0.00    -0.084 Cl
HETATM   25  C   UNL     1      18.773  52.625  48.612  1.00  0.00     0.026 A 
HETATM   26  C   UNL     1      19.771  51.710  48.263  1.00  0.00     0.040 A 
ENDBRANCH  18  19
ENDBRANCH  17  18
ENDBRANCH   2  17
TORSDOF 5
ENDMDL
MODEL 10
REMARK VINA RESULT:      -7.9      4.392      9.206
REMARK  5 active torsions:
REMARK  status: ('A' for Active; 'I' for Inactive)
REMARK    1  A    between atoms: C_8  and  C_9 
REMARK    2  A    between atoms: N_10  and  N_11 
REMARK       I    between atoms: N_11  and  C_12 
REMARK    3  A    between atoms: C_12  and  C_13 
REMARK    4  A    between atoms: C_13  and  O_14 
REMARK    5  A    between atoms: O_14  and  C_15 
ROOT
HETATM    1  N   UNL     1      26.239  44.679  51.310  1.00  0.00    -0.246 N 
HETATM    2  C   UNL     1      26.203  44.248  49.990  1.00  0.00     0.261 C 
HETATM    3  O   UNL     1      27.163  43.887  49.313  1.00  0.00    -0.269 OA
HETATM    4  H   UNL     1      25.345  44.742  51.794  1.00  0.00     0.192 HD
ENDROOT
BRANCH   1   5
HETATM    5  N   UNL     1      27.329  44.684  52.150  1.00  0.00    -0.184 NA
HETATM    6  C   UNL     1      27.645  43.602  52.785  1.00  0.00     0.152 C 
BRANCH   6   7
HETATM    7  C   UNL     1      28.761  43.615  53.710  1.00  0.00     0.011 A 
HETATM    8  C   UNL     1      28.927  44.482  54.839  1.00  0.00     0.004 A 
HETATM    9  C   UNL     1      28.161  45.529  55.396  1.00  0.00     0.014 A 
HETATM   10  C   UNL     1      30.139  44.151  55.447  1.00  0.00     0.043 A 
HETATM   11  C   UNL     1      28.631  46.202  56.529  1.00  0.00     0.001 A 
HETATM   12  C   UNL     1      29.844  45.845  57.113  1.00  0.00     0.002 A 
HETATM   13  C   UNL     1      30.621  44.810  56.585  1.00  0.00     0.030 A 
HETATM   14  N   UNL     1      30.689  43.122  54.719  1.00  0.00    -0.364 N 
HETATM   15  H   UNL     1      31.573  42.679  54.929  1.00  0.00     0.165 HD
HETATM   16  C   UNL     1      29.875  42.796  53.669  1.00  0.00     0.102 A 
ENDBRANCH   6   7
ENDBRANCH   1   5
BRANCH   2  17
HETATM   17  C   UNL     1      24.806  44.322  49.376  1.00  0.00     0.280 C 
BRANCH  17  18
HETATM   18  O   UNL     1      23.955  45.204  50.101  1.00  0.00    -0.341 OA
BRANCH  18  19
HETATM   19  C   UNL     1      23.764  46.439  49.533  1.00  0.00     0.086 A 
HETATM   20  C   UNL     1      22.630  46.615  48.723  1.00  0.00     0.045 A 
HETATM   21 BR   UNL     1      21.413  45.190  48.407  1.00  0.00    -0.048 Br
HETATM   22  C   UNL     1      22.374  47.844  48.111  1.00  0.00     0.046 A 
HETATM   23  C   UNL     1      23.246  48.908  48.319  1.00  0.00     0.035 A 
HETATM   24 CL   UNL     1      22.943  50.424  47.563  1.00  0.00    -0.084 Cl
HETATM   25  C   UNL     1      24.363  48.757  49.138  1.00  0.00     0.026 A 
HETATM   26  C   UNL     1      24.618  47.526  49.749  1.00  0.00     0.040 A 
ENDBRANCH  18  19
ENDBRANCH  17  18
ENDBRANCH   2  17
TORSDOF 5
ENDMDL
