MODEL 1
REMARK VINA RESULT:     -10.5      0.000      0.000
REMARK  4 active torsions:
REMARK  status: ('A' for Active; 'I' for Inactive)
REMARK    1  A    between atoms: C_5  and  C_6 
REMARK    2  A    between atoms: C_7  and  C_8 
REMARK       I    between atoms: C_8  and  N_9 
REMARK    3  A    between atoms: N_9  and  C_10 
REMARK    4  A    between atoms: C_17  and  C_18 
REMARK       I    between atoms: C_18  and  N_19 
ROOT
HETATM    1  C   UNL     1      26.043  46.603  52.178  1.00  0.00     0.245 C 
HETATM    2  N   UNL     1      26.080  46.712  50.803  1.00  0.00    -0.324 N 
HETATM    3  O   UNL     1      25.370  47.262  52.959  1.00  0.00    -0.268 OA
HETATM    4  H   UNL     1      26.723  46.106  50.311  1.00  0.00     0.169 HD
ENDROOT
BRANCH   2   5
HETATM    5  C   UNL     1      25.373  47.632  49.998  1.00  0.00     0.035 A 
HETATM    6  C   UNL     1      23.984  47.599  49.811  1.00  0.00     0.046 A 
HETATM    7  C   UNL     1      23.363  48.580  49.006  1.00  0.00     0.030 A 
HETATM    8  C   UNL     1      24.152  49.558  48.413  1.00  0.00     0.063 A 
HETATM    9  C   UNL     1      22.030  48.879  48.590  1.00  0.00     0.156 A 
HETATM   10  N   UNL     1      23.285  50.353  47.718  1.00  0.00    -0.277 N 
HETATM   11  C   UNL     1      25.537  49.617  48.568  1.00  0.00     0.034 A 
HETATM   12  H   UNL     1      23.512  51.172  47.166  1.00  0.00     0.189 HD
HETATM   13  N   UNL     1      21.999  49.977  47.799  1.00  0.00    -0.168 NA
HETATM   14  C   UNL     1      26.129  48.633  49.370  1.00  0.00     0.032 A 
BRANCH   9  15
HETATM   15  C   UNL     1      20.799  48.152  48.928  1.00  0.00     0.270 C 
HETATM   16  N   UNL     1      20.110  48.681  49.986  1.00  0.00    -0.365 N 
HETATM   17  H   UNL     1      20.483  49.504  50.443  1.00  0.00     0.159 HD
HETATM   18  H   UNL     1      19.251  48.249  50.287  1.00  0.00     0.159 HD
HETATM   19  O   UNL     1      20.388  47.158  48.338  1.00  0.00    -0.266 OA
ENDBRANCH   9  15
ENDBRANCH   2   5
BRANCH   1  20
HETATM   20  C   UNL     1      26.987  45.563  52.674  1.00  0.00     0.075 C 
HETATM   21  C   UNL     1      27.697  45.798  53.789  1.00  0.00     0.018 C 
BRANCH  21  22
HETATM   22  C   UNL     1      28.669  44.847  54.357  1.00  0.00    -0.025 A 
HETATM   23  C   UNL     1      29.248  45.051  55.643  1.00  0.00    -0.016 A 
HETATM   24  C   UNL     1      30.231  44.135  56.099  1.00  0.00    -0.025 A 
HETATM   25  C   UNL     1      28.898  46.117  56.506  1.00  0.00     0.013 A 
HETATM   26  C   UNL     1      30.829  44.312  57.358  1.00  0.00     0.012 A 
HETATM   27  C   UNL     1      30.609  43.052  55.290  1.00  0.00     0.012 A 
HETATM   28  C   UNL     1      30.470  45.380  58.180  1.00  0.00     0.001 A 
HETATM   29  C   UNL     1      29.502  46.280  57.755  1.00  0.00     0.001 A 
HETATM   30  C   UNL     1      30.039  42.864  54.035  1.00  0.00     0.002 A 
HETATM   31  C   UNL     1      29.080  43.759  53.570  1.00  0.00     0.012 A 
ENDBRANCH  21  22
ENDBRANCH   1  20
TORSDOF 4
ENDMDL
MODEL 2
REMARK VINA RESULT:     -10.1      5.346      7.965
REMARK  4 active torsions:
REMARK  status: ('A' for Active; 'I' for Inactive)
REMARK    1  A    between atoms: C_5  and  C_6 
REMARK    2  A    between atoms: C_7  and  C_8 
REMARK       I    between atoms: C_8  and  N_9 
REMARK    3  A    between atoms: N_9  and  C_10 
REMARK    4  A    between atoms: C_17  and  C_18 
REMARK       I    between atoms: C_18  and  N_19 
ROOT
HETATM    1  C   UNL     1      27.435  43.805  51.632  1.00  0.00     0.245 C 
HETATM    2  N   UNL     1      27.111  42.488  51.882  1.00  0.00    -0.324 N 
HETATM    3  O   UNL     1      27.651  44.326  50.547  1.00  0.00    -0.268 OA
HETATM    4  H   UNL     1      26.999  42.217  52.850  1.00  0.00     0.169 HD
ENDROOT
BRANCH   2   5
HETATM    5  C   UNL     1      26.989  41.443  50.939  1.00  0.00     0.035 A 
HETATM    6  C   UNL     1      27.863  40.349  50.869  1.00  0.00     0.046 A 
HETATM    7  C   UNL     1      27.642  39.339  49.906  1.00  0.00     0.030 A 
HETATM    8  C   UNL     1      26.559  39.458  49.045  1.00  0.00     0.063 A 
HETATM    9  C   UNL     1      28.277  38.116  49.532  1.00  0.00     0.156 A 
HETATM   10  N   UNL     1      26.601  38.348  48.250  1.00  0.00    -0.277 N 
HETATM   11  C   UNL     1      25.674  40.537  49.079  1.00  0.00     0.034 A 
HETATM   12  H   UNL     1      25.958  38.100  47.507  1.00  0.00     0.189 HD
HETATM   13  N   UNL     1      27.621  37.515  48.512  1.00  0.00    -0.168 NA
HETATM   14  C   UNL     1      25.914  41.526  50.042  1.00  0.00     0.032 A 
BRANCH   9  15
HETATM   15  C   UNL     1      29.481  37.511  50.121  1.00  0.00     0.270 C 
HETATM   16  N   UNL     1      29.222  36.591  51.100  1.00  0.00    -0.365 N 
HETATM   17  H   UNL     1      28.257  36.398  51.340  1.00  0.00     0.159 HD
HETATM   18  H   UNL     1      29.987  36.122  51.558  1.00  0.00     0.159 HD
HETATM   19  O   UNL     1      30.631  37.778  49.791  1.00  0.00    -0.266 OA
ENDBRANCH   9  15
ENDBRANCH   2   5
BRANCH   1  20
HETATM   20  C   UNL     1      27.545  44.594  52.892  1.00  0.00     0.075 C 
HETATM   21  C   UNL     1      28.560  44.347  53.734  1.00  0.00     0.018 C 
BRANCH  21  22
HETATM   22  C   UNL     1      28.754  45.055  55.012  1.00  0.00    -0.025 A 
HETATM   23  C   UNL     1      29.778  44.675  55.927  1.00  0.00    -0.016 A 
HETATM   24  C   UNL     1      29.865  45.353  57.172  1.00  0.00    -0.025 A 
HETATM   25  C   UNL     1      30.729  43.658  55.671  1.00  0.00     0.013 A 
HETATM   26  C   UNL     1      30.856  44.996  58.101  1.00  0.00     0.012 A 
HETATM   27  C   UNL     1      28.955  46.378  57.476  1.00  0.00     0.012 A 
HETATM   28  C   UNL     1      31.770  43.981  57.821  1.00  0.00     0.001 A 
HETATM   29  C   UNL     1      31.708  43.314  56.605  1.00  0.00     0.001 A 
HETATM   30  C   UNL     1      27.958  46.739  56.575  1.00  0.00     0.002 A 
HETATM   31  C   UNL     1      27.855  46.078  55.355  1.00  0.00     0.012 A 
ENDBRANCH  21  22
ENDBRANCH   1  20
TORSDOF 4
ENDMDL
MODEL 3
REMARK VINA RESULT:     -10.0      1.700      2.359
REMARK  4 active torsions:
REMARK  status: ('A' for Active; 'I' for Inactive)
REMARK    1  A    between atoms: C_5  and  C_6 
REMARK    2  A    between atoms: C_7  and  C_8 
REMARK       I    between atoms: C_8  and  N_9 
REMARK    3  A    between atoms: N_9  and  C_10 
REMARK    4  A    between atoms: C_17  and  C_18 
REMARK       I    between atoms: C_18  and  N_19 
ROOT
HETATM    1  C   UNL     1      25.765  45.632  52.068  1.00  0.00     0.245 C 
HETATM    2  N   UNL     1      25.325  45.125  50.863  1.00  0.00    -0.324 N 
HETATM    3  O   UNL     1      25.334  46.609  52.666  1.00  0.00    -0.268 OA
HETATM    4  H   UNL     1      25.821  44.325  50.493  1.00  0.00     0.169 HD
ENDROOT
BRANCH   2   5
HETATM    5  C   UNL     1      24.301  45.642  50.038  1.00  0.00     0.035 A 
HETATM    6  C   UNL     1      24.260  46.966  49.582  1.00  0.00     0.046 A 
HETATM    7  C   UNL     1      23.205  47.383  48.739  1.00  0.00     0.030 A 
HETATM    8  C   UNL     1      22.228  46.462  48.384  1.00  0.00     0.063 A 
HETATM    9  C   UNL     1      22.824  48.595  48.088  1.00  0.00     0.156 A 
HETATM   10  N   UNL     1      21.365  47.143  47.571  1.00  0.00    -0.277 N 
HETATM   11  C   UNL     1      22.230  45.139  48.826  1.00  0.00     0.034 A 
HETATM   12  H   UNL     1      20.532  46.782  47.121  1.00  0.00     0.189 HD
HETATM   13  N   UNL     1      21.690  48.430  47.369  1.00  0.00    -0.168 NA
HETATM   14  C   UNL     1      23.285  44.750  49.662  1.00  0.00     0.032 A 
BRANCH   9  15
HETATM   15  C   UNL     1      23.512  49.893  48.132  1.00  0.00     0.270 C 
HETATM   16  N   UNL     1      23.092  50.714  49.144  1.00  0.00    -0.365 N 
HETATM   17  H   UNL     1      22.365  50.382  49.767  1.00  0.00     0.159 HD
HETATM   18  H   UNL     1      23.510  51.624  49.253  1.00  0.00     0.159 HD
HETATM   19  O   UNL     1      24.390  50.247  47.353  1.00  0.00    -0.266 OA
ENDBRANCH   9  15
ENDBRANCH   2   5
BRANCH   1  20
HETATM   20  C   UNL     1      26.919  44.857  52.604  1.00  0.00     0.075 C 
HETATM   21  C   UNL     1      27.505  45.257  53.743  1.00  0.00     0.018 C 
BRANCH  21  22
HETATM   22  C   UNL     1      28.662  44.574  54.352  1.00  0.00    -0.025 A 
HETATM   23  C   UNL     1      29.167  44.958  55.628  1.00  0.00    -0.016 A 
HETATM   24  C   UNL     1      30.327  44.307  56.124  1.00  0.00    -0.025 A 
HETATM   25  C   UNL     1      28.577  45.953  56.444  1.00  0.00     0.013 A 
HETATM   26  C   UNL     1      30.857  44.668  57.374  1.00  0.00     0.012 A 
HETATM   27  C   UNL     1      30.947  43.305  55.363  1.00  0.00     0.012 A 
HETATM   28  C   UNL     1      30.258  45.661  58.148  1.00  0.00     0.001 A 
HETATM   29  C   UNL     1      29.116  46.301  57.684  1.00  0.00     0.001 A 
HETATM   30  C   UNL     1      30.446  42.940  54.117  1.00  0.00     0.002 A 
HETATM   31  C   UNL     1      29.315  43.575  53.613  1.00  0.00     0.012 A 
ENDBRANCH  21  22
ENDBRANCH   1  20
TORSDOF 4
ENDMDL
MODEL 4
REMARK VINA RESULT:      -9.5      5.785      7.871
REMARK  4 active torsions:
REMARK  status: ('A' for Active; 'I' for Inactive)
REMARK    1  A    between atoms: C_5  and  C_6 
REMARK    2  A    between atoms: C_7  and  C_8 
REMARK       I    between atoms: C_8  and  N_9 
REMARK    3  A    between atoms: N_9  and  C_10 
REMARK    4  A    between atoms: C_17  and  C_18 
REMARK       I    between atoms: C_18  and  N_19 
ROOT
HETATM    1  C   UNL     1      26.935  42.243  51.604  1.00  0.00     0.245 C 
HETATM    2  N   UNL     1      28.120  41.571  51.387  1.00  0.00    -0.324 N 
HETATM    3  O   UNL     1      25.854  42.038  51.069  1.00  0.00    -0.268 OA
HETATM    4  H   UNL     1      28.932  41.895  51.894  1.00  0.00     0.169 HD
ENDROOT
BRANCH   2   5
HETATM    5  C   UNL     1      28.353  40.519  50.473  1.00  0.00     0.035 A 
HETATM    6  C   UNL     1      27.944  40.544  49.133  1.00  0.00     0.046 A 
HETATM    7  C   UNL     1      28.247  39.452  48.289  1.00  0.00     0.030 A 
HETATM    8  C   UNL     1      28.944  38.372  48.815  1.00  0.00     0.063 A 
HETATM    9  C   UNL     1      28.018  39.113  46.921  1.00  0.00     0.156 A 
HETATM   10  N   UNL     1      29.092  37.495  47.777  1.00  0.00    -0.277 N 
HETATM   11  C   UNL     1      29.357  38.307  50.146  1.00  0.00     0.034 A 
HETATM   12  H   UNL     1      29.558  36.595  47.796  1.00  0.00     0.189 HD
HETATM   13  N   UNL     1      28.548  37.905  46.621  1.00  0.00    -0.168 NA
HETATM   14  C   UNL     1      29.045  39.401  50.963  1.00  0.00     0.032 A 
BRANCH   9  15
HETATM   15  C   UNL     1      27.315  39.907  45.904  1.00  0.00     0.270 C 
HETATM   16  N   UNL     1      27.812  41.172  45.741  1.00  0.00    -0.365 N 
HETATM   17  H   UNL     1      28.598  41.461  46.310  1.00  0.00     0.159 HD
HETATM   18  H   UNL     1      27.394  41.789  45.062  1.00  0.00     0.159 HD
HETATM   19  O   UNL     1      26.366  39.509  45.237  1.00  0.00    -0.266 OA
ENDBRANCH   9  15
ENDBRANCH   2   5
BRANCH   1  20
HETATM   20  C   UNL     1      27.100  43.346  52.592  1.00  0.00     0.075 C 
HETATM   21  C   UNL     1      28.257  43.460  53.262  1.00  0.00     0.018 C 
BRANCH  21  22
HETATM   22  C   UNL     1      28.520  44.502  54.271  1.00  0.00    -0.025 A 
HETATM   23  C   UNL     1      29.512  44.330  55.279  1.00  0.00    -0.016 A 
HETATM   24  C   UNL     1      29.665  45.341  56.263  1.00  0.00    -0.025 A 
HETATM   25  C   UNL     1      30.368  43.205  55.361  1.00  0.00     0.013 A 
HETATM   26  C   UNL     1      30.627  45.198  57.277  1.00  0.00     0.012 A 
HETATM   27  C   UNL     1      28.852  46.484  56.225  1.00  0.00     0.012 A 
HETATM   28  C   UNL     1      31.447  44.072  57.335  1.00  0.00     0.001 A 
HETATM   29  C   UNL     1      31.320  43.077  56.375  1.00  0.00     0.001 A 
HETATM   30  C   UNL     1      27.885  46.640  55.237  1.00  0.00     0.002 A 
HETATM   31  C   UNL     1      27.716  45.653  54.271  1.00  0.00     0.012 A 
ENDBRANCH  21  22
ENDBRANCH   1  20
TORSDOF 4
ENDMDL
MODEL 5
REMARK VINA RESULT:      -9.4      2.196      2.478
REMARK  4 active torsions:
REMARK  status: ('A' for Active; 'I' for Inactive)
REMARK    1  A    between atoms: C_5  and  C_6 
REMARK    2  A    between atoms: C_7  and  C_8 
REMARK       I    between atoms: C_8  and  N_9 
REMARK    3  A    between atoms: N_9  and  C_10 
REMARK    4  A    between atoms: C_17  and  C_18 
REMARK       I    between atoms: C_18  and  N_19 
ROOT
HETATM    1  C   UNL     1      24.962  44.085  51.435  1.00  0.00     0.245 C 
HETATM    2  N   UNL     1      25.271  45.243  50.750  1.00  0.00    -0.324 N 
HETATM    3  O   UNL     1      23.881  43.515  51.483  1.00  0.00    -0.268 OA
HETATM    4  H   UNL     1      26.213  45.597  50.847  1.00  0.00     0.169 HD
ENDROOT
BRANCH   2   5
HETATM    5  C   UNL     1      24.396  46.042  49.981  1.00  0.00     0.035 A 
HETATM    6  C   UNL     1      23.448  45.524  49.088  1.00  0.00     0.046 A 
HETATM    7  C   UNL     1      22.599  46.405  48.381  1.00  0.00     0.030 A 
HETATM    8  C   UNL     1      22.729  47.772  48.589  1.00  0.00     0.063 A 
HETATM    9  C   UNL     1      21.546  46.275  47.425  1.00  0.00     0.156 A 
HETATM   10  N   UNL     1      21.785  48.353  47.789  1.00  0.00    -0.277 N 
HETATM   11  C   UNL     1      23.668  48.324  49.460  1.00  0.00     0.034 A 
HETATM   12  H   UNL     1      21.591  49.342  47.688  1.00  0.00     0.189 HD
HETATM   13  N   UNL     1      21.053  47.485  47.073  1.00  0.00    -0.168 NA
HETATM   14  C   UNL     1      24.499  47.431  50.149  1.00  0.00     0.032 A 
BRANCH   9  15
HETATM   15  C   UNL     1      21.003  45.037  46.848  1.00  0.00     0.270 C 
HETATM   16  N   UNL     1      20.639  45.147  45.533  1.00  0.00    -0.365 N 
HETATM   17  H   UNL     1      20.764  46.038  45.068  1.00  0.00     0.159 HD
HETATM   18  H   UNL     1      20.259  44.347  45.053  1.00  0.00     0.159 HD
HETATM   19  O   UNL     1      20.875  43.979  47.455  1.00  0.00    -0.266 OA
ENDBRANCH   9  15
ENDBRANCH   2   5
BRANCH   1  20
HETATM   20  C   UNL     1      26.133  43.567  52.197  1.00  0.00     0.075 C 
HETATM   21  C   UNL     1      27.098  44.419  52.576  1.00  0.00     0.018 C 
BRANCH  21  22
HETATM   22  C   UNL     1      28.305  44.010  53.319  1.00  0.00    -0.025 A 
HETATM   23  C   UNL     1      28.694  44.661  54.525  1.00  0.00    -0.016 A 
HETATM   24  C   UNL     1      29.905  44.267  55.151  1.00  0.00    -0.025 A 
HETATM   25  C   UNL     1      27.939  45.684  55.149  1.00  0.00     0.013 A 
HETATM   26  C   UNL     1      30.322  44.896  56.336  1.00  0.00     0.012 A 
HETATM   27  C   UNL     1      30.688  43.251  54.583  1.00  0.00     0.012 A 
HETATM   28  C   UNL     1      29.561  45.907  56.919  1.00  0.00     0.001 A 
HETATM   29  C   UNL     1      28.368  46.300  56.327  1.00  0.00     0.001 A 
HETATM   30  C   UNL     1      30.300  42.623  53.404  1.00  0.00     0.002 A 
HETATM   31  C   UNL     1      29.120  43.005  52.773  1.00  0.00     0.012 A 
ENDBRANCH  21  22
ENDBRANCH   1  20
TORSDOF 4
ENDMDL
MODEL 6
REMARK VINA RESULT:      -9.2      6.182      8.165
REMARK  4 active torsions:
REMARK  status: ('A' for Active; 'I' for Inactive)
REMARK    1  A    between atoms: C_5  and  C_6 
REMARK    2  A    between atoms: C_7  and  C_8 
REMARK       I    between atoms: C_8  and  N_9 
REMARK    3  A    between atoms: N_9  and  C_10 
REMARK    4  A    between atoms: C_17  and  C_18 
REMARK       I    between atoms: C_18  and  N_19 
ROOT
HETATM    1  C   UNL     1      27.987  41.325  51.256  1.00  0.00     0.245 C 
HETATM    2  N   UNL     1      28.839  40.770  50.322  1.00  0.00    -0.324 N 
HETATM    3  O   UNL     1      26.787  41.127  51.378  1.00  0.00    -0.268 OA
HETATM    4  H   UNL     1      29.803  41.073  50.343  1.00  0.00     0.169 HD
ENDROOT
BRANCH   2   5
HETATM    5  C   UNL     1      28.503  39.875  49.282  1.00  0.00     0.035 A 
HETATM    6  C   UNL     1      28.395  40.249  47.936  1.00  0.00     0.046 A 
HETATM    7  C   UNL     1      28.079  39.274  46.963  1.00  0.00     0.030 A 
HETATM    8  C   UNL     1      27.880  37.961  47.370  1.00  0.00     0.063 A 
HETATM    9  C   UNL     1      27.889  39.254  45.548  1.00  0.00     0.156 A 
HETATM   10  N   UNL     1      27.604  37.264  46.228  1.00  0.00    -0.277 N 
HETATM   11  C   UNL     1      27.969  37.554  48.702  1.00  0.00     0.034 A 
HETATM   12  H   UNL     1      27.410  36.272  46.146  1.00  0.00     0.189 HD
HETATM   13  N   UNL     1      27.600  38.007  45.110  1.00  0.00    -0.168 NA
HETATM   14  C   UNL     1      28.283  38.539  49.647  1.00  0.00     0.032 A 
BRANCH   9  15
HETATM   15  C   UNL     1      27.978  40.385  44.613  1.00  0.00     0.270 C 
HETATM   16  N   UNL     1      27.051  41.368  44.835  1.00  0.00    -0.365 N 
HETATM   17  H   UNL     1      26.395  41.251  45.598  1.00  0.00     0.159 HD
HETATM   18  H   UNL     1      27.039  42.184  44.244  1.00  0.00     0.159 HD
HETATM   19  O   UNL     1      28.796  40.480  43.705  1.00  0.00    -0.266 OA
ENDBRANCH   9  15
ENDBRANCH   2   5
BRANCH   1  20
HETATM   20  C   UNL     1      28.697  42.286  52.146  1.00  0.00     0.075 C 
HETATM   21  C   UNL     1      28.437  42.276  53.463  1.00  0.00     0.018 C 
BRANCH  21  22
HETATM   22  C   UNL     1      29.069  43.192  54.429  1.00  0.00    -0.025 A 
HETATM   23  C   UNL     1      28.543  44.494  54.676  1.00  0.00    -0.016 A 
HETATM   24  C   UNL     1      29.241  45.352  55.565  1.00  0.00    -0.025 A 
HETATM   25  C   UNL     1      27.354  44.989  54.089  1.00  0.00     0.013 A 
HETATM   26  C   UNL     1      28.755  46.645  55.822  1.00  0.00     0.012 A 
HETATM   27  C   UNL     1      30.420  44.910  56.184  1.00  0.00     0.012 A 
HETATM   28  C   UNL     1      27.586  47.106  55.219  1.00  0.00     0.001 A 
HETATM   29  C   UNL     1      26.884  46.277  54.354  1.00  0.00     0.001 A 
HETATM   30  C   UNL     1      30.925  43.638  55.934  1.00  0.00     0.002 A 
HETATM   31  C   UNL     1      30.258  42.788  55.058  1.00  0.00     0.012 A 
ENDBRANCH  21  22
ENDBRANCH   1  20
TORSDOF 4
ENDMDL
MODEL 7
REMARK VINA RESULT:      -9.1      3.028     10.309
REMARK  4 active torsions:
REMARK  status: ('A' for Active; 'I' for Inactive)
REMARK    1  A    between atoms: C_5  and  C_6 
REMARK    2  A    between atoms: C_7  and  C_8 
REMARK       I    between atoms: C_8  and  N_9 
REMARK    3  A    between atoms: N_9  and  C_10 
REMARK    4  A    between atoms: C_17  and  C_18 
REMARK       I    between atoms: C_18  and  N_19 
ROOT
HETATM    1  C   UNL     1      24.662  47.332  50.228  1.00  0.00     0.245 C 
HETATM    2  N   UNL     1      24.669  46.309  51.153  1.00  0.00    -0.324 N 
HETATM    3  O   UNL     1      25.478  48.236  50.112  1.00  0.00    -0.268 OA
HETATM    4  H   UNL     1      23.893  45.661  51.128  1.00  0.00     0.169 HD
ENDROOT
BRANCH   2   5
HETATM    5  C   UNL     1      25.604  46.099  52.191  1.00  0.00     0.035 A 
HETATM    6  C   UNL     1      26.512  45.032  52.220  1.00  0.00     0.046 A 
HETATM    7  C   UNL     1      27.428  44.921  53.291  1.00  0.00     0.030 A 
HETATM    8  C   UNL     1      27.402  45.880  54.296  1.00  0.00     0.063 A 
HETATM    9  C   UNL     1      28.469  44.020  53.667  1.00  0.00     0.156 A 
HETATM   10  N   UNL     1      28.389  45.517  55.169  1.00  0.00    -0.277 N 
HETATM   11  C   UNL     1      26.507  46.949  54.306  1.00  0.00     0.034 A 
HETATM   12  H   UNL     1      28.659  45.994  56.022  1.00  0.00     0.189 HD
HETATM   13  N   UNL     1      29.054  44.403  54.825  1.00  0.00    -0.168 NA
HETATM   14  C   UNL     1      25.608  47.036  53.235  1.00  0.00     0.032 A 
BRANCH   9  15
HETATM   15  C   UNL     1      28.917  42.815  52.953  1.00  0.00     0.270 C 
HETATM   16  N   UNL     1      30.275  42.718  52.818  1.00  0.00    -0.365 N 
HETATM   17  H   UNL     1      30.854  43.454  53.205  1.00  0.00     0.159 HD
HETATM   18  H   UNL     1      30.674  41.923  52.344  1.00  0.00     0.159 HD
HETATM   19  O   UNL     1      28.172  41.950  52.505  1.00  0.00    -0.266 OA
ENDBRANCH   9  15
ENDBRANCH   2   5
BRANCH   1  20
HETATM   20  C   UNL     1      23.470  47.262  49.337  1.00  0.00     0.075 C 
HETATM   21  C   UNL     1      22.847  48.396  48.983  1.00  0.00     0.018 C 
BRANCH  21  22
HETATM   22  C   UNL     1      21.652  48.440  48.121  1.00  0.00    -0.025 A 
HETATM   23  C   UNL     1      20.806  49.585  48.077  1.00  0.00    -0.016 A 
HETATM   24  C   UNL     1      19.632  49.534  47.281  1.00  0.00    -0.025 A 
HETATM   25  C   UNL     1      21.066  50.787  48.779  1.00  0.00     0.013 A 
HETATM   26  C   UNL     1      18.771  50.643  47.223  1.00  0.00     0.012 A 
HETATM   27  C   UNL     1      19.329  48.373  46.554  1.00  0.00     0.012 A 
HETATM   28  C   UNL     1      19.051  51.808  47.936  1.00  0.00     0.001 A 
HETATM   29  C   UNL     1      20.201  51.881  48.712  1.00  0.00     0.001 A 
HETATM   30  C   UNL     1      20.161  47.259  46.607  1.00  0.00     0.002 A 
HETATM   31  C   UNL     1      21.311  47.290  47.390  1.00  0.00     0.012 A 
ENDBRANCH  21  22
ENDBRANCH   1  20
TORSDOF 4
ENDMDL
MODEL 8
REMARK VINA RESULT:      -9.0      4.458      5.915
REMARK  4 active torsions:
REMARK  status: ('A' for Active; 'I' for Inactive)
REMARK    1  A    between atoms: C_5  and  C_6 
REMARK    2  A    between atoms: C_7  and  C_8 
REMARK       I    between atoms: C_8  and  N_9 
REMARK    3  A    between atoms: N_9  and  C_10 
REMARK    4  A    between atoms: C_17  and  C_18 
REMARK       I    between atoms: C_18  and  N_19 
ROOT
HETATM    1  C   UNL     1      27.277  44.252  51.554  1.00  0.00     0.245 C 
HETATM    2  N   UNL     1      26.666  43.038  51.794  1.00  0.00    -0.324 N 
HETATM    3  O   UNL     1      27.586  44.729  50.471  1.00  0.00    -0.268 OA
HETATM    4  H   UNL     1      26.512  42.784  52.760  1.00  0.00     0.169 HD
ENDROOT
BRANCH   2   5
HETATM    5  C   UNL     1      26.293  42.064  50.841  1.00  0.00     0.035 A 
HETATM    6  C   UNL     1      25.337  42.279  49.839  1.00  0.00     0.046 A 
HETATM    7  C   UNL     1      25.050  41.250  48.914  1.00  0.00     0.030 A 
HETATM    8  C   UNL     1      25.727  40.042  49.025  1.00  0.00     0.063 A 
HETATM    9  C   UNL     1      24.181  41.085  47.793  1.00  0.00     0.156 A 
HETATM   10  N   UNL     1      25.252  39.265  48.006  1.00  0.00    -0.277 N 
HETATM   11  C   UNL     1      26.677  39.789  50.014  1.00  0.00     0.034 A 
HETATM   12  H   UNL     1      25.527  38.316  47.778  1.00  0.00     0.189 HD
HETATM   13  N   UNL     1      24.319  39.857  47.243  1.00  0.00    -0.168 NA
HETATM   14  C   UNL     1      26.943  40.824  50.920  1.00  0.00     0.032 A 
BRANCH   9  15
HETATM   15  C   UNL     1      23.233  42.062  47.239  1.00  0.00     0.270 C 
HETATM   16  N   UNL     1      23.817  43.035  46.474  1.00  0.00    -0.365 N 
HETATM   17  H   UNL     1      24.822  43.014  46.348  1.00  0.00     0.159 HD
HETATM   18  H   UNL     1      23.244  43.747  46.051  1.00  0.00     0.159 HD
HETATM   19  O   UNL     1      22.020  42.041  47.420  1.00  0.00    -0.266 OA
ENDBRANCH   9  15
ENDBRANCH   2   5
BRANCH   1  20
HETATM   20  C   UNL     1      27.585  44.973  52.821  1.00  0.00     0.075 C 
HETATM   21  C   UNL     1      28.365  44.383  53.739  1.00  0.00     0.018 C 
BRANCH  21  22
HETATM   22  C   UNL     1      28.719  44.999  55.031  1.00  0.00    -0.025 A 
HETATM   23  C   UNL     1      29.800  44.508  55.820  1.00  0.00    -0.016 A 
HETATM   24  C   UNL     1      30.042  45.101  57.087  1.00  0.00    -0.025 A 
HETATM   25  C   UNL     1      30.660  43.460  55.415  1.00  0.00     0.013 A 
HETATM   26  C   UNL     1      31.093  44.634  57.893  1.00  0.00     0.012 A 
HETATM   27  C   UNL     1      29.227  46.152  57.535  1.00  0.00     0.012 A 
HETATM   28  C   UNL     1      31.916  43.592  57.469  1.00  0.00     0.001 A 
HETATM   29  C   UNL     1      31.701  43.007  56.229  1.00  0.00     0.001 A 
HETATM   30  C   UNL     1      28.173  46.621  56.758  1.00  0.00     0.002 A 
HETATM   31  C   UNL     1      27.917  46.044  55.517  1.00  0.00     0.012 A 
ENDBRANCH  21  22
ENDBRANCH   1  20
TORSDOF 4
ENDMDL
MODEL 9
REMARK VINA RESULT:      -8.7      4.992     10.760
REMARK  4 active torsions:
REMARK  status: ('A' for Active; 'I' for Inactive)
REMARK    1  A    between atoms: C_5  and  C_6 
REMARK    2  A    between atoms: C_7  and  C_8 
REMARK       I    between atoms: C_8  and  N_9 
REMARK    3  A    between atoms: N_9  and  C_10 
REMARK    4  A    between atoms: C_17  and  C_18 
REMARK       I    between atoms: C_18  and  N_19 
ROOT
HETATM    1  C   UNL     1      23.077  49.670  48.291  1.00  0.00     0.245 C 
HETATM    2  N   UNL     1      23.273  48.753  49.303  1.00  0.00    -0.324 N 
HETATM    3  O   UNL     1      23.794  49.872  47.321  1.00  0.00    -0.268 OA
HETATM    4  H   UNL     1      22.593  48.743  50.051  1.00  0.00     0.169 HD
ENDROOT
BRANCH   2   5
HETATM    5  C   UNL     1      24.362  47.867  49.457  1.00  0.00     0.035 A 
HETATM    6  C   UNL     1      24.228  46.476  49.562  1.00  0.00     0.046 A 
HETATM    7  C   UNL     1      25.382  45.670  49.688  1.00  0.00     0.030 A 
HETATM    8  C   UNL     1      26.628  46.282  49.708  1.00  0.00     0.063 A 
HETATM    9  C   UNL     1      25.654  44.274  49.813  1.00  0.00     0.156 A 
HETATM   10  N   UNL     1      27.532  45.264  49.828  1.00  0.00    -0.277 N 
HETATM   11  C   UNL     1      26.800  47.664  49.616  1.00  0.00     0.034 A 
HETATM   12  H   UNL     1      28.542  45.341  49.869  1.00  0.00     0.189 HD
HETATM   13  N   UNL     1      26.985  44.040  49.894  1.00  0.00    -0.168 NA
HETATM   14  C   UNL     1      25.641  48.441  49.493  1.00  0.00     0.032 A 
BRANCH   9  15
HETATM   15  C   UNL     1      24.686  43.169  49.852  1.00  0.00     0.270 C 
HETATM   16  N   UNL     1      24.661  42.490  51.040  1.00  0.00    -0.365 N 
HETATM   17  H   UNL     1      25.287  42.785  51.780  1.00  0.00     0.159 HD
HETATM   18  H   UNL     1      24.026  41.717  51.160  1.00  0.00     0.159 HD
HETATM   19  O   UNL     1      23.946  42.853  48.926  1.00  0.00    -0.266 OA
ENDBRANCH   9  15
ENDBRANCH   2   5
BRANCH   1  20
HETATM   20  C   UNL     1      21.847  50.481  48.512  1.00  0.00     0.075 C 
HETATM   21  C   UNL     1      20.645  49.921  48.304  1.00  0.00     0.018 C 
BRANCH  21  22
HETATM   22  C   UNL     1      19.368  50.637  48.477  1.00  0.00    -0.025 A 
HETATM   23  C   UNL     1      18.116  49.990  48.264  1.00  0.00    -0.016 A 
HETATM   24  C   UNL     1      16.927  50.755  48.378  1.00  0.00    -0.025 A 
HETATM   25  C   UNL     1      17.981  48.617  47.949  1.00  0.00     0.013 A 
HETATM   26  C   UNL     1      15.677  50.151  48.164  1.00  0.00     0.012 A 
HETATM   27  C   UNL     1      17.000  52.119  48.700  1.00  0.00     0.012 A 
HETATM   28  C   UNL     1      15.579  48.798  47.844  1.00  0.00     0.001 A 
HETATM   29  C   UNL     1      16.731  48.030  47.739  1.00  0.00     0.001 A 
HETATM   30  C   UNL     1      18.227  52.741  48.904  1.00  0.00     0.002 A 
HETATM   31  C   UNL     1      19.403  52.006  48.787  1.00  0.00     0.012 A 
ENDBRANCH  21  22
ENDBRANCH   1  20
TORSDOF 4
ENDMDL
MODEL 10
REMARK VINA RESULT:      -8.7      3.305     10.359
REMARK  4 active torsions:
REMARK  status: ('A' for Active; 'I' for Inactive)
REMARK    1  A    between atoms: C_5  and  C_6 
REMARK    2  A    between atoms: C_7  and  C_8 
REMARK       I    between atoms: C_8  and  N_9 
REMARK    3  A    between atoms: N_9  and  C_10 
REMARK    4  A    between atoms: C_17  and  C_18 
REMARK       I    between atoms: C_18  and  N_19 
ROOT
HETATM    1  C   UNL     1      24.082  47.855  49.491  1.00  0.00     0.245 C 
HETATM    2  N   UNL     1      23.860  46.566  49.930  1.00  0.00    -0.324 N 
HETATM    3  O   UNL     1      24.951  48.630  49.867  1.00  0.00    -0.268 OA
HETATM    4  H   UNL     1      23.070  46.075  49.533  1.00  0.00     0.169 HD
ENDROOT
BRANCH   2   5
HETATM    5  C   UNL     1      24.570  45.869  50.933  1.00  0.00     0.035 A 
HETATM    6  C   UNL     1      25.171  46.488  52.037  1.00  0.00     0.046 A 
HETATM    7  C   UNL     1      25.838  45.701  53.003  1.00  0.00     0.030 A 
HETATM    8  C   UNL     1      25.883  44.323  52.830  1.00  0.00     0.063 A 
HETATM    9  C   UNL     1      26.544  45.943  54.220  1.00  0.00     0.156 A 
HETATM   10  N   UNL     1      26.573  43.844  53.907  1.00  0.00    -0.277 N 
HETATM   11  C   UNL     1      25.306  43.673  51.738  1.00  0.00     0.034 A 
HETATM   12  H   UNL     1      26.794  42.876  54.113  1.00  0.00     0.189 HD
HETATM   13  N   UNL     1      26.988  44.787  54.767  1.00  0.00    -0.168 NA
HETATM   14  C   UNL     1      24.652  44.475  50.794  1.00  0.00     0.032 A 
BRANCH   9  15
HETATM   15  C   UNL     1      26.799  47.237  54.869  1.00  0.00     0.270 C 
HETATM   16  N   UNL     1      28.120  47.596  54.898  1.00  0.00    -0.365 N 
HETATM   17  H   UNL     1      28.801  46.970  54.486  1.00  0.00     0.159 HD
HETATM   18  H   UNL     1      28.389  48.469  55.321  1.00  0.00     0.159 HD
HETATM   19  O   UNL     1      25.935  47.961  55.351  1.00  0.00    -0.266 OA
ENDBRANCH   9  15
ENDBRANCH   2   5
BRANCH   1  20
HETATM   20  C   UNL     1      23.078  48.271  48.473  1.00  0.00     0.075 C 
HETATM   21  C   UNL     1      21.771  48.117  48.737  1.00  0.00     0.018 C 
BRANCH  21  22
HETATM   22  C   UNL     1      20.697  48.479  47.795  1.00  0.00    -0.025 A 
HETATM   23  C   UNL     1      20.072  49.759  47.834  1.00  0.00    -0.016 A 
HETATM   24  C   UNL     1      18.995  50.018  46.947  1.00  0.00    -0.025 A 
HETATM   25  C   UNL     1      20.463  50.803  48.707  1.00  0.00     0.013 A 
HETATM   26  C   UNL     1      18.350  51.266  46.966  1.00  0.00     0.012 A 
HETATM   27  C   UNL     1      18.571  49.024  46.051  1.00  0.00     0.012 A 
HETATM   28  C   UNL     1      18.753  52.269  47.847  1.00  0.00     0.001 A 
HETATM   29  C   UNL     1      19.811  52.038  48.715  1.00  0.00     0.001 A 
HETATM   30  C   UNL     1      19.187  47.777  46.024  1.00  0.00     0.002 A 
HETATM   31  C   UNL     1      20.239  47.505  46.894  1.00  0.00     0.012 A 
ENDBRANCH  21  22
ENDBRANCH   1  20
TORSDOF 4
ENDMDL
