MODEL 1
REMARK VINA RESULT:      -9.5      0.000      0.000
REMARK  6 active torsions:
REMARK  status: ('A' for Active; 'I' for Inactive)
REMARK    1  A    between atoms: C_2  and  O_3 
REMARK    2  A    between atoms: C_2  and  C_4 
REMARK    3  A    between atoms: C_7  and  N_8 
REMARK       I    between atoms: N_8  and  C_9 
REMARK    4  A    between atoms: C_9  and  C_10 
REMARK    5  A    between atoms: C_13  and  C_14 
REMARK    6  A    between atoms: C_19  and  C_20 
ROOT
HETATM    1  C   UNL     1      26.078  44.186  51.382  1.00  0.00     0.096 C 
HETATM    2  C   UNL     1      25.277  45.173  50.840  1.00  0.00     0.138 C 
HETATM    3  N   UNL     1      24.960  44.743  49.570  1.00  0.00    -0.240 N 
HETATM    4  C   UNL     1      24.145  45.488  48.626  1.00  0.00     0.221 C 
HETATM    5  C   UNL     1      23.400  46.628  49.345  1.00  0.00     0.067 C 
HETATM    6  C   UNL     1      24.315  47.363  50.336  1.00  0.00     0.125 C 
HETATM    7  N   UNL     1      24.839  46.379  51.304  1.00  0.00    -0.365 N 
HETATM    8  N   UNL     1      25.643  43.652  49.193  1.00  0.00    -0.181 NA
HETATM    9  C   UNL     1      26.296  43.296  50.303  1.00  0.00     0.160 C 
HETATM   10  H   UNL     1      25.395  46.837  52.030  1.00  0.00     0.162 HD
ENDROOT
BRANCH   1  11
HETATM   11  C   UNL     1      26.633  44.064  52.721  1.00  0.00     0.261 C 
HETATM   12  N   UNL     1      27.992  44.315  52.775  1.00  0.00    -0.323 N 
HETATM   13  H   UNL     1      28.413  44.624  51.905  1.00  0.00     0.169 HD
HETATM   14  O   UNL     1      25.903  43.816  53.672  1.00  0.00    -0.267 OA
BRANCH  12  15
HETATM   15  C   UNL     1      28.816  44.337  53.918  1.00  0.00     0.035 A 
HETATM   16  C   UNL     1      28.786  45.346  54.880  1.00  0.00     0.030 A 
HETATM   17  C   UNL     1      29.662  45.319  55.974  1.00  0.00     0.012 A 
HETATM   18  C   UNL     1      30.593  44.285  56.130  1.00  0.00    -0.030 A 
HETATM   19  C   UNL     1      30.594  43.258  55.173  1.00  0.00     0.012 A 
HETATM   20  C   UNL     1      29.716  43.282  54.083  1.00  0.00     0.030 A 
BRANCH  18  21
HETATM   21  C   UNL     1      31.589  44.223  57.268  1.00  0.00     0.147 C 
HETATM   22  C   UNL     1      31.188  44.930  58.561  1.00  0.00     0.044 C 
BRANCH  21  23
HETATM   23  O   UNL     1      31.842  42.849  57.553  1.00  0.00    -0.391 OA
HETATM   24  H   UNL     1      31.085  42.515  58.060  1.00  0.00     0.210 HD
ENDBRANCH  21  23
ENDBRANCH  18  21
ENDBRANCH  12  15
ENDBRANCH   1  11
BRANCH   4  25
HETATM   25  C   UNL     1      23.143  44.592  47.930  1.00  0.00     0.409 C 
HETATM   26  F   UNL     1      22.632  43.654  48.759  1.00  0.00    -0.169 F 
HETATM   27  F   UNL     1      22.089  45.338  47.498  1.00  0.00    -0.169 F 
HETATM   28  F   UNL     1      23.635  43.971  46.838  1.00  0.00    -0.169 F 
ENDBRANCH   4  25
BRANCH   6  29
HETATM   29  C   UNL     1      25.368  48.196  49.632  1.00  0.00     0.005 A 
HETATM   30  S   UNL     1      24.884  49.476  48.589  1.00  0.00    -0.104 SA
HETATM   31  C   UNL     1      26.500  49.868  48.201  1.00  0.00     0.050 A 
HETATM   32  C   UNL     1      27.399  49.065  48.864  1.00  0.00     0.008 A 
HETATM   33  C   UNL     1      26.748  48.105  49.692  1.00  0.00     0.017 A 
ENDBRANCH   6  29
TORSDOF 6
ENDMDL
MODEL 2
REMARK VINA RESULT:      -8.6      2.366      3.112
REMARK  6 active torsions:
REMARK  status: ('A' for Active; 'I' for Inactive)
REMARK    1  A    between atoms: C_2  and  O_3 
REMARK    2  A    between atoms: C_2  and  C_4 
REMARK    3  A    between atoms: C_7  and  N_8 
REMARK       I    between atoms: N_8  and  C_9 
REMARK    4  A    between atoms: C_9  and  C_10 
REMARK    5  A    between atoms: C_13  and  C_14 
REMARK    6  A    between atoms: C_19  and  C_20 
ROOT
HETATM    1  C   UNL     1      27.142  42.071  50.850  1.00  0.00     0.096 C 
HETATM    2  C   UNL     1      25.826  42.250  50.465  1.00  0.00     0.138 C 
HETATM    3  N   UNL     1      25.794  42.000  49.111  1.00  0.00    -0.240 N 
HETATM    4  C   UNL     1      24.604  42.093  48.283  1.00  0.00     0.221 C 
HETATM    5  C   UNL     1      23.343  42.154  49.163  1.00  0.00     0.067 C 
HETATM    6  C   UNL     1      23.535  43.095  50.362  1.00  0.00     0.125 C 
HETATM    7  N   UNL     1      24.702  42.629  51.138  1.00  0.00    -0.365 N 
HETATM    8  N   UNL     1      27.012  41.857  48.569  1.00  0.00    -0.181 NA
HETATM    9  C   UNL     1      27.826  41.867  49.627  1.00  0.00     0.160 C 
HETATM   10  H   UNL     1      24.823  43.183  51.989  1.00  0.00     0.162 HD
ENDROOT
BRANCH   1  11
HETATM   11  C   UNL     1      27.743  42.117  52.173  1.00  0.00     0.261 C 
HETATM   12  N   UNL     1      28.351  43.326  52.457  1.00  0.00    -0.323 N 
HETATM   13  H   UNL     1      28.238  44.047  51.752  1.00  0.00     0.169 HD
HETATM   14  O   UNL     1      27.637  41.163  52.933  1.00  0.00    -0.267 OA
BRANCH  12  15
HETATM   15  C   UNL     1      28.969  43.714  53.662  1.00  0.00     0.035 A 
HETATM   16  C   UNL     1      28.526  44.766  54.462  1.00  0.00     0.030 A 
HETATM   17  C   UNL     1      29.214  45.117  55.631  1.00  0.00     0.012 A 
HETATM   18  C   UNL     1      30.367  44.427  56.027  1.00  0.00    -0.030 A 
HETATM   19  C   UNL     1      30.787  43.349  55.231  1.00  0.00     0.012 A 
HETATM   20  C   UNL     1      30.097  42.996  54.066  1.00  0.00     0.030 A 
BRANCH  18  21
HETATM   21  C   UNL     1      31.174  44.786  57.256  1.00  0.00     0.147 C 
HETATM   22  C   UNL     1      30.402  45.409  58.417  1.00  0.00     0.044 C 
BRANCH  21  23
HETATM   23  O   UNL     1      31.820  43.601  57.716  1.00  0.00    -0.391 OA
HETATM   24  H   UNL     1      32.601  43.875  58.223  1.00  0.00     0.210 HD
ENDBRANCH  21  23
ENDBRANCH  18  21
ENDBRANCH  12  15
ENDBRANCH   1  11
BRANCH   4  25
HETATM   25  C   UNL     1      24.498  40.922  47.330  1.00  0.00     0.409 C 
HETATM   26  F   UNL     1      24.975  39.778  47.870  1.00  0.00    -0.169 F 
HETATM   27  F   UNL     1      23.188  40.692  47.037  1.00  0.00    -0.169 F 
HETATM   28  F   UNL     1      25.116  41.124  46.149  1.00  0.00    -0.169 F 
ENDBRANCH   4  25
BRANCH   6  29
HETATM   29  C   UNL     1      23.582  44.551  49.944  1.00  0.00     0.005 A 
HETATM   30  S   UNL     1      24.660  45.632  50.739  1.00  0.00    -0.104 SA
HETATM   31  C   UNL     1      24.137  46.959  49.800  1.00  0.00     0.050 A 
HETATM   32  C   UNL     1      23.180  46.595  48.880  1.00  0.00     0.008 A 
HETATM   33  C   UNL     1      22.864  45.208  48.959  1.00  0.00     0.017 A 
ENDBRANCH   6  29
TORSDOF 6
ENDMDL
MODEL 3
REMARK VINA RESULT:      -8.2      4.909      8.023
REMARK  6 active torsions:
REMARK  status: ('A' for Active; 'I' for Inactive)
REMARK    1  A    between atoms: C_2  and  O_3 
REMARK    2  A    between atoms: C_2  and  C_4 
REMARK    3  A    between atoms: C_7  and  N_8 
REMARK       I    between atoms: N_8  and  C_9 
REMARK    4  A    between atoms: C_9  and  C_10 
REMARK    5  A    between atoms: C_13  and  C_14 
REMARK    6  A    between atoms: C_19  and  C_20 
ROOT
HETATM    1  C   UNL     1      26.789  42.796  50.621  1.00  0.00     0.096 C 
HETATM    2  C   UNL     1      26.654  43.337  51.886  1.00  0.00     0.138 C 
HETATM    3  N   UNL     1      26.717  44.703  51.716  1.00  0.00    -0.240 N 
HETATM    4  C   UNL     1      26.639  45.672  52.796  1.00  0.00     0.221 C 
HETATM    5  C   UNL     1      26.125  45.001  54.082  1.00  0.00     0.067 C 
HETATM    6  C   UNL     1      26.786  43.632  54.308  1.00  0.00     0.125 C 
HETATM    7  N   UNL     1      26.522  42.787  53.127  1.00  0.00    -0.365 N 
HETATM    8  N   UNL     1      27.065  45.069  50.474  1.00  0.00    -0.181 NA
HETATM    9  C   UNL     1      27.076  43.914  49.803  1.00  0.00     0.160 C 
HETATM   10  H   UNL     1      26.881  41.840  53.265  1.00  0.00     0.162 HD
ENDROOT
BRANCH   1  11
HETATM   11  C   UNL     1      26.711  41.411  50.185  1.00  0.00     0.261 C 
HETATM   12  N   UNL     1      27.399  41.167  49.010  1.00  0.00    -0.323 N 
HETATM   13  H   UNL     1      27.928  41.951  48.644  1.00  0.00     0.169 HD
HETATM   14  O   UNL     1      26.125  40.580  50.868  1.00  0.00    -0.267 OA
BRANCH  12  15
HETATM   15  C   UNL     1      27.569  39.931  48.356  1.00  0.00     0.035 A 
HETATM   16  C   UNL     1      28.655  39.081  48.565  1.00  0.00     0.030 A 
HETATM   17  C   UNL     1      28.775  37.882  47.850  1.00  0.00     0.012 A 
HETATM   18  C   UNL     1      27.814  37.504  46.905  1.00  0.00    -0.030 A 
HETATM   19  C   UNL     1      26.708  38.350  46.724  1.00  0.00     0.012 A 
HETATM   20  C   UNL     1      26.586  39.546  47.441  1.00  0.00     0.030 A 
BRANCH  18  21
HETATM   21  C   UNL     1      27.910  36.242  46.075  1.00  0.00     0.147 C 
HETATM   22  C   UNL     1      29.233  36.004  45.351  1.00  0.00     0.044 C 
BRANCH  21  23
HETATM   23  O   UNL     1      27.650  35.133  46.934  1.00  0.00    -0.391 OA
HETATM   24  H   UNL     1      27.688  35.460  47.847  1.00  0.00     0.210 HD
ENDBRANCH  21  23
ENDBRANCH  18  21
ENDBRANCH  12  15
ENDBRANCH   1  11
BRANCH   4  25
HETATM   25  C   UNL     1      25.734  46.832  52.437  1.00  0.00     0.409 C 
HETATM   26  F   UNL     1      25.312  47.509  53.528  1.00  0.00    -0.169 F 
HETATM   27  F   UNL     1      26.421  47.725  51.672  1.00  0.00    -0.169 F 
HETATM   28  F   UNL     1      24.652  46.475  51.715  1.00  0.00    -0.169 F 
ENDBRANCH   4  25
BRANCH   6  29
HETATM   29  C   UNL     1      28.246  43.761  54.694  1.00  0.00     0.005 A 
HETATM   30  S   UNL     1      28.780  45.148  55.562  1.00  0.00    -0.104 SA
HETATM   31  C   UNL     1      30.397  44.602  55.584  1.00  0.00     0.050 A 
HETATM   32  C   UNL     1      30.537  43.379  54.968  1.00  0.00     0.008 A 
HETATM   33  C   UNL     1      29.299  42.892  54.460  1.00  0.00     0.017 A 
ENDBRANCH   6  29
TORSDOF 6
ENDMDL
MODEL 4
REMARK VINA RESULT:      -8.1      5.070      9.647
REMARK  6 active torsions:
REMARK  status: ('A' for Active; 'I' for Inactive)
REMARK    1  A    between atoms: C_2  and  O_3 
REMARK    2  A    between atoms: C_2  and  C_4 
REMARK    3  A    between atoms: C_7  and  N_8 
REMARK       I    between atoms: N_8  and  C_9 
REMARK    4  A    between atoms: C_9  and  C_10 
REMARK    5  A    between atoms: C_13  and  C_14 
REMARK    6  A    between atoms: C_19  and  C_20 
ROOT
HETATM    1  C   UNL     1      23.694  47.119  49.256  1.00  0.00     0.096 C 
HETATM    2  C   UNL     1      23.690  45.818  49.723  1.00  0.00     0.138 C 
HETATM    3  N   UNL     1      24.960  45.588  50.201  1.00  0.00    -0.240 N 
HETATM    4  C   UNL     1      25.412  44.330  50.771  1.00  0.00     0.221 C 
HETATM    5  C   UNL     1      24.208  43.425  51.093  1.00  0.00     0.067 C 
HETATM    6  C   UNL     1      23.170  43.442  49.960  1.00  0.00     0.125 C 
HETATM    7  N   UNL     1      22.741  44.838  49.742  1.00  0.00    -0.365 N 
HETATM    8  N   UNL     1      25.824  46.572  49.910  1.00  0.00    -0.181 NA
HETATM    9  C   UNL     1      25.049  47.514  49.367  1.00  0.00     0.160 C 
HETATM   10  H   UNL     1      21.994  44.888  49.045  1.00  0.00     0.162 HD
ENDROOT
BRANCH   1  11
HETATM   11  C   UNL     1      22.607  47.925  48.723  1.00  0.00     0.261 C 
HETATM   12  N   UNL     1      22.035  48.763  49.663  1.00  0.00    -0.323 N 
HETATM   13  H   UNL     1      22.486  48.772  50.572  1.00  0.00     0.169 HD
HETATM   14  O   UNL     1      22.313  47.859  47.537  1.00  0.00    -0.267 OA
BRANCH  12  15
HETATM   15  C   UNL     1      21.008  49.706  49.459  1.00  0.00     0.035 A 
HETATM   16  C   UNL     1      21.176  50.903  48.763  1.00  0.00     0.030 A 
HETATM   17  C   UNL     1      20.116  51.810  48.631  1.00  0.00     0.012 A 
HETATM   18  C   UNL     1      18.862  51.545  49.197  1.00  0.00    -0.030 A 
HETATM   19  C   UNL     1      18.695  50.324  49.870  1.00  0.00     0.012 A 
HETATM   20  C   UNL     1      19.752  49.416  49.997  1.00  0.00     0.030 A 
BRANCH  18  21
HETATM   21  C   UNL     1      17.693  52.504  49.122  1.00  0.00     0.147 C 
HETATM   22  C   UNL     1      16.604  52.168  48.107  1.00  0.00     0.044 C 
BRANCH  21  23
HETATM   23  O   UNL     1      17.106  52.579  50.420  1.00  0.00    -0.391 OA
HETATM   24  H   UNL     1      17.246  53.481  50.749  1.00  0.00     0.210 HD
ENDBRANCH  21  23
ENDBRANCH  18  21
ENDBRANCH  12  15
ENDBRANCH   1  11
BRANCH   4  25
HETATM   25  C   UNL     1      26.227  44.550  52.027  1.00  0.00     0.409 C 
HETATM   26  F   UNL     1      25.801  45.622  52.733  1.00  0.00    -0.169 F 
HETATM   27  F   UNL     1      26.095  43.473  52.849  1.00  0.00    -0.169 F 
HETATM   28  F   UNL     1      27.549  44.689  51.801  1.00  0.00    -0.169 F 
ENDBRANCH   4  25
BRANCH   6  29
HETATM   29  C   UNL     1      23.664  42.719  48.722  1.00  0.00     0.005 A 
HETATM   30  S   UNL     1      23.158  43.252  47.166  1.00  0.00    -0.104 SA
HETATM   31  C   UNL     1      24.040  42.021  46.378  1.00  0.00     0.050 A 
HETATM   32  C   UNL     1      24.729  41.230  47.268  1.00  0.00     0.008 A 
HETATM   33  C   UNL     1      24.517  41.634  48.617  1.00  0.00     0.017 A 
ENDBRANCH   6  29
TORSDOF 6
ENDMDL
MODEL 5
REMARK VINA RESULT:      -8.0      4.412      9.343
REMARK  6 active torsions:
REMARK  status: ('A' for Active; 'I' for Inactive)
REMARK    1  A    between atoms: C_2  and  O_3 
REMARK    2  A    between atoms: C_2  and  C_4 
REMARK    3  A    between atoms: C_7  and  N_8 
REMARK       I    between atoms: N_8  and  C_9 
REMARK    4  A    between atoms: C_9  and  C_10 
REMARK    5  A    between atoms: C_13  and  C_14 
REMARK    6  A    between atoms: C_19  and  C_20 
ROOT
HETATM    1  C   UNL     1      24.900  45.384  51.540  1.00  0.00     0.096 C 
HETATM    2  C   UNL     1      25.538  45.025  52.712  1.00  0.00     0.138 C 
HETATM    3  N   UNL     1      26.330  46.100  53.051  1.00  0.00    -0.240 N 
HETATM    4  C   UNL     1      27.200  46.149  54.214  1.00  0.00     0.221 C 
HETATM    5  C   UNL     1      26.853  45.009  55.190  1.00  0.00     0.067 C 
HETATM    6  C   UNL     1      26.614  43.685  54.450  1.00  0.00     0.125 C 
HETATM    7  N   UNL     1      25.531  43.890  53.467  1.00  0.00    -0.365 N 
HETATM    8  N   UNL     1      26.390  47.039  52.096  1.00  0.00    -0.181 NA
HETATM    9  C   UNL     1      25.497  46.621  51.194  1.00  0.00     0.160 C 
HETATM   10  H   UNL     1      25.285  43.013  53.002  1.00  0.00     0.162 HD
ENDROOT
BRANCH   1  11
HETATM   11  C   UNL     1      23.885  44.679  50.774  1.00  0.00     0.261 C 
HETATM   12  N   UNL     1      23.389  45.414  49.713  1.00  0.00    -0.323 N 
HETATM   13  H   UNL     1      23.841  46.308  49.554  1.00  0.00     0.169 HD
HETATM   14  O   UNL     1      23.585  43.527  51.061  1.00  0.00    -0.267 OA
BRANCH  12  15
HETATM   15  C   UNL     1      22.447  45.002  48.750  1.00  0.00     0.035 A 
HETATM   16  C   UNL     1      22.720  44.087  47.734  1.00  0.00     0.030 A 
HETATM   17  C   UNL     1      21.741  43.752  46.789  1.00  0.00     0.012 A 
HETATM   18  C   UNL     1      20.465  44.329  46.833  1.00  0.00    -0.030 A 
HETATM   19  C   UNL     1      20.191  45.226  47.877  1.00  0.00     0.012 A 
HETATM   20  C   UNL     1      21.167  45.557  48.824  1.00  0.00     0.030 A 
BRANCH  18  21
HETATM   21  C   UNL     1      19.382  44.036  45.817  1.00  0.00     0.147 C 
HETATM   22  C   UNL     1      19.461  42.686  45.109  1.00  0.00     0.044 C 
BRANCH  21  23
HETATM   23  O   UNL     1      18.123  44.135  46.481  1.00  0.00    -0.391 OA
HETATM   24  H   UNL     1      18.267  44.632  47.302  1.00  0.00     0.210 HD
ENDBRANCH  21  23
ENDBRANCH  18  21
ENDBRANCH  12  15
ENDBRANCH   1  11
BRANCH   4  25
HETATM   25  C   UNL     1      27.093  47.477  54.932  1.00  0.00     0.409 C 
HETATM   26  F   UNL     1      27.282  47.355  56.266  1.00  0.00    -0.169 F 
HETATM   27  F   UNL     1      28.066  48.317  54.482  1.00  0.00    -0.169 F 
HETATM   28  F   UNL     1      25.923  48.115  54.726  1.00  0.00    -0.169 F 
ENDBRANCH   4  25
BRANCH   6  29
HETATM   29  C   UNL     1      27.896  43.107  53.882  1.00  0.00     0.005 A 
HETATM   30  S   UNL     1      27.818  41.919  52.640  1.00  0.00    -0.104 SA
HETATM   31  C   UNL     1      29.517  41.772  52.575  1.00  0.00     0.050 A 
HETATM   32  C   UNL     1      30.143  42.622  53.457  1.00  0.00     0.008 A 
HETATM   33  C   UNL     1      29.210  43.395  54.207  1.00  0.00     0.017 A 
ENDBRANCH   6  29
TORSDOF 6
ENDMDL
MODEL 6
REMARK VINA RESULT:      -8.0     12.923     13.992
REMARK  6 active torsions:
REMARK  status: ('A' for Active; 'I' for Inactive)
REMARK    1  A    between atoms: C_2  and  O_3 
REMARK    2  A    between atoms: C_2  and  C_4 
REMARK    3  A    between atoms: C_7  and  N_8 
REMARK       I    between atoms: N_8  and  C_9 
REMARK    4  A    between atoms: C_9  and  C_10 
REMARK    5  A    between atoms: C_13  and  C_14 
REMARK    6  A    between atoms: C_19  and  C_20 
ROOT
HETATM    1  C   UNL     1      32.904  51.364  41.924  1.00  0.00     0.096 C 
HETATM    2  C   UNL     1      32.180  51.189  40.760  1.00  0.00     0.138 C 
HETATM    3  N   UNL     1      30.959  51.785  40.985  1.00  0.00    -0.240 N 
HETATM    4  C   UNL     1      29.869  51.820  40.026  1.00  0.00     0.221 C 
HETATM    5  C   UNL     1      30.375  51.427  38.625  1.00  0.00     0.067 C 
HETATM    6  C   UNL     1      31.324  50.220  38.686  1.00  0.00     0.125 C 
HETATM    7  N   UNL     1      32.448  50.556  39.582  1.00  0.00    -0.365 N 
HETATM    8  N   UNL     1      30.780  52.164  42.259  1.00  0.00    -0.181 NA
HETATM    9  C   UNL     1      31.971  51.939  42.820  1.00  0.00     0.160 C 
HETATM   10  H   UNL     1      33.145  49.808  39.593  1.00  0.00     0.162 HD
ENDROOT
BRANCH   1  11
HETATM   11  C   UNL     1      34.283  51.018  42.228  1.00  0.00     0.261 C 
HETATM   12  N   UNL     1      34.945  51.990  42.956  1.00  0.00    -0.323 N 
HETATM   13  H   UNL     1      34.376  52.777  43.250  1.00  0.00     0.169 HD
HETATM   14  O   UNL     1      34.735  49.931  41.892  1.00  0.00    -0.267 OA
BRANCH  12  15
HETATM   15  C   UNL     1      36.260  51.940  43.457  1.00  0.00     0.035 A 
HETATM   16  C   UNL     1      37.268  51.137  42.924  1.00  0.00     0.030 A 
HETATM   17  C   UNL     1      38.545  51.113  43.499  1.00  0.00     0.012 A 
HETATM   18  C   UNL     1      38.847  51.889  44.625  1.00  0.00    -0.030 A 
HETATM   19  C   UNL     1      37.835  52.718  45.136  1.00  0.00     0.012 A 
HETATM   20  C   UNL     1      36.561  52.745  44.559  1.00  0.00     0.030 A 
BRANCH  18  21
HETATM   21  C   UNL     1      40.195  51.874  45.313  1.00  0.00     0.147 C 
HETATM   22  C   UNL     1      40.413  52.920  46.403  1.00  0.00     0.044 C 
BRANCH  21  23
HETATM   23  O   UNL     1      40.385  50.577  45.875  1.00  0.00    -0.391 OA
HETATM   24  H   UNL     1      40.692  50.699  46.787  1.00  0.00     0.210 HD
ENDBRANCH  21  23
ENDBRANCH  18  21
ENDBRANCH  12  15
ENDBRANCH   1  11
BRANCH   4  25
HETATM   25  C   UNL     1      29.227  53.189  39.963  1.00  0.00     0.409 C 
HETATM   26  F   UNL     1      30.116  54.183  40.190  1.00  0.00    -0.169 F 
HETATM   27  F   UNL     1      28.725  53.400  38.715  1.00  0.00    -0.169 F 
HETATM   28  F   UNL     1      28.192  53.345  40.814  1.00  0.00    -0.169 F 
ENDBRANCH   4  25
BRANCH   6  29
HETATM   29  C   UNL     1      30.593  48.936  39.025  1.00  0.00     0.005 A 
HETATM   30  S   UNL     1      28.920  48.783  38.651  1.00  0.00    -0.104 SA
HETATM   31  C   UNL     1      28.842  47.211  39.311  1.00  0.00     0.050 A 
HETATM   32  C   UNL     1      30.063  46.789  39.787  1.00  0.00     0.008 A 
HETATM   33  C   UNL     1      31.072  47.780  39.618  1.00  0.00     0.017 A 
ENDBRANCH   6  29
TORSDOF 6
ENDMDL
MODEL 7
REMARK VINA RESULT:      -7.9      3.665      5.525
REMARK  6 active torsions:
REMARK  status: ('A' for Active; 'I' for Inactive)
REMARK    1  A    between atoms: C_2  and  O_3 
REMARK    2  A    between atoms: C_2  and  C_4 
REMARK    3  A    between atoms: C_7  and  N_8 
REMARK       I    between atoms: N_8  and  C_9 
REMARK    4  A    between atoms: C_9  and  C_10 
REMARK    5  A    between atoms: C_13  and  C_14 
REMARK    6  A    between atoms: C_19  and  C_20 
ROOT
HETATM    1  C   UNL     1      25.938  42.949  50.208  1.00  0.00     0.096 C 
HETATM    2  C   UNL     1      26.020  42.184  49.060  1.00  0.00     0.138 C 
HETATM    3  N   UNL     1      24.719  41.913  48.698  1.00  0.00    -0.240 N 
HETATM    4  C   UNL     1      24.332  41.111  47.550  1.00  0.00     0.221 C 
HETATM    5  C   UNL     1      25.533  40.913  46.606  1.00  0.00     0.067 C 
HETATM    6  C   UNL     1      26.817  40.591  47.387  1.00  0.00     0.125 C 
HETATM    7  N   UNL     1      27.068  41.688  48.343  1.00  0.00    -0.365 N 
HETATM    8  N   UNL     1      23.822  42.285  49.623  1.00  0.00    -0.181 NA
HETATM    9  C   UNL     1      24.558  42.943  50.522  1.00  0.00     0.160 C 
HETATM   10  H   UNL     1      27.956  41.552  48.833  1.00  0.00     0.162 HD
ENDROOT
BRANCH   1  11
HETATM   11  C   UNL     1      26.991  43.592  50.979  1.00  0.00     0.261 C 
HETATM   12  N   UNL     1      27.236  42.975  52.192  1.00  0.00    -0.323 N 
HETATM   13  H   UNL     1      26.716  42.119  52.359  1.00  0.00     0.169 HD
HETATM   14  O   UNL     1      27.599  44.549  50.517  1.00  0.00    -0.267 OA
BRANCH  12  15
HETATM   15  C   UNL     1      28.221  43.310  53.142  1.00  0.00     0.035 A 
HETATM   16  C   UNL     1      29.448  42.656  53.256  1.00  0.00     0.030 A 
HETATM   17  C   UNL     1      30.365  43.022  54.250  1.00  0.00     0.012 A 
HETATM   18  C   UNL     1      30.077  44.048  55.158  1.00  0.00    -0.030 A 
HETATM   19  C   UNL     1      28.853  44.720  55.016  1.00  0.00     0.012 A 
HETATM   20  C   UNL     1      27.939  44.358  54.021  1.00  0.00     0.030 A 
BRANCH  18  21
HETATM   21  C   UNL     1      31.011  44.459  56.277  1.00  0.00     0.147 C 
HETATM   22  C   UNL     1      30.419  45.360  57.358  1.00  0.00     0.044 C 
BRANCH  21  23
HETATM   23  O   UNL     1      31.509  43.271  56.889  1.00  0.00    -0.391 OA
HETATM   24  H   UNL     1      30.783  42.628  56.907  1.00  0.00     0.210 HD
ENDBRANCH  21  23
ENDBRANCH  18  21
ENDBRANCH  12  15
ENDBRANCH   1  11
BRANCH   4  25
HETATM   25  C   UNL     1      23.192  41.749  46.786  1.00  0.00     0.409 C 
HETATM   26  F   UNL     1      23.313  43.095  46.714  1.00  0.00    -0.169 F 
HETATM   27  F   UNL     1      23.193  41.295  45.503  1.00  0.00    -0.169 F 
HETATM   28  F   UNL     1      21.973  41.460  47.284  1.00  0.00    -0.169 F 
ENDBRANCH   4  25
BRANCH   6  29
HETATM   29  C   UNL     1      26.782  39.203  47.995  1.00  0.00     0.005 A 
HETATM   30  S   UNL     1      26.354  37.854  47.016  1.00  0.00    -0.104 SA
HETATM   31  C   UNL     1      26.506  36.766  48.323  1.00  0.00     0.050 A 
HETATM   32  C   UNL     1      26.898  37.399  49.479  1.00  0.00     0.008 A 
HETATM   33  C   UNL     1      27.062  38.802  49.291  1.00  0.00     0.017 A 
ENDBRANCH   6  29
TORSDOF 6
ENDMDL
MODEL 8
REMARK VINA RESULT:      -7.8      4.542      6.397
REMARK  6 active torsions:
REMARK  status: ('A' for Active; 'I' for Inactive)
REMARK    1  A    between atoms: C_2  and  O_3 
REMARK    2  A    between atoms: C_2  and  C_4 
REMARK    3  A    between atoms: C_7  and  N_8 
REMARK       I    between atoms: N_8  and  C_9 
REMARK    4  A    between atoms: C_9  and  C_10 
REMARK    5  A    between atoms: C_13  and  C_14 
REMARK    6  A    between atoms: C_19  and  C_20 
ROOT
HETATM    1  C   UNL     1      21.895  47.196  48.404  1.00  0.00     0.096 C 
HETATM    2  C   UNL     1      20.648  47.623  48.818  1.00  0.00     0.138 C 
HETATM    3  N   UNL     1      19.806  47.409  47.750  1.00  0.00    -0.240 N 
HETATM    4  C   UNL     1      18.390  47.737  47.736  1.00  0.00     0.221 C 
HETATM    5  C   UNL     1      17.891  48.013  49.167  1.00  0.00     0.067 C 
HETATM    6  C   UNL     1      18.886  48.879  49.955  1.00  0.00     0.125 C 
HETATM    7  N   UNL     1      20.192  48.189  49.972  1.00  0.00    -0.365 N 
HETATM    8  N   UNL     1      20.450  47.054  46.628  1.00  0.00    -0.181 NA
HETATM    9  C   UNL     1      21.712  46.893  47.034  1.00  0.00     0.160 C 
HETATM   10  H   UNL     1      20.867  48.695  50.551  1.00  0.00     0.162 HD
ENDROOT
BRANCH   1  11
HETATM   11  C   UNL     1      23.144  47.103  49.144  1.00  0.00     0.261 C 
HETATM   12  N   UNL     1      23.485  45.807  49.484  1.00  0.00    -0.323 N 
HETATM   13  H   UNL     1      22.874  45.085  49.116  1.00  0.00     0.169 HD
HETATM   14  O   UNL     1      23.809  48.108  49.362  1.00  0.00    -0.267 OA
BRANCH  12  15
HETATM   15  C   UNL     1      24.650  45.371  50.145  1.00  0.00     0.035 A 
HETATM   16  C   UNL     1      25.796  44.923  49.489  1.00  0.00     0.030 A 
HETATM   17  C   UNL     1      26.907  44.470  50.215  1.00  0.00     0.012 A 
HETATM   18  C   UNL     1      26.897  44.450  51.615  1.00  0.00    -0.030 A 
HETATM   19  C   UNL     1      25.750  44.933  52.266  1.00  0.00     0.012 A 
HETATM   20  C   UNL     1      24.643  45.389  51.542  1.00  0.00     0.030 A 
BRANCH  18  21
HETATM   21  C   UNL     1      28.049  43.936  52.451  1.00  0.00     0.147 C 
HETATM   22  C   UNL     1      27.773  43.739  53.940  1.00  0.00     0.044 C 
BRANCH  21  23
HETATM   23  O   UNL     1      28.474  42.694  51.892  1.00  0.00    -0.391 OA
HETATM   24  H   UNL     1      27.697  42.280  51.485  1.00  0.00     0.210 HD
ENDBRANCH  21  23
ENDBRANCH  18  21
ENDBRANCH  12  15
ENDBRANCH   1  11
BRANCH   4  25
HETATM   25  C   UNL     1      17.568  46.625  47.122  1.00  0.00     0.409 C 
HETATM   26  F   UNL     1      17.751  46.532  45.785  1.00  0.00    -0.169 F 
HETATM   27  F   UNL     1      17.956  45.430  47.646  1.00  0.00    -0.169 F 
HETATM   28  F   UNL     1      16.245  46.729  47.363  1.00  0.00    -0.169 F 
ENDBRANCH   4  25
BRANCH   6  29
HETATM   29  C   UNL     1      18.921  50.309  49.454  1.00  0.00     0.005 A 
HETATM   30  S   UNL     1      17.551  51.325  49.682  1.00  0.00    -0.104 SA
HETATM   31  C   UNL     1      18.301  52.637  48.889  1.00  0.00     0.050 A 
HETATM   32  C   UNL     1      19.577  52.330  48.476  1.00  0.00     0.008 A 
HETATM   33  C   UNL     1      19.936  50.991  48.805  1.00  0.00     0.017 A 
ENDBRANCH   6  29
TORSDOF 6
ENDMDL
MODEL 9
REMARK VINA RESULT:      -7.8      4.892      9.560
REMARK  6 active torsions:
REMARK  status: ('A' for Active; 'I' for Inactive)
REMARK    1  A    between atoms: C_2  and  O_3 
REMARK    2  A    between atoms: C_2  and  C_4 
REMARK    3  A    between atoms: C_7  and  N_8 
REMARK       I    between atoms: N_8  and  C_9 
REMARK    4  A    between atoms: C_9  and  C_10 
REMARK    5  A    between atoms: C_13  and  C_14 
REMARK    6  A    between atoms: C_19  and  C_20 
ROOT
HETATM    1  C   UNL     1      24.540  47.098  50.265  1.00  0.00     0.096 C 
HETATM    2  C   UNL     1      24.642  45.906  50.956  1.00  0.00     0.138 C 
HETATM    3  N   UNL     1      25.802  45.998  51.693  1.00  0.00    -0.240 N 
HETATM    4  C   UNL     1      26.315  44.950  52.559  1.00  0.00     0.221 C 
HETATM    5  C   UNL     1      25.228  43.890  52.818  1.00  0.00     0.067 C 
HETATM    6  C   UNL     1      24.466  43.537  51.531  1.00  0.00     0.125 C 
HETATM    7  N   UNL     1      23.879  44.776  50.983  1.00  0.00    -0.365 N 
HETATM    8  N   UNL     1      26.541  47.075  51.387  1.00  0.00    -0.181 NA
HETATM    9  C   UNL     1      25.760  47.758  50.546  1.00  0.00     0.160 C 
HETATM   10  H   UNL     1      23.298  44.576  50.165  1.00  0.00     0.162 HD
ENDROOT
BRANCH   1  11
HETATM   11  C   UNL     1      23.478  47.591  49.402  1.00  0.00     0.261 C 
HETATM   12  N   UNL     1      22.831  48.702  49.910  1.00  0.00    -0.323 N 
HETATM   13  H   UNL     1      23.220  49.079  50.768  1.00  0.00     0.169 HD
HETATM   14  O   UNL     1      23.265  47.060  48.319  1.00  0.00    -0.267 OA
BRANCH  12  15
HETATM   15  C   UNL     1      21.805  49.451  49.301  1.00  0.00     0.035 A 
HETATM   16  C   UNL     1      21.936  50.785  48.916  1.00  0.00     0.030 A 
HETATM   17  C   UNL     1      20.858  51.476  48.346  1.00  0.00     0.012 A 
HETATM   18  C   UNL     1      19.620  50.853  48.152  1.00  0.00    -0.030 A 
HETATM   19  C   UNL     1      19.506  49.501  48.515  1.00  0.00     0.012 A 
HETATM   20  C   UNL     1      20.584  48.809  49.079  1.00  0.00     0.030 A 
BRANCH  18  21
HETATM   21  C   UNL     1      18.409  51.559  47.580  1.00  0.00     0.147 C 
HETATM   22  C   UNL     1      17.045  51.016  47.998  1.00  0.00     0.044 C 
BRANCH  21  23
HETATM   23  O   UNL     1      18.491  52.934  47.951  1.00  0.00    -0.391 OA
HETATM   24  H   UNL     1      17.747  53.118  48.547  1.00  0.00     0.210 HD
ENDBRANCH  21  23
ENDBRANCH  18  21
ENDBRANCH  12  15
ENDBRANCH   1  11
BRANCH   4  25
HETATM   25  C   UNL     1      26.799  45.509  53.879  1.00  0.00     0.409 C 
HETATM   26  F   UNL     1      26.041  46.544  54.306  1.00  0.00    -0.169 F 
HETATM   27  F   UNL     1      26.711  44.547  54.839  1.00  0.00    -0.169 F 
HETATM   28  F   UNL     1      28.088  45.905  53.864  1.00  0.00    -0.169 F 
ENDBRANCH   4  25
BRANCH   6  29
HETATM   29  C   UNL     1      25.320  42.745  50.560  1.00  0.00     0.005 A 
HETATM   30  S   UNL     1      24.973  42.805  48.876  1.00  0.00    -0.104 SA
HETATM   31  C   UNL     1      26.242  41.727  48.503  1.00  0.00     0.050 A 
HETATM   32  C   UNL     1      26.939  41.341  49.624  1.00  0.00     0.008 A 
HETATM   33  C   UNL     1      26.412  41.931  50.809  1.00  0.00     0.017 A 
ENDBRANCH   6  29
TORSDOF 6
ENDMDL
MODEL 10
REMARK VINA RESULT:      -7.6      4.700      9.250
REMARK  6 active torsions:
REMARK  status: ('A' for Active; 'I' for Inactive)
REMARK    1  A    between atoms: C_2  and  O_3 
REMARK    2  A    between atoms: C_2  and  C_4 
REMARK    3  A    between atoms: C_7  and  N_8 
REMARK       I    between atoms: N_8  and  C_9 
REMARK    4  A    between atoms: C_9  and  C_10 
REMARK    5  A    between atoms: C_13  and  C_14 
REMARK    6  A    between atoms: C_19  and  C_20 
ROOT
HETATM    1  C   UNL     1      23.060  45.919  48.966  1.00  0.00     0.096 C 
HETATM    2  C   UNL     1      24.335  45.518  49.315  1.00  0.00     0.138 C 
HETATM    3  N   UNL     1      24.275  44.148  49.443  1.00  0.00    -0.240 N 
HETATM    4  C   UNL     1      25.396  43.305  49.822  1.00  0.00     0.221 C 
HETATM    5  C   UNL     1      26.717  44.088  49.713  1.00  0.00     0.067 C 
HETATM    6  C   UNL     1      26.580  45.509  50.283  1.00  0.00     0.125 C 
HETATM    7  N   UNL     1      25.492  46.198  49.559  1.00  0.00    -0.365 N 
HETATM    8  N   UNL     1      23.027  43.663  49.384  1.00  0.00    -0.181 NA
HETATM    9  C   UNL     1      22.294  44.732  49.062  1.00  0.00     0.160 C 
HETATM   10  H   UNL     1      25.415  47.174  49.855  1.00  0.00     0.162 HD
ENDROOT
BRANCH   1  11
HETATM   11  C   UNL     1      22.557  47.238  48.618  1.00  0.00     0.261 C 
HETATM   12  N   UNL     1      21.275  47.474  49.078  1.00  0.00    -0.323 N 
HETATM   13  H   UNL     1      20.877  46.742  49.657  1.00  0.00     0.169 HD
HETATM   14  O   UNL     1      23.272  48.035  48.024  1.00  0.00    -0.267 OA
BRANCH  12  15
HETATM   15  C   UNL     1      20.527  48.663  48.962  1.00  0.00     0.035 A 
HETATM   16  C   UNL     1      20.837  49.847  49.631  1.00  0.00     0.030 A 
HETATM   17  C   UNL     1      20.024  50.980  49.494  1.00  0.00     0.012 A 
HETATM   18  C   UNL     1      18.879  50.957  48.690  1.00  0.00    -0.030 A 
HETATM   19  C   UNL     1      18.592  49.770  47.996  1.00  0.00     0.012 A 
HETATM   20  C   UNL     1      19.406  48.640  48.129  1.00  0.00     0.030 A 
BRANCH  18  21
HETATM   21  C   UNL     1      17.942  52.137  48.535  1.00  0.00     0.147 C 
HETATM   22  C   UNL     1      17.322  52.684  49.819  1.00  0.00     0.044 C 
BRANCH  21  23
HETATM   23  O   UNL     1      18.663  53.185  47.889  1.00  0.00    -0.391 OA
HETATM   24  H   UNL     1      19.194  53.632  48.567  1.00  0.00     0.210 HD
ENDBRANCH  21  23
ENDBRANCH  18  21
ENDBRANCH  12  15
ENDBRANCH   1  11
BRANCH   4  25
HETATM   25  C   UNL     1      25.474  42.063  48.961  1.00  0.00     0.409 C 
HETATM   26  F   UNL     1      24.933  42.255  47.736  1.00  0.00    -0.169 F 
HETATM   27  F   UNL     1      26.779  41.732  48.756  1.00  0.00    -0.169 F 
HETATM   28  F   UNL     1      24.896  40.978  49.514  1.00  0.00    -0.169 F 
ENDBRANCH   4  25
BRANCH   6  29
HETATM   29  C   UNL     1      26.449  45.508  51.793  1.00  0.00     0.005 A 
HETATM   30  S   UNL     1      27.334  44.364  52.724  1.00  0.00    -0.104 SA
HETATM   31  C   UNL     1      26.679  44.943  54.191  1.00  0.00     0.050 A 
HETATM   32  C   UNL     1      25.822  46.000  53.991  1.00  0.00     0.008 A 
HETATM   33  C   UNL     1      25.693  46.330  52.612  1.00  0.00     0.017 A 
ENDBRANCH   6  29
TORSDOF 6
ENDMDL
