MODEL 1
REMARK VINA RESULT:     -11.6      0.000      0.000
REMARK  7 active torsions:
REMARK  status: ('A' for Active; 'I' for Inactive)
REMARK    1  A    between atoms: C_9  and  O_10 
REMARK    2  A    between atoms: O_10  and  C_11 
REMARK    3  A    between atoms: C_11  and  C_12 
REMARK    4  A    between atoms: C_15  and  C_16 
REMARK       I    between atoms: C_16  and  N_17 
REMARK    5  A    between atoms: N_17  and  N_18 
REMARK    6  A    between atoms: C_19  and  N_20 
REMARK    7  A    between atoms: C_21  and  C_22 
ROOT
HETATM    1  C   UNL     1      23.642  47.768  49.398  1.00  0.00     0.270 C 
HETATM    2  N   UNL     1      22.279  47.531  49.344  1.00  0.00    -0.262 N 
HETATM    3  O   UNL     1      24.247  48.566  48.687  1.00  0.00    -0.266 OA
HETATM    4  H   UNL     1      21.806  46.811  49.883  1.00  0.00     0.190 HD
ENDROOT
BRANCH   2   5
HETATM    5  N   UNL     1      21.444  48.295  48.516  1.00  0.00    -0.270 N 
HETATM    6  C   UNL     1      20.549  49.209  49.071  1.00  0.00     0.113 C 
HETATM    7  C   UNL     1      19.474  49.422  48.285  1.00  0.00     0.097 C 
HETATM    8  C   UNL     1      19.632  48.498  47.136  1.00  0.00     0.186 C 
HETATM    9  O   UNL     1      18.824  48.417  46.218  1.00  0.00    -0.290 OA
HETATM   10  C   UNL     1      20.895  47.679  47.300  1.00  0.00     0.234 C 
BRANCH   6  11
HETATM   11  N   UNL     1      20.794  49.800  50.291  1.00  0.00    -0.286 NA
HETATM   12  H   UNL     1      20.018  49.618  50.922  1.00  0.00     0.125 HD
HETATM   13  H   UNL     1      21.674  49.447  50.690  1.00  0.00     0.125 HD
ENDBRANCH   6  11
BRANCH   7  14
HETATM   14  C   UNL     1      18.415  50.317  48.514  1.00  0.00     0.146 A 
HETATM   15  N   UNL     1      17.986  50.881  49.630  1.00  0.00    -0.228 NA
HETATM   16  C   UNL     1      16.935  51.689  49.261  1.00  0.00     0.086 A 
HETATM   17  C   UNL     1      16.719  51.626  47.890  1.00  0.00     0.062 A 
HETATM   18  C   UNL     1      16.117  52.516  50.044  1.00  0.00     0.034 A 
HETATM   19  N   UNL     1      17.667  50.746  47.440  1.00  0.00    -0.338 N 
HETATM   20  C   UNL     1      15.723  52.351  47.233  1.00  0.00     0.032 A 
HETATM   21  H   UNL     1      17.813  50.459  46.478  1.00  0.00     0.167 HD
HETATM   22  C   UNL     1      14.917  53.173  48.031  1.00  0.00     0.002 A 
HETATM   23  C   UNL     1      15.108  53.255  49.412  1.00  0.00     0.002 A 
ENDBRANCH   7  14
ENDBRANCH   2   5
BRANCH   1  24
HETATM   24  C   UNL     1      24.398  46.925  50.359  1.00  0.00     0.033 A 
HETATM   25  C   UNL     1      24.205  45.539  50.320  1.00  0.00     0.017 A 
HETATM   26  C   UNL     1      24.893  44.710  51.207  1.00  0.00     0.010 A 
HETATM   27  C   UNL     1      25.790  45.253  52.139  1.00  0.00    -0.034 A 
HETATM   28  C   UNL     1      26.004  46.639  52.151  1.00  0.00     0.010 A 
HETATM   29  C   UNL     1      25.310  47.474  51.269  1.00  0.00     0.017 A 
BRANCH  27  30
HETATM   30  C   UNL     1      26.533  44.342  53.088  1.00  0.00     0.214 C 
BRANCH  30  31
HETATM   31  O   UNL     1      27.920  44.387  52.758  1.00  0.00    -0.347 OA
BRANCH  31  32
HETATM   32  C   UNL     1      28.809  44.176  53.775  1.00  0.00     0.070 A 
HETATM   33  C   UNL     1      29.763  43.162  53.835  1.00  0.00     0.037 A 
HETATM   34  C   UNL     1      30.620  43.067  54.937  1.00  0.00     0.015 A 
HETATM   35  C   UNL     1      30.535  43.981  55.998  1.00  0.00    -0.026 A 
HETATM   36  C   UNL     1      31.389  43.898  57.109  1.00  0.00     0.012 A 
HETATM   37  C   UNL     1      29.565  45.006  55.946  1.00  0.00    -0.023 A 
HETATM   38  C   UNL     1      31.288  44.815  58.157  1.00  0.00     0.001 A 
HETATM   39  C   UNL     1      30.331  45.824  58.107  1.00  0.00     0.001 A 
HETATM   40  C   UNL     1      29.475  45.920  57.008  1.00  0.00     0.012 A 
HETATM   41  C   UNL     1      28.714  45.087  54.831  1.00  0.00     0.049 A 
ENDBRANCH  31  32
ENDBRANCH  30  31
ENDBRANCH  27  30
ENDBRANCH   1  24
TORSDOF 7
ENDMDL
MODEL 2
REMARK VINA RESULT:     -11.3      3.064     13.055
REMARK  7 active torsions:
REMARK  status: ('A' for Active; 'I' for Inactive)
REMARK    1  A    between atoms: C_9  and  O_10 
REMARK    2  A    between atoms: O_10  and  C_11 
REMARK    3  A    between atoms: C_11  and  C_12 
REMARK    4  A    between atoms: C_15  and  C_16 
REMARK       I    between atoms: C_16  and  N_17 
REMARK    5  A    between atoms: N_17  and  N_18 
REMARK    6  A    between atoms: C_19  and  N_20 
REMARK    7  A    between atoms: C_21  and  C_22 
ROOT
HETATM    1  C   UNL     1      25.808  46.866  50.323  1.00  0.00     0.270 C 
HETATM    2  N   UNL     1      25.207  46.333  51.450  1.00  0.00    -0.262 N 
HETATM    3  O   UNL     1      26.948  46.609  49.943  1.00  0.00    -0.266 OA
HETATM    4  H   UNL     1      24.294  46.616  51.794  1.00  0.00     0.190 HD
ENDROOT
BRANCH   2   5
HETATM    5  N   UNL     1      25.842  45.338  52.207  1.00  0.00    -0.270 N 
HETATM    6  C   UNL     1      26.628  45.684  53.305  1.00  0.00     0.113 C 
HETATM    7  C   UNL     1      27.588  44.772  53.562  1.00  0.00     0.097 C 
HETATM    8  C   UNL     1      27.479  43.764  52.480  1.00  0.00     0.186 C 
HETATM    9  O   UNL     1      28.209  42.784  52.393  1.00  0.00    -0.290 OA
HETATM   10  C   UNL     1      26.375  44.154  51.518  1.00  0.00     0.234 C 
BRANCH   6  11
HETATM   11  N   UNL     1      26.398  46.844  54.013  1.00  0.00    -0.286 NA
HETATM   12  H   UNL     1      26.147  47.592  53.373  1.00  0.00     0.125 HD
HETATM   13  H   UNL     1      25.654  46.698  54.707  1.00  0.00     0.125 HD
ENDBRANCH   6  11
BRANCH   7  14
HETATM   14  C   UNL     1      28.512  44.782  54.621  1.00  0.00     0.146 A 
HETATM   15  N   UNL     1      28.640  45.604  55.649  1.00  0.00    -0.228 NA
HETATM   16  C   UNL     1      29.697  45.121  56.384  1.00  0.00     0.086 A 
HETATM   17  C   UNL     1      30.225  43.976  55.801  1.00  0.00     0.062 A 
HETATM   18  C   UNL     1      30.264  45.607  57.571  1.00  0.00     0.034 A 
HETATM   19  N   UNL     1      29.459  43.784  54.682  1.00  0.00    -0.338 N 
HETATM   20  C   UNL     1      31.301  43.264  56.337  1.00  0.00     0.032 A 
HETATM   21  H   UNL     1      29.554  43.031  54.010  1.00  0.00     0.167 HD
HETATM   22  C   UNL     1      31.852  43.763  57.524  1.00  0.00     0.002 A 
HETATM   23  C   UNL     1      31.346  44.914  58.132  1.00  0.00     0.002 A 
ENDBRANCH   7  14
ENDBRANCH   2   5
BRANCH   1  24
HETATM   24  C   UNL     1      25.000  47.869  49.583  1.00  0.00     0.033 A 
HETATM   25  C   UNL     1      23.614  47.685  49.516  1.00  0.00     0.017 A 
HETATM   26  C   UNL     1      22.817  48.602  48.828  1.00  0.00     0.010 A 
HETATM   27  C   UNL     1      23.393  49.720  48.207  1.00  0.00    -0.034 A 
HETATM   28  C   UNL     1      24.778  49.916  48.306  1.00  0.00     0.010 A 
HETATM   29  C   UNL     1      25.581  48.995  48.986  1.00  0.00     0.017 A 
BRANCH  27  30
HETATM   30  C   UNL     1      22.516  50.707  47.472  1.00  0.00     0.214 C 
BRANCH  30  31
HETATM   31  O   UNL     1      21.662  51.340  48.422  1.00  0.00    -0.347 OA
BRANCH  31  32
HETATM   32  C   UNL     1      20.314  51.236  48.216  1.00  0.00     0.070 A 
HETATM   33  C   UNL     1      19.692  50.477  47.227  1.00  0.00     0.037 A 
HETATM   34  C   UNL     1      18.295  50.453  47.134  1.00  0.00     0.015 A 
HETATM   35  C   UNL     1      17.500  51.191  48.025  1.00  0.00    -0.026 A 
HETATM   36  C   UNL     1      16.099  51.175  47.943  1.00  0.00     0.012 A 
HETATM   37  C   UNL     1      18.127  51.967  49.023  1.00  0.00    -0.023 A 
HETATM   38  C   UNL     1      15.324  51.917  48.836  1.00  0.00     0.001 A 
HETATM   39  C   UNL     1      15.941  52.684  49.820  1.00  0.00     0.001 A 
HETATM   40  C   UNL     1      17.334  52.709  49.914  1.00  0.00     0.012 A 
HETATM   41  C   UNL     1      19.530  51.978  49.103  1.00  0.00     0.049 A 
ENDBRANCH  31  32
ENDBRANCH  30  31
ENDBRANCH  27  30
ENDBRANCH   1  24
TORSDOF 7
ENDMDL
MODEL 3
REMARK VINA RESULT:     -11.2      0.671      1.547
REMARK  7 active torsions:
REMARK  status: ('A' for Active; 'I' for Inactive)
REMARK    1  A    between atoms: C_9  and  O_10 
REMARK    2  A    between atoms: O_10  and  C_11 
REMARK    3  A    between atoms: C_11  and  C_12 
REMARK    4  A    between atoms: C_15  and  C_16 
REMARK       I    between atoms: C_16  and  N_17 
REMARK    5  A    between atoms: N_17  and  N_18 
REMARK    6  A    between atoms: C_19  and  N_20 
REMARK    7  A    between atoms: C_21  and  C_22 
ROOT
HETATM    1  C   UNL     1      23.174  47.646  49.046  1.00  0.00     0.270 C 
HETATM    2  N   UNL     1      21.798  47.644  49.195  1.00  0.00    -0.262 N 
HETATM    3  O   UNL     1      23.791  48.285  48.197  1.00  0.00    -0.266 OA
HETATM    4  H   UNL     1      21.299  47.049  49.850  1.00  0.00     0.190 HD
ENDROOT
BRANCH   2   5
HETATM    5  N   UNL     1      20.985  48.490  48.426  1.00  0.00    -0.270 N 
HETATM    6  C   UNL     1      20.142  49.410  49.047  1.00  0.00     0.113 C 
HETATM    7  C   UNL     1      19.065  49.715  48.294  1.00  0.00     0.097 C 
HETATM    8  C   UNL     1      19.164  48.852  47.092  1.00  0.00     0.186 C 
HETATM    9  O   UNL     1      18.339  48.859  46.186  1.00  0.00    -0.290 OA
HETATM   10  C   UNL     1      20.391  47.968  47.187  1.00  0.00     0.234 C 
BRANCH   6  11
HETATM   11  N   UNL     1      20.433  49.920  50.294  1.00  0.00    -0.286 NA
HETATM   12  H   UNL     1      20.131  49.266  51.011  1.00  0.00     0.125 HD
HETATM   13  H   UNL     1      21.440  50.107  50.378  1.00  0.00     0.125 HD
ENDBRANCH   6  11
BRANCH   7  14
HETATM   14  C   UNL     1      18.052  50.642  48.591  1.00  0.00     0.146 A 
HETATM   15  N   UNL     1      17.726  51.232  49.729  1.00  0.00    -0.228 NA
HETATM   16  C   UNL     1      16.673  52.064  49.431  1.00  0.00     0.086 A 
HETATM   17  C   UNL     1      16.349  51.991  48.082  1.00  0.00     0.062 A 
HETATM   18  C   UNL     1      15.941  52.923  50.264  1.00  0.00     0.034 A 
HETATM   19  N   UNL     1      17.236  51.079  47.572  1.00  0.00    -0.338 N 
HETATM   20  C   UNL     1      15.325  52.736  47.494  1.00  0.00     0.032 A 
HETATM   21  H   UNL     1      17.298  50.777  46.607  1.00  0.00     0.167 HD
HETATM   22  C   UNL     1      14.606  53.589  48.340  1.00  0.00     0.002 A 
HETATM   23  C   UNL     1      14.906  53.682  49.701  1.00  0.00     0.002 A 
ENDBRANCH   7  14
ENDBRANCH   2   5
BRANCH   1  24
HETATM   24  C   UNL     1      23.916  46.743  49.964  1.00  0.00     0.033 A 
HETATM   25  C   UNL     1      24.810  47.315  50.876  1.00  0.00     0.017 A 
HETATM   26  C   UNL     1      25.530  46.504  51.755  1.00  0.00     0.010 A 
HETATM   27  C   UNL     1      25.359  45.112  51.740  1.00  0.00    -0.034 A 
HETATM   28  C   UNL     1      24.438  44.548  50.845  1.00  0.00     0.010 A 
HETATM   29  C   UNL     1      23.721  45.357  49.958  1.00  0.00     0.017 A 
BRANCH  27  30
HETATM   30  C   UNL     1      26.140  44.247  52.702  1.00  0.00     0.214 C 
BRANCH  30  31
HETATM   31  O   UNL     1      27.512  44.629  52.634  1.00  0.00    -0.347 OA
BRANCH  31  32
HETATM   32  C   UNL     1      28.136  44.923  53.815  1.00  0.00     0.070 A 
HETATM   33  C   UNL     1      27.871  46.018  54.634  1.00  0.00     0.037 A 
HETATM   34  C   UNL     1      28.583  46.193  55.826  1.00  0.00     0.015 A 
HETATM   35  C   UNL     1      29.574  45.279  56.216  1.00  0.00    -0.026 A 
HETATM   36  C   UNL     1      30.295  45.442  57.409  1.00  0.00     0.012 A 
HETATM   37  C   UNL     1      29.851  44.172  55.385  1.00  0.00    -0.023 A 
HETATM   38  C   UNL     1      31.278  44.523  57.780  1.00  0.00     0.001 A 
HETATM   39  C   UNL     1      31.554  43.433  56.961  1.00  0.00     0.001 A 
HETATM   40  C   UNL     1      30.844  43.256  55.771  1.00  0.00     0.012 A 
HETATM   41  C   UNL     1      29.126  44.010  54.193  1.00  0.00     0.049 A 
ENDBRANCH  31  32
ENDBRANCH  30  31
ENDBRANCH  27  30
ENDBRANCH   1  24
TORSDOF 7
ENDMDL
MODEL 4
REMARK VINA RESULT:     -11.1      1.792      2.086
REMARK  7 active torsions:
REMARK  status: ('A' for Active; 'I' for Inactive)
REMARK    1  A    between atoms: C_9  and  O_10 
REMARK    2  A    between atoms: O_10  and  C_11 
REMARK    3  A    between atoms: C_11  and  C_12 
REMARK    4  A    between atoms: C_15  and  C_16 
REMARK       I    between atoms: C_16  and  N_17 
REMARK    5  A    between atoms: N_17  and  N_18 
REMARK    6  A    between atoms: C_19  and  N_20 
REMARK    7  A    between atoms: C_21  and  C_22 
ROOT
HETATM    1  C   UNL     1      22.730  44.978  48.503  1.00  0.00     0.270 C 
HETATM    2  N   UNL     1      21.666  45.475  49.237  1.00  0.00    -0.262 N 
HETATM    3  O   UNL     1      22.795  44.964  47.276  1.00  0.00    -0.266 OA
HETATM    4  H   UNL     1      21.593  45.406  50.248  1.00  0.00     0.190 HD
ENDROOT
BRANCH   2   5
HETATM    5  N   UNL     1      20.593  46.124  48.608  1.00  0.00    -0.270 N 
HETATM    6  C   UNL     1      20.270  47.437  48.947  1.00  0.00     0.113 C 
HETATM    7  C   UNL     1      18.967  47.719  48.738  1.00  0.00     0.097 C 
HETATM    8  C   UNL     1      18.352  46.444  48.294  1.00  0.00     0.186 C 
HETATM    9  O   UNL     1      17.163  46.329  48.019  1.00  0.00    -0.290 OA
HETATM   10  C   UNL     1      19.393  45.345  48.272  1.00  0.00     0.234 C 
BRANCH   6  11
HETATM   11  N   UNL     1      21.221  48.306  49.434  1.00  0.00    -0.286 NA
HETATM   12  H   UNL     1      21.740  47.860  50.187  1.00  0.00     0.125 HD
HETATM   13  H   UNL     1      21.858  48.598  48.682  1.00  0.00     0.125 HD
ENDBRANCH   6  11
BRANCH   7  14
HETATM   14  C   UNL     1      18.323  48.954  48.920  1.00  0.00     0.146 A 
HETATM   15  N   UNL     1      18.659  50.005  49.647  1.00  0.00    -0.228 NA
HETATM   16  C   UNL     1      17.676  50.942  49.427  1.00  0.00     0.086 A 
HETATM   17  C   UNL     1      16.719  50.459  48.542  1.00  0.00     0.062 A 
HETATM   18  C   UNL     1      17.533  52.236  49.948  1.00  0.00     0.034 A 
HETATM   19  N   UNL     1      17.151  49.195  48.238  1.00  0.00    -0.338 N 
HETATM   20  C   UNL     1      15.610  51.199  48.127  1.00  0.00     0.032 A 
HETATM   21  H   UNL     1      16.699  48.541  47.609  1.00  0.00     0.167 HD
HETATM   22  C   UNL     1      15.486  52.490  48.655  1.00  0.00     0.002 A 
HETATM   23  C   UNL     1      16.428  53.002  49.550  1.00  0.00     0.002 A 
ENDBRANCH   7  14
ENDBRANCH   2   5
BRANCH   1  24
HETATM   24  C   UNL     1      23.824  44.366  49.300  1.00  0.00     0.033 A 
HETATM   25  C   UNL     1      23.558  43.177  49.988  1.00  0.00     0.017 A 
HETATM   26  C   UNL     1      24.558  42.571  50.752  1.00  0.00     0.010 A 
HETATM   27  C   UNL     1      25.838  43.139  50.830  1.00  0.00    -0.034 A 
HETATM   28  C   UNL     1      26.107  44.313  50.111  1.00  0.00     0.010 A 
HETATM   29  C   UNL     1      25.106  44.928  49.352  1.00  0.00     0.017 A 
BRANCH  27  30
HETATM   30  C   UNL     1      26.911  42.467  51.654  1.00  0.00     0.214 C 
BRANCH  30  31
HETATM   31  O   UNL     1      28.097  43.253  51.569  1.00  0.00    -0.347 OA
BRANCH  31  32
HETATM   32  C   UNL     1      28.795  43.456  52.728  1.00  0.00     0.070 A 
HETATM   33  C   UNL     1      29.941  42.773  53.128  1.00  0.00     0.037 A 
HETATM   34  C   UNL     1      30.562  43.090  54.341  1.00  0.00     0.015 A 
HETATM   35  C   UNL     1      30.044  44.092  55.176  1.00  0.00    -0.026 A 
HETATM   36  C   UNL     1      30.657  44.421  56.395  1.00  0.00     0.012 A 
HETATM   37  C   UNL     1      28.879  44.783  54.778  1.00  0.00    -0.023 A 
HETATM   38  C   UNL     1      30.127  45.420  57.214  1.00  0.00     0.001 A 
HETATM   39  C   UNL     1      28.977  46.100  56.824  1.00  0.00     0.001 A 
HETATM   40  C   UNL     1      28.357  45.785  55.613  1.00  0.00     0.012 A 
HETATM   41  C   UNL     1      28.269  44.453  53.556  1.00  0.00     0.049 A 
ENDBRANCH  31  32
ENDBRANCH  30  31
ENDBRANCH  27  30
ENDBRANCH   1  24
TORSDOF 7
ENDMDL
MODEL 5
REMARK VINA RESULT:     -11.0      1.720      2.251
REMARK  7 active torsions:
REMARK  status: ('A' for Active; 'I' for Inactive)
REMARK    1  A    between atoms: C_9  and  O_10 
REMARK    2  A    between atoms: O_10  and  C_11 
REMARK    3  A    between atoms: C_11  and  C_12 
REMARK    4  A    between atoms: C_15  and  C_16 
REMARK       I    between atoms: C_16  and  N_17 
REMARK    5  A    between atoms: N_17  and  N_18 
REMARK    6  A    between atoms: C_19  and  N_20 
REMARK    7  A    between atoms: C_21  and  C_22 
ROOT
HETATM    1  C   UNL     1      23.127  44.879  48.566  1.00  0.00     0.270 C 
HETATM    2  N   UNL     1      22.082  45.479  49.247  1.00  0.00    -0.262 N 
HETATM    3  O   UNL     1      23.126  44.610  47.367  1.00  0.00    -0.266 OA
HETATM    4  H   UNL     1      22.068  45.622  50.253  1.00  0.00     0.190 HD
ENDROOT
BRANCH   2   5
HETATM    5  N   UNL     1      20.946  45.941  48.568  1.00  0.00    -0.270 N 
HETATM    6  C   UNL     1      20.463  47.228  48.798  1.00  0.00     0.113 C 
HETATM    7  C   UNL     1      19.138  47.333  48.566  1.00  0.00     0.097 C 
HETATM    8  C   UNL     1      18.685  45.962  48.228  1.00  0.00     0.186 C 
HETATM    9  O   UNL     1      17.521  45.682  47.963  1.00  0.00    -0.290 OA
HETATM   10  C   UNL     1      19.851  44.998  48.296  1.00  0.00     0.234 C 
BRANCH   6  11
HETATM   11  N   UNL     1      21.298  48.242  49.213  1.00  0.00    -0.286 NA
HETATM   12  H   UNL     1      22.025  47.864  49.814  1.00  0.00     0.125 HD
HETATM   13  H   UNL     1      21.714  48.719  48.401  1.00  0.00     0.125 HD
ENDBRANCH   6  11
BRANCH   7  14
HETATM   14  C   UNL     1      18.348  48.492  48.646  1.00  0.00     0.146 A 
HETATM   15  N   UNL     1      17.174  48.778  48.110  1.00  0.00    -0.228 NA
HETATM   16  C   UNL     1      16.861  50.044  48.546  1.00  0.00     0.086 A 
HETATM   17  C   UNL     1      17.860  50.545  49.372  1.00  0.00     0.062 A 
HETATM   18  C   UNL     1      15.734  50.834  48.280  1.00  0.00     0.034 A 
HETATM   19  N   UNL     1      18.793  49.543  49.417  1.00  0.00    -0.338 N 
HETATM   20  C   UNL     1      17.805  51.806  49.969  1.00  0.00     0.032 A 
HETATM   21  H   UNL     1      19.664  49.556  49.936  1.00  0.00     0.167 HD
HETATM   22  C   UNL     1      16.670  52.580  49.695  1.00  0.00     0.002 A 
HETATM   23  C   UNL     1      15.652  52.106  48.865  1.00  0.00     0.002 A 
ENDBRANCH   7  14
ENDBRANCH   2   5
BRANCH   1  24
HETATM   24  C   UNL     1      24.293  44.491  49.401  1.00  0.00     0.033 A 
HETATM   25  C   UNL     1      25.380  45.370  49.472  1.00  0.00     0.017 A 
HETATM   26  C   UNL     1      26.497  45.043  50.242  1.00  0.00     0.010 A 
HETATM   27  C   UNL     1      26.540  43.839  50.960  1.00  0.00    -0.034 A 
HETATM   28  C   UNL     1      25.433  42.977  50.910  1.00  0.00     0.010 A 
HETATM   29  C   UNL     1      24.316  43.297  50.133  1.00  0.00     0.017 A 
BRANCH  27  30
HETATM   30  C   UNL     1      27.753  43.501  51.795  1.00  0.00     0.214 C 
BRANCH  30  31
HETATM   31  O   UNL     1      27.875  44.482  52.822  1.00  0.00    -0.347 OA
BRANCH  31  32
HETATM   32  C   UNL     1      28.780  44.234  53.817  1.00  0.00     0.070 A 
HETATM   33  C   UNL     1      29.709  43.196  53.841  1.00  0.00     0.037 A 
HETATM   34  C   UNL     1      30.587  43.063  54.923  1.00  0.00     0.015 A 
HETATM   35  C   UNL     1      30.545  43.962  56.000  1.00  0.00    -0.026 A 
HETATM   36  C   UNL     1      31.420  43.841  57.092  1.00  0.00     0.012 A 
HETATM   37  C   UNL     1      29.600  45.010  55.984  1.00  0.00    -0.023 A 
HETATM   38  C   UNL     1      31.363  44.743  58.155  1.00  0.00     0.001 A 
HETATM   39  C   UNL     1      30.430  45.775  58.141  1.00  0.00     0.001 A 
HETATM   40  C   UNL     1      29.554  45.910  57.062  1.00  0.00     0.012 A 
HETATM   41  C   UNL     1      28.728  45.130  54.888  1.00  0.00     0.049 A 
ENDBRANCH  31  32
ENDBRANCH  30  31
ENDBRANCH  27  30
ENDBRANCH   1  24
TORSDOF 7
ENDMDL
MODEL 6
REMARK VINA RESULT:     -10.8      1.684      2.292
REMARK  7 active torsions:
REMARK  status: ('A' for Active; 'I' for Inactive)
REMARK    1  A    between atoms: C_9  and  O_10 
REMARK    2  A    between atoms: O_10  and  C_11 
REMARK    3  A    between atoms: C_11  and  C_12 
REMARK    4  A    between atoms: C_15  and  C_16 
REMARK       I    between atoms: C_16  and  N_17 
REMARK    5  A    between atoms: N_17  and  N_18 
REMARK    6  A    between atoms: C_19  and  N_20 
REMARK    7  A    between atoms: C_21  and  C_22 
ROOT
HETATM    1  C   UNL     1      23.524  45.098  49.418  1.00  0.00     0.270 C 
HETATM    2  N   UNL     1      23.805  46.353  48.907  1.00  0.00    -0.262 N 
HETATM    3  O   UNL     1      22.420  44.560  49.398  1.00  0.00    -0.266 OA
HETATM    4  H   UNL     1      24.704  46.816  49.002  1.00  0.00     0.190 HD
ENDROOT
BRANCH   2   5
HETATM    5  N   UNL     1      22.835  47.083  48.204  1.00  0.00    -0.270 N 
HETATM    6  C   UNL     1      22.118  48.095  48.841  1.00  0.00     0.113 C 
HETATM    7  C   UNL     1      20.904  48.295  48.289  1.00  0.00     0.097 C 
HETATM    8  C   UNL     1      20.772  47.260  47.235  1.00  0.00     0.186 C 
HETATM    9  O   UNL     1      19.779  47.140  46.527  1.00  0.00    -0.290 OA
HETATM   10  C   UNL     1      22.010  46.388  47.206  1.00  0.00     0.234 C 
BRANCH   6  11
HETATM   11  N   UNL     1      22.648  48.782  49.912  1.00  0.00    -0.286 NA
HETATM   12  H   UNL     1      22.067  49.590  50.121  1.00  0.00     0.125 HD
HETATM   13  H   UNL     1      22.719  48.167  50.733  1.00  0.00     0.125 HD
ENDBRANCH   6  11
BRANCH   7  14
HETATM   14  C   UNL     1      19.955  49.267  48.647  1.00  0.00     0.146 A 
HETATM   15  N   UNL     1      20.088  50.402  49.312  1.00  0.00    -0.228 NA
HETATM   16  C   UNL     1      18.833  50.965  49.346  1.00  0.00     0.086 A 
HETATM   17  C   UNL     1      17.911  50.164  48.683  1.00  0.00     0.062 A 
HETATM   18  C   UNL     1      18.402  52.168  49.923  1.00  0.00     0.034 A 
HETATM   19  N   UNL     1      18.647  49.091  48.252  1.00  0.00    -0.338 N 
HETATM   20  C   UNL     1      16.561  50.491  48.549  1.00  0.00     0.032 A 
HETATM   21  H   UNL     1      18.302  48.299  47.721  1.00  0.00     0.167 HD
HETATM   22  C   UNL     1      16.149  51.697  49.130  1.00  0.00     0.002 A 
HETATM   23  C   UNL     1      17.051  52.522  49.806  1.00  0.00     0.002 A 
ENDBRANCH   7  14
ENDBRANCH   2   5
BRANCH   1  24
HETATM   24  C   UNL     1      24.659  44.413  50.089  1.00  0.00     0.033 A 
HETATM   25  C   UNL     1      24.373  43.368  50.974  1.00  0.00     0.017 A 
HETATM   26  C   UNL     1      25.409  42.699  51.628  1.00  0.00     0.010 A 
HETATM   27  C   UNL     1      26.745  43.060  51.399  1.00  0.00    -0.034 A 
HETATM   28  C   UNL     1      27.027  44.087  50.486  1.00  0.00     0.010 A 
HETATM   29  C   UNL     1      25.991  44.764  49.835  1.00  0.00     0.017 A 
BRANCH  27  30
HETATM   30  C   UNL     1      27.857  42.323  52.109  1.00  0.00     0.214 C 
BRANCH  30  31
HETATM   31  O   UNL     1      28.967  43.208  52.242  1.00  0.00    -0.347 OA
BRANCH  31  32
HETATM   32  C   UNL     1      29.110  43.852  53.440  1.00  0.00     0.070 A 
HETATM   33  C   UNL     1      28.373  44.950  53.875  1.00  0.00     0.037 A 
HETATM   34  C   UNL     1      28.619  45.508  55.135  1.00  0.00     0.015 A 
HETATM   35  C   UNL     1      29.610  44.979  55.977  1.00  0.00    -0.026 A 
HETATM   36  C   UNL     1      29.868  45.528  57.243  1.00  0.00     0.012 A 
HETATM   37  C   UNL     1      30.365  43.870  55.536  1.00  0.00    -0.023 A 
HETATM   38  C   UNL     1      30.858  44.990  58.066  1.00  0.00     0.001 A 
HETATM   39  C   UNL     1      31.604  43.898  57.632  1.00  0.00     0.001 A 
HETATM   40  C   UNL     1      31.359  43.340  56.376  1.00  0.00     0.012 A 
HETATM   41  C   UNL     1      30.103  43.322  54.269  1.00  0.00     0.049 A 
ENDBRANCH  31  32
ENDBRANCH  30  31
ENDBRANCH  27  30
ENDBRANCH   1  24
TORSDOF 7
ENDMDL
MODEL 7
REMARK VINA RESULT:     -10.7      2.117      3.273
REMARK  7 active torsions:
REMARK  status: ('A' for Active; 'I' for Inactive)
REMARK    1  A    between atoms: C_9  and  O_10 
REMARK    2  A    between atoms: O_10  and  C_11 
REMARK    3  A    between atoms: C_11  and  C_12 
REMARK    4  A    between atoms: C_15  and  C_16 
REMARK       I    between atoms: C_16  and  N_17 
REMARK    5  A    between atoms: N_17  and  N_18 
REMARK    6  A    between atoms: C_19  and  N_20 
REMARK    7  A    between atoms: C_21  and  C_22 
ROOT
HETATM    1  C   UNL     1      22.740  48.333  48.801  1.00  0.00     0.270 C 
HETATM    2  N   UNL     1      21.516  48.218  49.437  1.00  0.00    -0.262 N 
HETATM    3  O   UNL     1      22.993  49.123  47.896  1.00  0.00    -0.266 OA
HETATM    4  H   UNL     1      21.300  47.506  50.128  1.00  0.00     0.190 HD
ENDROOT
BRANCH   2   5
HETATM    5  N   UNL     1      20.468  49.107  49.156  1.00  0.00    -0.270 N 
HETATM    6  C   UNL     1      19.951  49.200  47.864  1.00  0.00     0.113 C 
HETATM    7  C   UNL     1      19.412  50.409  47.608  1.00  0.00     0.097 C 
HETATM    8  C   UNL     1      19.670  51.224  48.820  1.00  0.00     0.186 C 
HETATM    9  O   UNL     1      19.320  52.392  48.936  1.00  0.00    -0.290 OA
HETATM   10  C   UNL     1      20.439  50.408  49.839  1.00  0.00     0.234 C 
BRANCH   6  11
HETATM   11  N   UNL     1      20.011  48.135  46.992  1.00  0.00    -0.286 NA
HETATM   12  H   UNL     1      20.980  47.934  46.762  1.00  0.00     0.125 HD
HETATM   13  H   UNL     1      19.559  47.308  47.404  1.00  0.00     0.125 HD
ENDBRANCH   6  11
BRANCH   7  14
HETATM   14  C   UNL     1      18.760  50.820  46.433  1.00  0.00     0.146 A 
HETATM   15  N   UNL     1      18.759  50.300  45.218  1.00  0.00    -0.228 NA
HETATM   16  C   UNL     1      17.925  51.098  44.470  1.00  0.00     0.086 A 
HETATM   17  C   UNL     1      17.398  52.126  45.242  1.00  0.00     0.062 A 
HETATM   18  C   UNL     1      17.563  51.004  43.118  1.00  0.00     0.034 A 
HETATM   19  N   UNL     1      17.946  51.930  46.482  1.00  0.00    -0.338 N 
HETATM   20  C   UNL     1      16.511  53.084  44.748  1.00  0.00     0.032 A 
HETATM   21  H   UNL     1      17.780  52.493  47.309  1.00  0.00     0.167 HD
HETATM   22  C   UNL     1      16.159  52.973  43.397  1.00  0.00     0.002 A 
HETATM   23  C   UNL     1      16.674  51.953  42.594  1.00  0.00     0.002 A 
ENDBRANCH   7  14
ENDBRANCH   2   5
BRANCH   1  24
HETATM   24  C   UNL     1      23.777  47.362  49.236  1.00  0.00     0.033 A 
HETATM   25  C   UNL     1      24.973  47.863  49.763  1.00  0.00     0.017 A 
HETATM   26  C   UNL     1      25.976  46.987  50.180  1.00  0.00     0.010 A 
HETATM   27  C   UNL     1      25.794  45.599  50.087  1.00  0.00    -0.034 A 
HETATM   28  C   UNL     1      24.580  45.104  49.588  1.00  0.00     0.010 A 
HETATM   29  C   UNL     1      23.576  45.979  49.161  1.00  0.00     0.017 A 
BRANCH  27  30
HETATM   30  C   UNL     1      26.886  44.663  50.550  1.00  0.00     0.214 C 
BRANCH  30  31
HETATM   31  O   UNL     1      26.514  44.136  51.821  1.00  0.00    -0.347 OA
BRANCH  31  32
HETATM   32  C   UNL     1      27.243  44.547  52.903  1.00  0.00     0.070 A 
HETATM   33  C   UNL     1      27.028  45.706  53.646  1.00  0.00     0.037 A 
HETATM   34  C   UNL     1      27.848  46.002  54.741  1.00  0.00     0.015 A 
HETATM   35  C   UNL     1      28.899  45.147  55.107  1.00  0.00    -0.026 A 
HETATM   36  C   UNL     1      29.729  45.431  56.202  1.00  0.00     0.012 A 
HETATM   37  C   UNL     1      29.125  43.975  54.352  1.00  0.00    -0.023 A 
HETATM   38  C   UNL     1      30.771  44.569  56.551  1.00  0.00     0.001 A 
HETATM   39  C   UNL     1      30.996  43.415  55.807  1.00  0.00     0.001 A 
HETATM   40  C   UNL     1      30.178  43.119  54.715  1.00  0.00     0.012 A 
HETATM   41  C   UNL     1      28.291  43.693  53.257  1.00  0.00     0.049 A 
ENDBRANCH  31  32
ENDBRANCH  30  31
ENDBRANCH  27  30
ENDBRANCH   1  24
TORSDOF 7
ENDMDL
MODEL 8
REMARK VINA RESULT:     -10.6      3.610     12.634
REMARK  7 active torsions:
REMARK  status: ('A' for Active; 'I' for Inactive)
REMARK    1  A    between atoms: C_9  and  O_10 
REMARK    2  A    between atoms: O_10  and  C_11 
REMARK    3  A    between atoms: C_11  and  C_12 
REMARK    4  A    between atoms: C_15  and  C_16 
REMARK       I    between atoms: C_16  and  N_17 
REMARK    5  A    between atoms: N_17  and  N_18 
REMARK    6  A    between atoms: C_19  and  N_20 
REMARK    7  A    between atoms: C_21  and  C_22 
ROOT
HETATM    1  C   UNL     1      24.331  43.747  50.570  1.00  0.00     0.270 C 
HETATM    2  N   UNL     1      25.663  44.103  50.690  1.00  0.00    -0.262 N 
HETATM    3  O   UNL     1      23.787  42.832  51.184  1.00  0.00    -0.266 OA
HETATM    4  H   UNL     1      26.115  44.810  50.118  1.00  0.00     0.190 HD
ENDROOT
BRANCH   2   5
HETATM    5  N   UNL     1      26.494  43.490  51.639  1.00  0.00    -0.270 N 
HETATM    6  C   UNL     1      26.902  44.190  52.773  1.00  0.00     0.113 C 
HETATM    7  C   UNL     1      28.079  43.745  53.260  1.00  0.00     0.097 C 
HETATM    8  C   UNL     1      28.534  42.703  52.307  1.00  0.00     0.186 C 
HETATM    9  O   UNL     1      29.583  42.083  52.435  1.00  0.00    -0.290 OA
HETATM   10  C   UNL     1      27.537  42.564  51.176  1.00  0.00     0.234 C 
BRANCH   6  11
HETATM   11  N   UNL     1      26.142  45.213  53.296  1.00  0.00    -0.286 NA
HETATM   12  H   UNL     1      25.220  44.863  53.543  1.00  0.00     0.125 HD
HETATM   13  H   UNL     1      26.605  45.619  54.119  1.00  0.00     0.125 HD
ENDBRANCH   6  11
BRANCH   7  14
HETATM   14  C   UNL     1      28.746  44.188  54.415  1.00  0.00     0.146 A 
HETATM   15  N   UNL     1      28.518  45.226  55.200  1.00  0.00    -0.228 NA
HETATM   16  C   UNL     1      29.463  45.155  56.197  1.00  0.00     0.086 A 
HETATM   17  C   UNL     1      30.285  44.048  56.025  1.00  0.00     0.062 A 
HETATM   18  C   UNL     1      29.681  46.004  57.293  1.00  0.00     0.034 A 
HETATM   19  N   UNL     1      29.812  43.453  54.885  1.00  0.00    -0.338 N 
HETATM   20  C   UNL     1      31.327  43.719  56.893  1.00  0.00     0.032 A 
HETATM   21  H   UNL     1      30.169  42.607  54.456  1.00  0.00     0.167 HD
HETATM   22  C   UNL     1      31.528  44.576  57.983  1.00  0.00     0.002 A 
HETATM   23  C   UNL     1      30.721  45.699  58.181  1.00  0.00     0.002 A 
ENDBRANCH   7  14
ENDBRANCH   2   5
BRANCH   1  24
HETATM   24  C   UNL     1      23.553  44.517  49.565  1.00  0.00     0.033 A 
HETATM   25  C   UNL     1      22.612  43.832  48.789  1.00  0.00     0.017 A 
HETATM   26  C   UNL     1      21.862  44.516  47.830  1.00  0.00     0.010 A 
HETATM   27  C   UNL     1      22.035  45.895  47.643  1.00  0.00    -0.034 A 
HETATM   28  C   UNL     1      22.956  46.582  48.447  1.00  0.00     0.010 A 
HETATM   29  C   UNL     1      23.715  45.899  49.402  1.00  0.00     0.017 A 
BRANCH  27  30
HETATM   30  C   UNL     1      21.210  46.623  46.607  1.00  0.00     0.214 C 
BRANCH  30  31
HETATM   31  O   UNL     1      19.838  46.530  46.981  1.00  0.00    -0.347 OA
BRANCH  31  32
HETATM   32  C   UNL     1      19.342  47.521  47.782  1.00  0.00     0.070 A 
HETATM   33  C   UNL     1      18.503  47.347  48.880  1.00  0.00     0.037 A 
HETATM   34  C   UNL     1      18.075  48.455  49.621  1.00  0.00     0.015 A 
HETATM   35  C   UNL     1      18.476  49.754  49.273  1.00  0.00    -0.026 A 
HETATM   36  C   UNL     1      18.055  50.874  50.007  1.00  0.00     0.012 A 
HETATM   37  C   UNL     1      19.320  49.936  48.156  1.00  0.00    -0.023 A 
HETATM   38  C   UNL     1      18.462  52.159  49.645  1.00  0.00     0.001 A 
HETATM   39  C   UNL     1      19.293  52.340  48.543  1.00  0.00     0.001 A 
HETATM   40  C   UNL     1      19.720  51.235  47.804  1.00  0.00     0.012 A 
HETATM   41  C   UNL     1      19.741  48.813  47.425  1.00  0.00     0.049 A 
ENDBRANCH  31  32
ENDBRANCH  30  31
ENDBRANCH  27  30
ENDBRANCH   1  24
TORSDOF 7
ENDMDL
MODEL 9
REMARK VINA RESULT:     -10.1      3.279     13.360
REMARK  7 active torsions:
REMARK  status: ('A' for Active; 'I' for Inactive)
REMARK    1  A    between atoms: C_9  and  O_10 
REMARK    2  A    between atoms: O_10  and  C_11 
REMARK    3  A    between atoms: C_11  and  C_12 
REMARK    4  A    between atoms: C_15  and  C_16 
REMARK       I    between atoms: C_16  and  N_17 
REMARK    5  A    between atoms: N_17  and  N_18 
REMARK    6  A    between atoms: C_19  and  N_20 
REMARK    7  A    between atoms: C_21  and  C_22 
ROOT
HETATM    1  C   UNL     1      21.014  50.764  49.156  1.00  0.00     0.270 C 
HETATM    2  N   UNL     1      21.481  50.040  48.073  1.00  0.00    -0.262 N 
HETATM    3  O   UNL     1      21.616  50.916  50.216  1.00  0.00    -0.266 OA
HETATM    4  H   UNL     1      20.937  49.858  47.235  1.00  0.00     0.190 HD
ENDROOT
BRANCH   2   5
HETATM    5  N   UNL     1      22.774  49.497  48.069  1.00  0.00    -0.270 N 
HETATM    6  C   UNL     1      23.113  48.481  48.962  1.00  0.00     0.113 C 
HETATM    7  C   UNL     1      24.431  48.464  49.250  1.00  0.00     0.097 C 
HETATM    8  C   UNL     1      25.007  49.633  48.542  1.00  0.00     0.186 C 
HETATM    9  O   UNL     1      26.195  49.932  48.587  1.00  0.00    -0.290 OA
HETATM   10  C   UNL     1      23.916  50.386  47.810  1.00  0.00     0.234 C 
BRANCH   6  11
HETATM   11  N   UNL     1      22.162  47.617  49.458  1.00  0.00    -0.286 NA
HETATM   12  H   UNL     1      21.415  47.501  48.778  1.00  0.00     0.125 HD
HETATM   13  H   UNL     1      22.586  46.708  49.685  1.00  0.00     0.125 HD
ENDBRANCH   6  11
BRANCH   7  14
HETATM   14  C   UNL     1      25.113  47.544  50.064  1.00  0.00     0.146 A 
HETATM   15  N   UNL     1      25.105  47.378  51.375  1.00  0.00    -0.228 NA
HETATM   16  C   UNL     1      25.937  46.311  51.622  1.00  0.00     0.086 A 
HETATM   17  C   UNL     1      26.463  45.807  50.439  1.00  0.00     0.062 A 
HETATM   18  C   UNL     1      26.292  45.709  52.838  1.00  0.00     0.034 A 
HETATM   19  N   UNL     1      25.928  46.609  49.465  1.00  0.00    -0.338 N 
HETATM   20  C   UNL     1      27.333  44.716  50.385  1.00  0.00     0.032 A 
HETATM   21  H   UNL     1      26.088  46.531  48.467  1.00  0.00     0.167 HD
HETATM   22  C   UNL     1      27.673  44.126  51.608  1.00  0.00     0.002 A 
HETATM   23  C   UNL     1      27.164  44.612  52.815  1.00  0.00     0.002 A 
ENDBRANCH   7  14
ENDBRANCH   2   5
BRANCH   1  24
HETATM   24  C   UNL     1      19.649  51.331  49.003  1.00  0.00     0.033 A 
HETATM   25  C   UNL     1      19.135  51.481  47.710  1.00  0.00     0.017 A 
HETATM   26  C   UNL     1      17.858  52.012  47.521  1.00  0.00     0.010 A 
HETATM   27  C   UNL     1      17.074  52.391  48.621  1.00  0.00    -0.034 A 
HETATM   28  C   UNL     1      17.583  52.208  49.915  1.00  0.00     0.010 A 
HETATM   29  C   UNL     1      18.865  51.684  50.109  1.00  0.00     0.017 A 
BRANCH  27  30
HETATM   30  C   UNL     1      15.691  52.958  48.400  1.00  0.00     0.214 C 
BRANCH  30  31
HETATM   31  O   UNL     1      14.871  52.576  49.502  1.00  0.00    -0.347 OA
BRANCH  31  32
HETATM   32  C   UNL     1      14.186  53.572  50.144  1.00  0.00     0.070 A 
HETATM   33  C   UNL     1      12.896  54.004  49.847  1.00  0.00     0.037 A 
HETATM   34  C   UNL     1      12.309  55.033  50.593  1.00  0.00     0.015 A 
HETATM   35  C   UNL     1      13.006  55.648  51.645  1.00  0.00    -0.026 A 
HETATM   36  C   UNL     1      12.430  56.680  52.403  1.00  0.00     0.012 A 
HETATM   37  C   UNL     1      14.317  55.218  51.945  1.00  0.00    -0.023 A 
HETATM   38  C   UNL     1      13.138  57.281  53.444  1.00  0.00     0.001 A 
HETATM   39  C   UNL     1      14.431  56.859  53.739  1.00  0.00     0.001 A 
HETATM   40  C   UNL     1      15.017  55.833  52.996  1.00  0.00     0.012 A 
HETATM   41  C   UNL     1      14.889  54.183  51.186  1.00  0.00     0.049 A 
ENDBRANCH  31  32
ENDBRANCH  30  31
ENDBRANCH  27  30
ENDBRANCH   1  24
TORSDOF 7
ENDMDL
MODEL 10
REMARK VINA RESULT:     -10.1      1.931      3.345
REMARK  7 active torsions:
REMARK  status: ('A' for Active; 'I' for Inactive)
REMARK    1  A    between atoms: C_9  and  O_10 
REMARK    2  A    between atoms: O_10  and  C_11 
REMARK    3  A    between atoms: C_11  and  C_12 
REMARK    4  A    between atoms: C_15  and  C_16 
REMARK       I    between atoms: C_16  and  N_17 
REMARK    5  A    between atoms: N_17  and  N_18 
REMARK    6  A    between atoms: C_19  and  N_20 
REMARK    7  A    between atoms: C_21  and  C_22 
ROOT
HETATM    1  C   UNL     1      20.831  48.630  48.409  1.00  0.00     0.270 C 
HETATM    2  N   UNL     1      20.940  49.839  47.745  1.00  0.00    -0.262 N 
HETATM    3  O   UNL     1      19.773  48.094  48.729  1.00  0.00    -0.266 OA
HETATM    4  H   UNL     1      21.822  50.307  47.557  1.00  0.00     0.190 HD
ENDROOT
BRANCH   2   5
HETATM    5  N   UNL     1      19.802  50.513  47.276  1.00  0.00    -0.270 N 
HETATM    6  C   UNL     1      18.986  51.215  48.161  1.00  0.00     0.113 C 
HETATM    7  C   UNL     1      17.711  51.303  47.729  1.00  0.00     0.097 C 
HETATM    8  C   UNL     1      17.660  50.513  46.476  1.00  0.00     0.186 C 
HETATM    9  O   UNL     1      16.642  50.368  45.809  1.00  0.00    -0.290 OA
HETATM   10  C   UNL     1      19.019  49.909  46.188  1.00  0.00     0.234 C 
BRANCH   6  11
HETATM   11  N   UNL     1      19.486  51.741  49.332  1.00  0.00    -0.286 NA
HETATM   12  H   UNL     1      18.803  51.631  50.077  1.00  0.00     0.125 HD
HETATM   13  H   UNL     1      20.370  51.280  49.583  1.00  0.00     0.125 HD
ENDBRANCH   6  11
BRANCH   7  14
HETATM   14  C   UNL     1      16.648  51.984  48.346  1.00  0.00     0.146 A 
HETATM   15  N   UNL     1      16.243  51.997  49.604  1.00  0.00    -0.228 NA
HETATM   16  C   UNL     1      15.173  52.861  49.644  1.00  0.00     0.086 A 
HETATM   17  C   UNL     1      14.919  53.395  48.387  1.00  0.00     0.062 A 
HETATM   18  C   UNL     1      14.367  53.245  50.726  1.00  0.00     0.034 A 
HETATM   19  N   UNL     1      15.865  52.820  47.580  1.00  0.00    -0.338 N 
HETATM   20  C   UNL     1      13.896  54.310  48.131  1.00  0.00     0.032 A 
HETATM   21  H   UNL     1      15.988  52.983  46.587  1.00  0.00     0.167 HD
HETATM   22  C   UNL     1      13.103  54.683  49.223  1.00  0.00     0.002 A 
HETATM   23  C   UNL     1      13.331  54.161  50.499  1.00  0.00     0.002 A 
ENDBRANCH   7  14
ENDBRANCH   2   5
BRANCH   1  24
HETATM   24  C   UNL     1      22.118  47.998  48.799  1.00  0.00     0.033 A 
HETATM   25  C   UNL     1      23.171  48.831  49.195  1.00  0.00     0.017 A 
HETATM   26  C   UNL     1      24.398  48.279  49.567  1.00  0.00     0.010 A 
HETATM   27  C   UNL     1      24.587  46.890  49.557  1.00  0.00    -0.034 A 
HETATM   28  C   UNL     1      23.517  46.059  49.190  1.00  0.00     0.010 A 
HETATM   29  C   UNL     1      22.289  46.608  48.809  1.00  0.00     0.017 A 
BRANCH  27  30
HETATM   30  C   UNL     1      25.919  46.307  49.969  1.00  0.00     0.214 C 
BRANCH  30  31
HETATM   31  O   UNL     1      25.674  45.189  50.819  1.00  0.00    -0.347 OA
BRANCH  31  32
HETATM   32  C   UNL     1      26.493  45.040  51.904  1.00  0.00     0.070 A 
HETATM   33  C   UNL     1      26.381  45.717  53.116  1.00  0.00     0.037 A 
HETATM   34  C   UNL     1      27.287  45.460  54.152  1.00  0.00     0.015 A 
HETATM   35  C   UNL     1      28.321  44.525  53.990  1.00  0.00    -0.026 A 
HETATM   36  C   UNL     1      29.236  44.257  55.020  1.00  0.00     0.012 A 
HETATM   37  C   UNL     1      28.443  43.842  52.760  1.00  0.00    -0.023 A 
HETATM   38  C   UNL     1      30.260  43.326  54.840  1.00  0.00     0.001 A 
HETATM   39  C   UNL     1      30.383  42.653  53.628  1.00  0.00     0.001 A 
HETATM   40  C   UNL     1      29.480  42.909  52.594  1.00  0.00     0.012 A 
HETATM   41  C   UNL     1      27.524  44.111  51.732  1.00  0.00     0.049 A 
ENDBRANCH  31  32
ENDBRANCH  30  31
ENDBRANCH  27  30
ENDBRANCH   1  24
TORSDOF 7
ENDMDL
