MODEL 1
REMARK VINA RESULT:      -9.5      0.000      0.000
REMARK  4 active torsions:
REMARK  status: ('A' for Active; 'I' for Inactive)
REMARK    1  A    between atoms: N_2  and  C_4 
REMARK    2  A    between atoms: N_2  and  C_16 
REMARK    3  A    between atoms: C_4  and  C_5 
REMARK    4  A    between atoms: C_16  and  C_17 
ROOT
HETATM    1  C   UNL     1      26.907  43.241  50.687  1.00  0.00     0.270 C 
HETATM    2  N   UNL     1      26.491  44.229  51.738  1.00  0.00    -0.064 N 
HETATM    3  H   UNL     1      27.099  45.060  51.609  1.00  0.00     0.280 HD
ENDROOT
BRANCH   2   4
HETATM    4  C   UNL     1      25.077  44.748  51.540  1.00  0.00     0.312 C 
BRANCH   4   5
HETATM    5  C   UNL     1      25.050  46.034  50.723  1.00  0.00     0.133 A 
HETATM    6  N   UNL     1      26.162  46.663  50.501  1.00  0.00    -0.233 NA
HETATM    7  C   UNL     1      26.100  47.843  49.730  1.00  0.00     0.074 A 
HETATM    8  C   UNL     1      24.899  48.339  49.208  1.00  0.00     0.061 A 
HETATM    9  C   UNL     1      27.279  48.541  49.465  1.00  0.00     0.032 A 
HETATM   10  C   UNL     1      23.672  47.583  49.499  1.00  0.00     0.259 A 
HETATM   11  C   UNL     1      24.860  49.504  48.438  1.00  0.00     0.019 A 
HETATM   12  O   UNL     1      22.568  47.919  49.095  1.00  0.00    -0.267 OA
HETATM   13  N   UNL     1      23.835  46.450  50.258  1.00  0.00    -0.309 N 
HETATM   14  H   UNL     1      22.969  45.962  50.449  1.00  0.00     0.170 HD
HETATM   15  C   UNL     1      26.046  50.189  48.182  1.00  0.00     0.001 A 
HETATM   16  C   UNL     1      27.252  49.710  48.694  1.00  0.00     0.002 A 
ENDBRANCH   4   5
ENDBRANCH   2   4
BRANCH   2  17
HETATM   17  C   UNL     1      26.725  43.746  53.145  1.00  0.00     0.276 C 
BRANCH  17  18
HETATM   18  C   UNL     1      27.376  44.759  54.044  1.00  0.00     0.003 A 
HETATM   19  C   UNL     1      28.618  44.497  54.644  1.00  0.00     0.088 A 
HETATM   20  C   UNL     1      29.208  45.422  55.513  1.00  0.00     0.001 A 
HETATM   21  O   UNL     1      29.199  43.284  54.369  1.00  0.00    -0.325 OA
HETATM   22  C   UNL     1      30.523  45.103  56.158  1.00  0.00     0.212 C 
HETATM   23  C   UNL     1      28.573  46.647  55.751  1.00  0.00     0.036 A 
HETATM   24  O   UNL     1      30.727  43.695  56.146  1.00  0.00    -0.362 OA
HETATM   25  C   UNL     1      30.557  43.198  54.828  1.00  0.00     0.345 C 
HETATM   26  C   UNL     1      27.349  46.922  55.146  1.00  0.00     0.035 A 
HETATM   27 CL   UNL     1      26.560  48.418  55.451  1.00  0.00    -0.084 Cl
HETATM   28  C   UNL     1      26.748  45.989  54.301  1.00  0.00     0.035 A 
ENDBRANCH  17  18
ENDBRANCH   2  17
TORSDOF 4
ENDMDL
MODEL 2
REMARK VINA RESULT:      -9.2      2.052      2.682
REMARK  4 active torsions:
REMARK  status: ('A' for Active; 'I' for Inactive)
REMARK    1  A    between atoms: N_2  and  C_4 
REMARK    2  A    between atoms: N_2  and  C_16 
REMARK    3  A    between atoms: C_4  and  C_5 
REMARK    4  A    between atoms: C_16  and  C_17 
ROOT
HETATM    1  C   UNL     1      26.909  43.161  50.156  1.00  0.00     0.270 C 
HETATM    2  N   UNL     1      26.321  44.018  51.239  1.00  0.00    -0.064 N 
HETATM    3  H   UNL     1      26.913  44.869  51.286  1.00  0.00     0.280 HD
ENDROOT
BRANCH   2   4
HETATM    4  C   UNL     1      24.930  44.529  50.905  1.00  0.00     0.312 C 
BRANCH   4   5
HETATM    5  C   UNL     1      24.966  45.922  50.289  1.00  0.00     0.133 A 
HETATM    6  N   UNL     1      26.112  46.498  50.102  1.00  0.00    -0.233 NA
HETATM    7  C   UNL     1      26.108  47.783  49.518  1.00  0.00     0.074 A 
HETATM    8  C   UNL     1      24.927  48.434  49.142  1.00  0.00     0.061 A 
HETATM    9  C   UNL     1      27.324  48.430  49.294  1.00  0.00     0.032 A 
HETATM   10  C   UNL     1      23.659  47.730  49.385  1.00  0.00     0.259 A 
HETATM   11  C   UNL     1      24.944  49.702  48.555  1.00  0.00     0.019 A 
HETATM   12  O   UNL     1      22.568  48.199  49.095  1.00  0.00    -0.267 OA
HETATM   13  N   UNL     1      23.768  46.487  49.958  1.00  0.00    -0.309 N 
HETATM   14  H   UNL     1      22.876  46.037  50.122  1.00  0.00     0.170 HD
HETATM   15  C   UNL     1      26.167  50.334  48.338  1.00  0.00     0.001 A 
HETATM   16  C   UNL     1      27.354  49.700  48.707  1.00  0.00     0.002 A 
ENDBRANCH   4   5
ENDBRANCH   2   4
BRANCH   2  17
HETATM   17  C   UNL     1      26.379  43.386  52.605  1.00  0.00     0.276 C 
BRANCH  17  18
HETATM   18  C   UNL     1      27.372  44.022  53.537  1.00  0.00     0.003 A 
HETATM   19  C   UNL     1      27.192  45.338  53.991  1.00  0.00     0.088 A 
HETATM   20  C   UNL     1      28.136  45.948  54.826  1.00  0.00     0.001 A 
HETATM   21  O   UNL     1      26.076  46.003  53.548  1.00  0.00    -0.325 OA
HETATM   22  C   UNL     1      27.930  47.363  55.275  1.00  0.00     0.212 C 
HETATM   23  C   UNL     1      29.253  45.218  55.252  1.00  0.00     0.036 A 
HETATM   24  O   UNL     1      27.033  48.016  54.384  1.00  0.00    -0.362 OA
HETATM   25  C   UNL     1      25.853  47.242  54.240  1.00  0.00     0.345 C 
HETATM   26  C   UNL     1      29.430  43.906  54.820  1.00  0.00     0.035 A 
HETATM   27 CL   UNL     1      30.809  43.015  55.328  1.00  0.00    -0.084 Cl
HETATM   28  C   UNL     1      28.503  43.307  53.966  1.00  0.00     0.035 A 
ENDBRANCH  17  18
ENDBRANCH   2  17
TORSDOF 4
ENDMDL
MODEL 3
REMARK VINA RESULT:      -9.2      2.350      3.311
REMARK  4 active torsions:
REMARK  status: ('A' for Active; 'I' for Inactive)
REMARK    1  A    between atoms: N_2  and  C_4 
REMARK    2  A    between atoms: N_2  and  C_16 
REMARK    3  A    between atoms: C_4  and  C_5 
REMARK    4  A    between atoms: C_16  and  C_17 
ROOT
HETATM    1  C   UNL     1      26.929  43.484  49.971  1.00  0.00     0.270 C 
HETATM    2  N   UNL     1      26.279  44.241  51.094  1.00  0.00    -0.064 N 
HETATM    3  H   UNL     1      26.832  45.110  51.213  1.00  0.00     0.280 HD
ENDROOT
BRANCH   2   4
HETATM    4  C   UNL     1      24.876  44.715  50.757  1.00  0.00     0.312 C 
BRANCH   4   5
HETATM    5  C   UNL     1      24.877  46.109  50.143  1.00  0.00     0.133 A 
HETATM    6  N   UNL     1      23.795  46.553  49.584  1.00  0.00    -0.233 NA
HETATM    7  C   UNL     1      23.830  47.853  49.037  1.00  0.00     0.074 A 
HETATM    8  C   UNL     1      24.973  48.659  49.084  1.00  0.00     0.061 A 
HETATM    9  C   UNL     1      22.679  48.366  48.434  1.00  0.00     0.032 A 
HETATM   10  C   UNL     1      26.170  48.096  49.727  1.00  0.00     0.259 A 
HETATM   11  C   UNL     1      24.985  49.948  48.546  1.00  0.00     0.019 A 
HETATM   12  O   UNL     1      27.224  48.708  49.828  1.00  0.00    -0.267 OA
HETATM   13  N   UNL     1      26.037  46.825  50.227  1.00  0.00    -0.309 N 
HETATM   14  H   UNL     1      26.884  46.465  50.650  1.00  0.00     0.170 HD
HETATM   15  C   UNL     1      23.829  50.445  47.948  1.00  0.00     0.001 A 
HETATM   16  C   UNL     1      22.679  49.656  47.892  1.00  0.00     0.002 A 
ENDBRANCH   4   5
ENDBRANCH   2   4
BRANCH   2  17
HETATM   17  C   UNL     1      26.331  43.519  52.415  1.00  0.00     0.276 C 
BRANCH  17  18
HETATM   18  C   UNL     1      27.307  44.104  53.398  1.00  0.00     0.003 A 
HETATM   19  C   UNL     1      27.156  45.418  53.868  1.00  0.00     0.088 A 
HETATM   20  C   UNL     1      28.085  45.979  54.751  1.00  0.00     0.001 A 
HETATM   21  O   UNL     1      26.083  46.131  53.391  1.00  0.00    -0.325 OA
HETATM   22  C   UNL     1      27.911  47.394  55.216  1.00  0.00     0.212 C 
HETATM   23  C   UNL     1      29.156  45.202  55.209  1.00  0.00     0.036 A 
HETATM   24  O   UNL     1      27.076  48.093  54.301  1.00  0.00    -0.362 OA
HETATM   25  C   UNL     1      25.875  47.365  54.095  1.00  0.00     0.345 C 
HETATM   26  C   UNL     1      29.305  43.892  54.761  1.00  0.00     0.035 A 
HETATM   27 CL   UNL     1      30.629  42.944  55.310  1.00  0.00    -0.084 Cl
HETATM   28  C   UNL     1      28.393  43.342  53.860  1.00  0.00     0.035 A 
ENDBRANCH  17  18
ENDBRANCH   2  17
TORSDOF 4
ENDMDL
MODEL 4
REMARK VINA RESULT:      -9.2      1.218      1.961
REMARK  4 active torsions:
REMARK  status: ('A' for Active; 'I' for Inactive)
REMARK    1  A    between atoms: N_2  and  C_4 
REMARK    2  A    between atoms: N_2  and  C_16 
REMARK    3  A    between atoms: C_4  and  C_5 
REMARK    4  A    between atoms: C_16  and  C_17 
ROOT
HETATM    1  C   UNL     1      27.124  43.734  50.350  1.00  0.00     0.270 C 
HETATM    2  N   UNL     1      26.460  44.597  51.384  1.00  0.00    -0.064 N 
HETATM    3  H   UNL     1      26.994  45.486  51.403  1.00  0.00     0.280 HD
ENDROOT
BRANCH   2   4
HETATM    4  C   UNL     1      25.045  44.999  51.002  1.00  0.00     0.312 C 
BRANCH   4   5
HETATM    5  C   UNL     1      25.009  46.342  50.283  1.00  0.00     0.133 A 
HETATM    6  N   UNL     1      23.884  46.770  49.802  1.00  0.00    -0.233 NA
HETATM    7  C   UNL     1      23.886  48.023  49.154  1.00  0.00     0.074 A 
HETATM    8  C   UNL     1      25.043  48.800  49.022  1.00  0.00     0.061 A 
HETATM    9  C   UNL     1      22.690  48.518  48.632  1.00  0.00     0.032 A 
HETATM   10  C   UNL     1      26.289  48.257  49.584  1.00  0.00     0.259 A 
HETATM   11  C   UNL     1      25.023  50.043  48.386  1.00  0.00     0.019 A 
HETATM   12  O   UNL     1      27.358  48.847  49.531  1.00  0.00    -0.267 OA
HETATM   13  N   UNL     1      26.185  47.031  50.193  1.00  0.00    -0.309 N 
HETATM   14  H   UNL     1      27.063  46.684  50.557  1.00  0.00     0.170 HD
HETATM   15  C   UNL     1      23.821  50.523  47.870  1.00  0.00     0.001 A 
HETATM   16  C   UNL     1      22.657  49.762  47.992  1.00  0.00     0.002 A 
ENDBRANCH   4   5
ENDBRANCH   2   4
BRANCH   2  17
HETATM   17  C   UNL     1      26.530  44.030  52.777  1.00  0.00     0.276 C 
BRANCH  17  18
HETATM   18  C   UNL     1      27.212  44.927  53.773  1.00  0.00     0.003 A 
HETATM   19  C   UNL     1      28.432  44.555  54.360  1.00  0.00     0.088 A 
HETATM   20  C   UNL     1      29.048  45.369  55.317  1.00  0.00     0.001 A 
HETATM   21  O   UNL     1      28.963  43.347  53.981  1.00  0.00    -0.325 OA
HETATM   22  C   UNL     1      30.338  44.934  55.945  1.00  0.00     0.212 C 
HETATM   23  C   UNL     1      28.463  46.594  55.660  1.00  0.00     0.036 A 
HETATM   24  O   UNL     1      30.481  43.526  55.805  1.00  0.00    -0.362 OA
HETATM   25  C   UNL     1      30.309  43.159  54.445  1.00  0.00     0.345 C 
HETATM   26  C   UNL     1      27.262  46.979  55.069  1.00  0.00     0.035 A 
HETATM   27 CL   UNL     1      26.534  48.474  55.502  1.00  0.00    -0.084 Cl
HETATM   28  C   UNL     1      26.633  46.155  54.135  1.00  0.00     0.035 A 
ENDBRANCH  17  18
ENDBRANCH   2  17
TORSDOF 4
ENDMDL
MODEL 5
REMARK VINA RESULT:      -9.1      3.053      7.890
REMARK  4 active torsions:
REMARK  status: ('A' for Active; 'I' for Inactive)
REMARK    1  A    between atoms: N_2  and  C_4 
REMARK    2  A    between atoms: N_2  and  C_16 
REMARK    3  A    between atoms: C_4  and  C_5 
REMARK    4  A    between atoms: C_16  and  C_17 
ROOT
HETATM    1  C   UNL     1      26.102  46.996  51.813  1.00  0.00     0.270 C 
HETATM    2  N   UNL     1      26.386  45.905  52.804  1.00  0.00    -0.064 N 
HETATM    3  H   UNL     1      27.243  45.427  52.469  1.00  0.00     0.280 HD
ENDROOT
BRANCH   2   4
HETATM    4  C   UNL     1      26.747  46.432  54.183  1.00  0.00     0.312 C 
BRANCH   4   5
HETATM    5  C   UNL     1      27.946  45.703  54.776  1.00  0.00     0.133 A 
HETATM    6  N   UNL     1      28.382  46.053  55.945  1.00  0.00    -0.233 NA
HETATM    7  C   UNL     1      29.486  45.347  56.468  1.00  0.00     0.074 A 
HETATM    8  C   UNL     1      30.108  44.302  55.774  1.00  0.00     0.061 A 
HETATM    9  C   UNL     1      29.976  45.692  57.728  1.00  0.00     0.032 A 
HETATM   10  C   UNL     1      29.571  43.956  54.449  1.00  0.00     0.259 A 
HETATM   11  C   UNL     1      31.194  43.608  56.312  1.00  0.00     0.019 A 
HETATM   12  O   UNL     1      30.031  43.062  53.754  1.00  0.00    -0.267 OA
HETATM   13  N   UNL     1      28.497  44.701  54.028  1.00  0.00    -0.309 N 
HETATM   14  H   UNL     1      28.162  44.444  53.108  1.00  0.00     0.170 HD
HETATM   15  C   UNL     1      31.671  43.964  57.572  1.00  0.00     0.001 A 
HETATM   16  C   UNL     1      31.064  45.004  58.278  1.00  0.00     0.002 A 
ENDBRANCH   4   5
ENDBRANCH   2   4
BRANCH   2  17
HETATM   17  C   UNL     1      25.310  44.852  52.865  1.00  0.00     0.276 C 
BRANCH  17  18
HETATM   18  C   UNL     1      25.526  43.696  51.929  1.00  0.00     0.003 A 
HETATM   19  C   UNL     1      24.571  43.373  50.952  1.00  0.00     0.088 A 
HETATM   20  C   UNL     1      24.750  42.273  50.105  1.00  0.00     0.001 A 
HETATM   21  O   UNL     1      23.446  44.158  50.897  1.00  0.00    -0.325 OA
HETATM   22  C   UNL     1      23.701  41.937  49.088  1.00  0.00     0.212 C 
HETATM   23  C   UNL     1      25.922  41.512  50.203  1.00  0.00     0.036 A 
HETATM   24  O   UNL     1      22.463  42.521  49.476  1.00  0.00    -0.362 OA
HETATM   25  C   UNL     1      22.645  43.905  49.731  1.00  0.00     0.345 C 
HETATM   26  C   UNL     1      26.883  41.837  51.157  1.00  0.00     0.035 A 
HETATM   27 CL   UNL     1      28.313  40.893  51.289  1.00  0.00    -0.084 Cl
HETATM   28  C   UNL     1      26.691  42.917  52.019  1.00  0.00     0.035 A 
ENDBRANCH  17  18
ENDBRANCH   2  17
TORSDOF 4
ENDMDL
MODEL 6
REMARK VINA RESULT:      -9.1      3.450      7.454
REMARK  4 active torsions:
REMARK  status: ('A' for Active; 'I' for Inactive)
REMARK    1  A    between atoms: N_2  and  C_4 
REMARK    2  A    between atoms: N_2  and  C_16 
REMARK    3  A    between atoms: C_4  and  C_5 
REMARK    4  A    between atoms: C_16  and  C_17 
ROOT
HETATM    1  C   UNL     1      26.323  46.243  51.218  1.00  0.00     0.270 C 
HETATM    2  N   UNL     1      26.425  45.297  52.380  1.00  0.00    -0.064 N 
HETATM    3  H   UNL     1      27.251  44.699  52.192  1.00  0.00     0.280 HD
ENDROOT
BRANCH   2   4
HETATM    4  C   UNL     1      26.741  45.997  53.691  1.00  0.00     0.312 C 
BRANCH   4   5
HETATM    5  C   UNL     1      27.942  45.378  54.393  1.00  0.00     0.133 A 
HETATM    6  N   UNL     1      28.286  45.820  55.562  1.00  0.00    -0.233 NA
HETATM    7  C   UNL     1      29.396  45.213  56.188  1.00  0.00     0.074 A 
HETATM    8  C   UNL     1      30.117  44.170  55.594  1.00  0.00     0.061 A 
HETATM    9  C   UNL     1      29.790  45.659  57.451  1.00  0.00     0.032 A 
HETATM   10  C   UNL     1      29.681  43.717  54.265  1.00  0.00     0.259 A 
HETATM   11  C   UNL     1      31.208  43.575  56.235  1.00  0.00     0.019 A 
HETATM   12  O   UNL     1      30.232  42.813  53.653  1.00  0.00    -0.267 OA
HETATM   13  N   UNL     1      28.593  44.370  53.740  1.00  0.00    -0.309 N 
HETATM   14  H   UNL     1      28.329  44.041  52.820  1.00  0.00     0.170 HD
HETATM   15  C   UNL     1      31.587  44.032  57.495  1.00  0.00     0.001 A 
HETATM   16  C   UNL     1      30.881  45.071  58.101  1.00  0.00     0.002 A 
ENDBRANCH   4   5
ENDBRANCH   2   4
BRANCH   2  17
HETATM   17  C   UNL     1      25.247  44.367  52.505  1.00  0.00     0.276 C 
BRANCH  17  18
HETATM   18  C   UNL     1      25.122  43.377  51.380  1.00  0.00     0.003 A 
HETATM   19  C   UNL     1      26.077  42.363  51.203  1.00  0.00     0.088 A 
HETATM   20  C   UNL     1      25.986  41.466  50.133  1.00  0.00     0.001 A 
HETATM   21  O   UNL     1      27.115  42.322  52.101  1.00  0.00    -0.325 OA
HETATM   22  C   UNL     1      27.034  40.409  49.956  1.00  0.00     0.212 C 
HETATM   23  C   UNL     1      24.900  41.552  49.253  1.00  0.00     0.036 A 
HETATM   24  O   UNL     1      28.217  40.797  50.644  1.00  0.00    -0.362 OA
HETATM   25  C   UNL     1      27.904  41.127  51.988  1.00  0.00     0.345 C 
HETATM   26  C   UNL     1      23.939  42.544  49.430  1.00  0.00     0.035 A 
HETATM   27 CL   UNL     1      22.616  42.660  48.340  1.00  0.00    -0.084 Cl
HETATM   28  C   UNL     1      24.045  43.455  50.482  1.00  0.00     0.035 A 
ENDBRANCH  17  18
ENDBRANCH   2  17
TORSDOF 4
ENDMDL
MODEL 7
REMARK VINA RESULT:      -8.8      2.807      4.021
REMARK  4 active torsions:
REMARK  status: ('A' for Active; 'I' for Inactive)
REMARK    1  A    between atoms: N_2  and  C_4 
REMARK    2  A    between atoms: N_2  and  C_16 
REMARK    3  A    between atoms: C_4  and  C_5 
REMARK    4  A    between atoms: C_16  and  C_17 
ROOT
HETATM    1  C   UNL     1      27.891  41.556  53.883  1.00  0.00     0.270 C 
HETATM    2  N   UNL     1      28.770  41.708  52.675  1.00  0.00    -0.064 N 
HETATM    3  H   UNL     1      29.473  40.948  52.734  1.00  0.00     0.280 HD
ENDROOT
BRANCH   2   4
HETATM    4  C   UNL     1      28.034  41.458  51.369  1.00  0.00     0.312 C 
BRANCH   4   5
HETATM    5  C   UNL     1      27.006  42.544  51.077  1.00  0.00     0.133 A 
HETATM    6  N   UNL     1      27.413  43.697  50.647  1.00  0.00    -0.233 NA
HETATM    7  C   UNL     1      26.431  44.674  50.375  1.00  0.00     0.074 A 
HETATM    8  C   UNL     1      25.063  44.435  50.552  1.00  0.00     0.061 A 
HETATM    9  C   UNL     1      26.833  45.924  49.903  1.00  0.00     0.032 A 
HETATM   10  C   UNL     1      24.667  43.109  51.047  1.00  0.00     0.259 A 
HETATM   11  C   UNL     1      24.106  45.412  50.267  1.00  0.00     0.019 A 
HETATM   12  O   UNL     1      23.502  42.787  51.237  1.00  0.00    -0.267 OA
HETATM   13  N   UNL     1      25.694  42.229  51.283  1.00  0.00    -0.309 N 
HETATM   14  H   UNL     1      25.385  41.331  51.636  1.00  0.00     0.170 HD
HETATM   15  C   UNL     1      24.523  46.655  49.796  1.00  0.00     0.001 A 
HETATM   16  C   UNL     1      25.882  46.911  49.615  1.00  0.00     0.002 A 
ENDBRANCH   4   5
ENDBRANCH   2   4
BRANCH   2  17
HETATM   17  C   UNL     1      29.542  43.001  52.650  1.00  0.00     0.276 C 
BRANCH  17  18
HETATM   18  C   UNL     1      29.722  43.636  54.001  1.00  0.00     0.003 A 
HETATM   19  C   UNL     1      28.893  44.690  54.417  1.00  0.00     0.088 A 
HETATM   20  C   UNL     1      29.084  45.309  55.658  1.00  0.00     0.001 A 
HETATM   21  O   UNL     1      27.922  45.103  53.539  1.00  0.00    -0.325 OA
HETATM   22  C   UNL     1      28.199  46.450  56.064  1.00  0.00     0.212 C 
HETATM   23  C   UNL     1      30.086  44.840  56.516  1.00  0.00     0.036 A 
HETATM   24  O   UNL     1      27.608  47.026  54.906  1.00  0.00    -0.362 OA
HETATM   25  C   UNL     1      26.983  46.013  54.132  1.00  0.00     0.345 C 
HETATM   26  C   UNL     1      30.901  43.784  56.118  1.00  0.00     0.035 A 
HETATM   27 CL   UNL     1      32.143  43.219  57.164  1.00  0.00    -0.084 Cl
HETATM   28  C   UNL     1      30.728  43.183  54.870  1.00  0.00     0.035 A 
ENDBRANCH  17  18
ENDBRANCH   2  17
TORSDOF 4
ENDMDL
MODEL 8
REMARK VINA RESULT:      -8.7      3.203      7.484
REMARK  4 active torsions:
REMARK  status: ('A' for Active; 'I' for Inactive)
REMARK    1  A    between atoms: N_2  and  C_4 
REMARK    2  A    between atoms: N_2  and  C_16 
REMARK    3  A    between atoms: C_4  and  C_5 
REMARK    4  A    between atoms: C_16  and  C_17 
ROOT
HETATM    1  C   UNL     1      27.086  41.641  51.427  1.00  0.00     0.270 C 
HETATM    2  N   UNL     1      27.127  42.632  52.554  1.00  0.00    -0.064 N 
HETATM    3  H   UNL     1      27.399  42.096  53.399  1.00  0.00     0.280 HD
ENDROOT
BRANCH   2   4
HETATM    4  C   UNL     1      28.217  43.677  52.388  1.00  0.00     0.312 C 
BRANCH   4   5
HETATM    5  C   UNL     1      28.740  44.174  53.730  1.00  0.00     0.133 A 
HETATM    6  N   UNL     1      29.659  43.492  54.339  1.00  0.00    -0.233 NA
HETATM    7  C   UNL     1      30.128  43.989  55.574  1.00  0.00     0.074 A 
HETATM    8  C   UNL     1      29.641  45.171  56.144  1.00  0.00     0.061 A 
HETATM    9  C   UNL     1      31.124  43.284  56.253  1.00  0.00     0.032 A 
HETATM   10  C   UNL     1      28.595  45.895  55.406  1.00  0.00     0.259 A 
HETATM   11  C   UNL     1      30.126  45.652  57.362  1.00  0.00     0.019 A 
HETATM   12  O   UNL     1      28.098  46.939  55.805  1.00  0.00    -0.267 OA
HETATM   13  N   UNL     1      28.205  45.332  54.217  1.00  0.00    -0.309 N 
HETATM   14  H   UNL     1      27.475  45.850  53.743  1.00  0.00     0.170 HD
HETATM   15  C   UNL     1      31.120  44.937  58.028  1.00  0.00     0.001 A 
HETATM   16  C   UNL     1      31.617  43.756  57.475  1.00  0.00     0.002 A 
ENDBRANCH   4   5
ENDBRANCH   2   4
BRANCH   2  17
HETATM   17  C   UNL     1      25.789  43.254  52.858  1.00  0.00     0.276 C 
BRANCH  17  18
HETATM   18  C   UNL     1      25.073  43.793  51.651  1.00  0.00     0.003 A 
HETATM   19  C   UNL     1      25.115  45.162  51.341  1.00  0.00     0.088 A 
HETATM   20  C   UNL     1      24.417  45.673  50.241  1.00  0.00     0.001 A 
HETATM   21  O   UNL     1      25.836  45.970  52.185  1.00  0.00    -0.325 OA
HETATM   22  C   UNL     1      24.460  47.143  49.949  1.00  0.00     0.212 C 
HETATM   23  C   UNL     1      23.704  44.800  49.411  1.00  0.00     0.036 A 
HETATM   24  O   UNL     1      24.826  47.849  51.129  1.00  0.00    -0.362 OA
HETATM   25  C   UNL     1      26.018  47.297  51.667  1.00  0.00     0.345 C 
HETATM   26  C   UNL     1      23.671  43.438  49.701  1.00  0.00     0.035 A 
HETATM   27 CL   UNL     1      22.782  42.368  48.692  1.00  0.00    -0.084 Cl
HETATM   28  C   UNL     1      24.345  42.932  50.813  1.00  0.00     0.035 A 
ENDBRANCH  17  18
ENDBRANCH   2  17
TORSDOF 4
ENDMDL
MODEL 9
REMARK VINA RESULT:      -8.7      2.518      3.519
REMARK  4 active torsions:
REMARK  status: ('A' for Active; 'I' for Inactive)
REMARK    1  A    between atoms: N_2  and  C_4 
REMARK    2  A    between atoms: N_2  and  C_16 
REMARK    3  A    between atoms: C_4  and  C_5 
REMARK    4  A    between atoms: C_16  and  C_17 
ROOT
HETATM    1  C   UNL     1      28.255  42.404  51.082  1.00  0.00     0.270 C 
HETATM    2  N   UNL     1      27.206  43.111  51.891  1.00  0.00    -0.064 N 
HETATM    3  H   UNL     1      27.432  44.122  51.835  1.00  0.00     0.280 HD
ENDROOT
BRANCH   2   4
HETATM    4  C   UNL     1      25.813  42.990  51.295  1.00  0.00     0.312 C 
BRANCH   4   5
HETATM    5  C   UNL     1      25.305  44.322  50.757  1.00  0.00     0.133 A 
HETATM    6  N   UNL     1      24.264  44.334  49.985  1.00  0.00    -0.233 NA
HETATM    7  C   UNL     1      23.815  45.587  49.517  1.00  0.00     0.074 A 
HETATM    8  C   UNL     1      24.447  46.789  49.858  1.00  0.00     0.061 A 
HETATM    9  C   UNL     1      22.691  45.639  48.690  1.00  0.00     0.032 A 
HETATM   10  C   UNL     1      25.627  46.708  50.733  1.00  0.00     0.259 A 
HETATM   11  C   UNL     1      23.981  48.021  49.392  1.00  0.00     0.019 A 
HETATM   12  O   UNL     1      26.257  47.690  51.098  1.00  0.00    -0.267 OA
HETATM   13  N   UNL     1      25.986  45.445  51.134  1.00  0.00    -0.309 N 
HETATM   14  H   UNL     1      26.809  45.426  51.724  1.00  0.00     0.170 HD
HETATM   15  C   UNL     1      22.858  48.055  48.568  1.00  0.00     0.001 A 
HETATM   16  C   UNL     1      22.215  46.867  48.218  1.00  0.00     0.002 A 
ENDBRANCH   4   5
ENDBRANCH   2   4
BRANCH   2  17
HETATM   17  C   UNL     1      27.228  42.750  53.353  1.00  0.00     0.276 C 
BRANCH  17  18
HETATM   18  C   UNL     1      28.066  43.667  54.200  1.00  0.00     0.003 A 
HETATM   19  C   UNL     1      27.650  44.982  54.466  1.00  0.00     0.088 A 
HETATM   20  C   UNL     1      28.447  45.851  55.220  1.00  0.00     0.001 A 
HETATM   21  O   UNL     1      26.454  45.379  53.921  1.00  0.00    -0.325 OA
HETATM   22  C   UNL     1      27.988  47.257  55.466  1.00  0.00     0.212 C 
HETATM   23  C   UNL     1      29.654  45.388  55.757  1.00  0.00     0.036 A 
HETATM   24  O   UNL     1      27.027  47.620  54.482  1.00  0.00    -0.362 OA
HETATM   25  C   UNL     1      26.000  46.642  54.432  1.00  0.00     0.345 C 
HETATM   26  C   UNL     1      30.066  44.080  55.513  1.00  0.00     0.035 A 
HETATM   27 CL   UNL     1      31.556  43.516  56.158  1.00  0.00    -0.084 Cl
HETATM   28  C   UNL     1      29.284  43.222  54.739  1.00  0.00     0.035 A 
ENDBRANCH  17  18
ENDBRANCH   2  17
TORSDOF 4
ENDMDL
MODEL 10
REMARK VINA RESULT:      -8.6      1.537      2.114
REMARK  4 active torsions:
REMARK  status: ('A' for Active; 'I' for Inactive)
REMARK    1  A    between atoms: N_2  and  C_4 
REMARK    2  A    between atoms: N_2  and  C_16 
REMARK    3  A    between atoms: C_4  and  C_5 
REMARK    4  A    between atoms: C_16  and  C_17 
ROOT
HETATM    1  C   UNL     1      28.920  41.565  52.099  1.00  0.00     0.270 C 
HETATM    2  N   UNL     1      27.785  42.546  52.174  1.00  0.00    -0.064 N 
HETATM    3  H   UNL     1      28.170  43.456  51.858  1.00  0.00     0.280 HD
ENDROOT
BRANCH   2   4
HETATM    4  C   UNL     1      26.665  42.235  51.197  1.00  0.00     0.312 C 
BRANCH   4   5
HETATM    5  C   UNL     1      25.926  43.493  50.757  1.00  0.00     0.133 A 
HETATM    6  N   UNL     1      26.587  44.601  50.633  1.00  0.00    -0.233 NA
HETATM    7  C   UNL     1      25.873  45.743  50.212  1.00  0.00     0.074 A 
HETATM    8  C   UNL     1      24.502  45.711  49.930  1.00  0.00     0.061 A 
HETATM    9  C   UNL     1      26.555  46.951  50.060  1.00  0.00     0.032 A 
HETATM   10  C   UNL     1      23.807  44.425  50.096  1.00  0.00     0.259 A 
HETATM   11  C   UNL     1      23.814  46.850  49.505  1.00  0.00     0.019 A 
HETATM   12  O   UNL     1      22.614  44.278  49.876  1.00  0.00    -0.267 OA
HETATM   13  N   UNL     1      24.588  43.375  50.510  1.00  0.00    -0.309 N 
HETATM   14  H   UNL     1      24.075  42.509  50.626  1.00  0.00     0.170 HD
HETATM   15  C   UNL     1      24.510  48.048  49.357  1.00  0.00     0.001 A 
HETATM   16  C   UNL     1      25.876  48.099  49.634  1.00  0.00     0.002 A 
ENDBRANCH   4   5
ENDBRANCH   2   4
BRANCH   2  17
HETATM   17  C   UNL     1      27.271  42.765  53.573  1.00  0.00     0.276 C 
BRANCH  17  18
HETATM   18  C   UNL     1      27.597  44.117  54.144  1.00  0.00     0.003 A 
HETATM   19  C   UNL     1      28.783  44.326  54.867  1.00  0.00     0.088 A 
HETATM   20  C   UNL     1      29.070  45.573  55.433  1.00  0.00     0.001 A 
HETATM   21  O   UNL     1      29.617  43.247  55.021  1.00  0.00    -0.325 OA
HETATM   22  C   UNL     1      30.332  45.760  56.222  1.00  0.00     0.212 C 
HETATM   23  C   UNL     1      28.185  46.640  55.237  1.00  0.00     0.036 A 
HETATM   24  O   UNL     1      30.804  44.493  56.665  1.00  0.00    -0.362 OA
HETATM   25  C   UNL     1      30.898  43.605  55.562  1.00  0.00     0.345 C 
HETATM   26  C   UNL     1      27.015  46.446  54.507  1.00  0.00     0.035 A 
HETATM   27 CL   UNL     1      25.920  47.750  54.279  1.00  0.00    -0.084 Cl
HETATM   28  C   UNL     1      26.716  45.195  53.964  1.00  0.00     0.035 A 
ENDBRANCH  17  18
ENDBRANCH   2  17
TORSDOF 4
ENDMDL
