MODEL 1
REMARK VINA RESULT:      -8.9      0.000      0.000
REMARK  5 active torsions:
REMARK  status: ('A' for Active; 'I' for Inactive)
REMARK    1  A    between atoms: C_2  and  C_3 
REMARK    2  A    between atoms: C_8  and  N_9 
REMARK       I    between atoms: N_9  and  C_10 
REMARK       I    between atoms: C_10  and  N_11 
REMARK    3  A    between atoms: N_11  and  C_12 
REMARK    4  A    between atoms: C_12  and  C_13 
REMARK    5  A    between atoms: C_13  and  C_14 
ROOT
HETATM    1  N   UNL     1      26.177  46.705  50.141  1.00  0.00    -0.305 N 
HETATM    2  C   UNL     1      26.250  46.559  51.507  1.00  0.00     0.320 C 
HETATM    3  N   UNL     1      26.533  45.256  51.854  1.00  0.00    -0.342 N 
HETATM    4  O   UNL     1      26.120  47.449  52.334  1.00  0.00    -0.247 OA
HETATM    5  H   UNL     1      26.688  46.022  49.603  1.00  0.00     0.171 HD
HETATM    6  H   UNL     1      26.296  44.536  51.187  1.00  0.00     0.164 HD
ENDROOT
BRANCH   3   7
HETATM    7  C   UNL     1      26.623  44.840  53.247  1.00  0.00     0.138 C 
BRANCH   7   8
HETATM    8  C   UNL     1      27.864  43.969  53.585  1.00  0.00     0.003 C 
HETATM    9  C   UNL     1      27.407  42.509  53.859  1.00  0.00     0.016 C 
HETATM   10  C   UNL     1      28.665  41.659  53.690  1.00  0.00     0.001 C 
HETATM   11  C   UNL     1      29.551  42.431  52.717  1.00  0.00     0.001 C 
HETATM   12  C   UNL     1      28.755  43.683  52.349  1.00  0.00     0.016 C 
BRANCH   8  13
HETATM   13  C   UNL     1      28.629  44.606  54.766  1.00  0.00    -0.048 A 
HETATM   14  C   UNL     1      29.891  44.132  55.169  1.00  0.00     0.008 A 
HETATM   15  C   UNL     1      30.574  44.704  56.247  1.00  0.00     0.001 A 
HETATM   16  C   UNL     1      30.003  45.749  56.963  1.00  0.00     0.000 A 
HETATM   17  C   UNL     1      28.745  46.218  56.605  1.00  0.00     0.001 A 
HETATM   18  C   UNL     1      28.066  45.652  55.523  1.00  0.00     0.008 A 
ENDBRANCH   8  13
ENDBRANCH   7   8
ENDBRANCH   3   7
BRANCH   1  19
HETATM   19  C   UNL     1      25.774  47.857  49.479  1.00  0.00     0.095 A 
HETATM   20  C   UNL     1      24.461  48.131  49.153  1.00  0.00     0.107 A 
HETATM   21  O   UNL     1      24.392  49.327  48.515  1.00  0.00    -0.215 OA
HETATM   22  N   UNL     1      25.649  49.880  48.429  1.00  0.00    -0.131 NA
HETATM   23  C   UNL     1      26.481  49.006  49.014  1.00  0.00     0.087 A 
HETATM   24  C   UNL     1      27.914  49.371  49.127  1.00  0.00     0.075 C 
BRANCH  20  25
HETATM   25  C   UNL     1      23.168  47.424  49.316  1.00  0.00     0.065 C 
HETATM   26  C   UNL     1      22.166  47.834  48.248  1.00  0.00     0.012 C 
ENDBRANCH  20  25
ENDBRANCH   1  19
TORSDOF 5
ENDMDL
MODEL 2
REMARK VINA RESULT:      -8.7      3.970     10.526
REMARK  5 active torsions:
REMARK  status: ('A' for Active; 'I' for Inactive)
REMARK    1  A    between atoms: C_2  and  C_3 
REMARK    2  A    between atoms: C_8  and  N_9 
REMARK       I    between atoms: N_9  and  C_10 
REMARK       I    between atoms: C_10  and  N_11 
REMARK    3  A    between atoms: N_11  and  C_12 
REMARK    4  A    between atoms: C_12  and  C_13 
REMARK    5  A    between atoms: C_13  and  C_14 
ROOT
HETATM    1  N   UNL     1      23.555  48.397  49.794  1.00  0.00    -0.305 N 
HETATM    2  C   UNL     1      22.535  48.297  48.878  1.00  0.00     0.320 C 
HETATM    3  N   UNL     1      21.318  48.593  49.453  1.00  0.00    -0.342 N 
HETATM    4  O   UNL     1      22.655  48.019  47.694  1.00  0.00    -0.247 OA
HETATM    5  H   UNL     1      23.378  49.005  50.579  1.00  0.00     0.171 HD
HETATM    6  H   UNL     1      21.238  48.479  50.453  1.00  0.00     0.164 HD
ENDROOT
BRANCH   3   7
HETATM    7  C   UNL     1      20.078  48.520  48.693  1.00  0.00     0.138 C 
BRANCH   7   8
HETATM    8  C   UNL     1      19.282  49.852  48.619  1.00  0.00     0.003 C 
HETATM    9  C   UNL     1      19.118  50.432  50.051  1.00  0.00     0.016 C 
HETATM   10  C   UNL     1      18.793  51.911  49.848  1.00  0.00     0.001 C 
HETATM   11  C   UNL     1      19.426  52.287  48.512  1.00  0.00     0.001 C 
HETATM   12  C   UNL     1      20.110  51.015  48.013  1.00  0.00     0.016 C 
BRANCH   8  13
HETATM   13  C   UNL     1      17.940  49.606  47.898  1.00  0.00    -0.048 A 
HETATM   14  C   UNL     1      16.793  49.183  48.596  1.00  0.00     0.008 A 
HETATM   15  C   UNL     1      15.582  48.950  47.936  1.00  0.00     0.001 A 
HETATM   16  C   UNL     1      15.493  49.109  46.559  1.00  0.00     0.000 A 
HETATM   17  C   UNL     1      16.617  49.497  45.840  1.00  0.00     0.001 A 
HETATM   18  C   UNL     1      17.825  49.738  46.500  1.00  0.00     0.008 A 
ENDBRANCH   8  13
ENDBRANCH   7   8
ENDBRANCH   3   7
BRANCH   1  19
HETATM   19  C   UNL     1      24.875  48.031  49.567  1.00  0.00     0.095 A 
HETATM   20  C   UNL     1      25.393  46.795  49.900  1.00  0.00     0.107 A 
HETATM   21  O   UNL     1      26.705  46.745  49.551  1.00  0.00    -0.215 OA
HETATM   22  N   UNL     1      27.073  47.930  48.958  1.00  0.00    -0.131 NA
HETATM   23  C   UNL     1      25.977  48.702  48.957  1.00  0.00     0.087 A 
HETATM   24  C   UNL     1      26.060  50.035  48.313  1.00  0.00     0.075 C 
BRANCH  20  25
HETATM   25  C   UNL     1      24.863  45.574  50.551  1.00  0.00     0.065 C 
HETATM   26  C   UNL     1      25.143  45.568  52.046  1.00  0.00     0.012 C 
ENDBRANCH  20  25
ENDBRANCH   1  19
TORSDOF 5
ENDMDL
MODEL 3
REMARK VINA RESULT:      -8.6      1.888      3.230
REMARK  5 active torsions:
REMARK  status: ('A' for Active; 'I' for Inactive)
REMARK    1  A    between atoms: C_2  and  C_3 
REMARK    2  A    between atoms: C_8  and  N_9 
REMARK       I    between atoms: N_9  and  C_10 
REMARK       I    between atoms: C_10  and  N_11 
REMARK    3  A    between atoms: N_11  and  C_12 
REMARK    4  A    between atoms: C_12  and  C_13 
REMARK    5  A    between atoms: C_13  and  C_14 
ROOT
HETATM    1  N   UNL     1      24.836  47.868  50.008  1.00  0.00    -0.305 N 
HETATM    2  C   UNL     1      25.382  46.608  50.075  1.00  0.00     0.320 C 
HETATM    3  N   UNL     1      25.050  45.982  51.257  1.00  0.00    -0.342 N 
HETATM    4  O   UNL     1      26.053  46.067  49.207  1.00  0.00    -0.247 OA
HETATM    5  H   UNL     1      24.012  48.014  50.571  1.00  0.00     0.171 HD
HETATM    6  H   UNL     1      24.804  46.570  52.040  1.00  0.00     0.164 HD
ENDROOT
BRANCH   3   7
HETATM    7  C   UNL     1      25.543  44.650  51.580  1.00  0.00     0.138 C 
BRANCH   7   8
HETATM    8  C   UNL     1      26.302  44.549  52.931  1.00  0.00     0.003 C 
HETATM    9  C   UNL     1      26.800  45.960  53.347  1.00  0.00     0.016 C 
HETATM   10  C   UNL     1      27.074  45.862  54.847  1.00  0.00     0.001 C 
HETATM   11  C   UNL     1      26.145  44.764  55.358  1.00  0.00     0.001 C 
HETATM   12  C   UNL     1      25.359  44.294  54.134  1.00  0.00     0.016 C 
BRANCH   8  13
HETATM   13  C   UNL     1      27.437  43.509  52.802  1.00  0.00    -0.048 A 
HETATM   14  C   UNL     1      27.166  42.139  52.629  1.00  0.00     0.008 A 
HETATM   15  C   UNL     1      28.197  41.200  52.525  1.00  0.00     0.001 A 
HETATM   16  C   UNL     1      29.524  41.603  52.616  1.00  0.00     0.000 A 
HETATM   17  C   UNL     1      29.819  42.946  52.816  1.00  0.00     0.001 A 
HETATM   18  C   UNL     1      28.789  43.885  52.911  1.00  0.00     0.008 A 
ENDBRANCH   8  13
ENDBRANCH   7   8
ENDBRANCH   3   7
BRANCH   1  19
HETATM   19  C   UNL     1      25.095  48.802  49.015  1.00  0.00     0.095 A 
HETATM   20  C   UNL     1      24.113  49.380  48.235  1.00  0.00     0.107 A 
HETATM   21  O   UNL     1      24.681  50.249  47.360  1.00  0.00    -0.215 OA
HETATM   22  N   UNL     1      26.042  50.286  47.561  1.00  0.00    -0.131 NA
HETATM   23  C   UNL     1      26.294  49.426  48.558  1.00  0.00     0.087 A 
HETATM   24  C   UNL     1      27.692  49.302  49.038  1.00  0.00     0.075 C 
BRANCH  20  25
HETATM   25  C   UNL     1      22.641  49.245  48.129  1.00  0.00     0.065 C 
HETATM   26  C   UNL     1      21.925  50.487  48.637  1.00  0.00     0.012 C 
ENDBRANCH  20  25
ENDBRANCH   1  19
TORSDOF 5
ENDMDL
MODEL 4
REMARK VINA RESULT:      -8.6      4.817     10.362
REMARK  5 active torsions:
REMARK  status: ('A' for Active; 'I' for Inactive)
REMARK    1  A    between atoms: C_2  and  C_3 
REMARK    2  A    between atoms: C_8  and  N_9 
REMARK       I    between atoms: N_9  and  C_10 
REMARK       I    between atoms: C_10  and  N_11 
REMARK    3  A    between atoms: N_11  and  C_12 
REMARK    4  A    between atoms: C_12  and  C_13 
REMARK    5  A    between atoms: C_13  and  C_14 
ROOT
HETATM    1  N   UNL     1      23.358  48.118  49.867  1.00  0.00    -0.305 N 
HETATM    2  C   UNL     1      22.947  49.012  48.907  1.00  0.00     0.320 C 
HETATM    3  N   UNL     1      22.095  49.956  49.439  1.00  0.00    -0.342 N 
HETATM    4  O   UNL     1      23.295  49.022  47.735  1.00  0.00    -0.247 OA
HETATM    5  H   UNL     1      23.330  48.455  50.817  1.00  0.00     0.171 HD
HETATM    6  H   UNL     1      21.595  49.708  50.280  1.00  0.00     0.164 HD
ENDROOT
BRANCH   3   7
HETATM    7  C   UNL     1      21.493  50.992  48.611  1.00  0.00     0.138 C 
BRANCH   7   8
HETATM    8  C   UNL     1      19.940  50.989  48.595  1.00  0.00     0.003 C 
HETATM    9  C   UNL     1      19.412  50.584  49.999  1.00  0.00     0.016 C 
HETATM   10  C   UNL     1      17.966  51.074  50.040  1.00  0.00     0.001 C 
HETATM   11  C   UNL     1      17.912  52.260  49.080  1.00  0.00     0.001 C 
HETATM   12  C   UNL     1      19.335  52.416  48.546  1.00  0.00     0.016 C 
BRANCH   8  13
HETATM   13  C   UNL     1      19.443  50.066  47.461  1.00  0.00    -0.048 A 
HETATM   14  C   UNL     1      19.474  48.665  47.584  1.00  0.00     0.008 A 
HETATM   15  C   UNL     1      19.033  47.833  46.549  1.00  0.00     0.001 A 
HETATM   16  C   UNL     1      18.574  48.380  45.357  1.00  0.00     0.000 A 
HETATM   17  C   UNL     1      18.560  49.760  45.198  1.00  0.00     0.001 A 
HETATM   18  C   UNL     1      18.992  50.592  46.235  1.00  0.00     0.008 A 
ENDBRANCH   8  13
ENDBRANCH   7   8
ENDBRANCH   3   7
BRANCH   1  19
HETATM   19  C   UNL     1      24.106  46.972  49.627  1.00  0.00     0.095 A 
HETATM   20  C   UNL     1      25.474  46.904  49.797  1.00  0.00     0.107 A 
HETATM   21  O   UNL     1      25.909  45.657  49.484  1.00  0.00    -0.215 OA
HETATM   22  N   UNL     1      24.838  44.869  49.129  1.00  0.00    -0.131 NA
HETATM   23  C   UNL     1      23.753  45.651  49.221  1.00  0.00     0.087 A 
HETATM   24  C   UNL     1      22.428  45.043  48.953  1.00  0.00     0.075 C 
BRANCH  20  25
HETATM   25  C   UNL     1      26.532  47.860  50.202  1.00  0.00     0.065 C 
HETATM   26  C   UNL     1      26.904  48.801  49.067  1.00  0.00     0.012 C 
ENDBRANCH  20  25
ENDBRANCH   1  19
TORSDOF 5
ENDMDL
MODEL 5
REMARK VINA RESULT:      -8.6      4.519     10.021
REMARK  5 active torsions:
REMARK  status: ('A' for Active; 'I' for Inactive)
REMARK    1  A    between atoms: C_2  and  C_3 
REMARK    2  A    between atoms: C_8  and  N_9 
REMARK       I    between atoms: N_9  and  C_10 
REMARK       I    between atoms: C_10  and  N_11 
REMARK    3  A    between atoms: N_11  and  C_12 
REMARK    4  A    between atoms: C_12  and  C_13 
REMARK    5  A    between atoms: C_13  and  C_14 
ROOT
HETATM    1  N   UNL     1      22.552  48.060  49.599  1.00  0.00    -0.305 N 
HETATM    2  C   UNL     1      21.728  47.647  48.579  1.00  0.00     0.320 C 
HETATM    3  N   UNL     1      20.444  47.435  49.031  1.00  0.00    -0.342 N 
HETATM    4  O   UNL     1      22.046  47.508  47.407  1.00  0.00    -0.247 OA
HETATM    5  H   UNL     1      22.092  48.509  50.376  1.00  0.00     0.171 HD
HETATM    6  H   UNL     1      20.325  47.237  50.014  1.00  0.00     0.164 HD
ENDROOT
BRANCH   3   7
HETATM    7  C   UNL     1      19.392  46.956  48.145  1.00  0.00     0.138 C 
BRANCH   7   8
HETATM    8  C   UNL     1      18.171  47.906  48.013  1.00  0.00     0.003 C 
HETATM    9  C   UNL     1      17.584  47.793  46.579  1.00  0.00     0.016 C 
HETATM   10  C   UNL     1      16.161  48.341  46.685  1.00  0.00     0.001 C 
HETATM   11  C   UNL     1      15.739  48.099  48.131  1.00  0.00     0.001 C 
HETATM   12  C   UNL     1      16.928  47.401  48.791  1.00  0.00     0.016 C 
BRANCH   8  13
HETATM   13  C   UNL     1      18.597  49.341  48.392  1.00  0.00    -0.048 A 
HETATM   14  C   UNL     1      18.357  49.867  49.675  1.00  0.00     0.008 A 
HETATM   15  C   UNL     1      18.735  51.172  50.009  1.00  0.00     0.001 A 
HETATM   16  C   UNL     1      19.338  51.992  49.063  1.00  0.00     0.000 A 
HETATM   17  C   UNL     1      19.559  51.508  47.780  1.00  0.00     0.001 A 
HETATM   18  C   UNL     1      19.190  50.201  47.448  1.00  0.00     0.008 A 
ENDBRANCH   8  13
ENDBRANCH   7   8
ENDBRANCH   3   7
BRANCH   1  19
HETATM   19  C   UNL     1      23.928  48.224  49.501  1.00  0.00     0.095 A 
HETATM   20  C   UNL     1      24.526  49.235  48.776  1.00  0.00     0.107 A 
HETATM   21  O   UNL     1      25.876  49.127  48.877  1.00  0.00    -0.215 OA
HETATM   22  N   UNL     1      26.197  48.064  49.689  1.00  0.00    -0.131 NA
HETATM   23  C   UNL     1      25.032  47.524  50.073  1.00  0.00     0.087 A 
HETATM   24  C   UNL     1      25.067  46.382  51.018  1.00  0.00     0.075 C 
BRANCH  20  25
HETATM   25  C   UNL     1      24.041  50.349  47.927  1.00  0.00     0.065 C 
HETATM   26  C   UNL     1      23.063  51.241  48.675  1.00  0.00     0.012 C 
ENDBRANCH  20  25
ENDBRANCH   1  19
TORSDOF 5
ENDMDL
MODEL 6
REMARK VINA RESULT:      -8.5      4.634     10.496
REMARK  5 active torsions:
REMARK  status: ('A' for Active; 'I' for Inactive)
REMARK    1  A    between atoms: C_2  and  C_3 
REMARK    2  A    between atoms: C_8  and  N_9 
REMARK       I    between atoms: N_9  and  C_10 
REMARK       I    between atoms: C_10  and  N_11 
REMARK    3  A    between atoms: N_11  and  C_12 
REMARK    4  A    between atoms: C_12  and  C_13 
REMARK    5  A    between atoms: C_13  and  C_14 
ROOT
HETATM    1  N   UNL     1      23.632  48.089  49.806  1.00  0.00    -0.305 N 
HETATM    2  C   UNL     1      22.591  47.971  48.916  1.00  0.00     0.320 C 
HETATM    3  N   UNL     1      21.418  48.455  49.454  1.00  0.00    -0.342 N 
HETATM    4  O   UNL     1      22.663  47.532  47.777  1.00  0.00    -0.247 OA
HETATM    5  H   UNL     1      23.527  48.808  50.506  1.00  0.00     0.171 HD
HETATM    6  H   UNL     1      21.345  48.480  50.460  1.00  0.00     0.164 HD
ENDROOT
BRANCH   3   7
HETATM    7  C   UNL     1      20.163  48.405  48.716  1.00  0.00     0.138 C 
BRANCH   7   8
HETATM    8  C   UNL     1      19.404  49.758  48.633  1.00  0.00     0.003 C 
HETATM    9  C   UNL     1      19.246  50.346  50.062  1.00  0.00     0.016 C 
HETATM   10  C   UNL     1      18.962  51.833  49.854  1.00  0.00     0.001 C 
HETATM   11  C   UNL     1      19.614  52.189  48.520  1.00  0.00     0.001 C 
HETATM   12  C   UNL     1      20.267  50.897  48.030  1.00  0.00     0.016 C 
BRANCH   8  13
HETATM   13  C   UNL     1      18.060  49.546  47.903  1.00  0.00    -0.048 A 
HETATM   14  C   UNL     1      16.913  49.100  48.585  1.00  0.00     0.008 A 
HETATM   15  C   UNL     1      15.701  48.897  47.917  1.00  0.00     0.001 A 
HETATM   16  C   UNL     1      15.611  49.113  46.547  1.00  0.00     0.000 A 
HETATM   17  C   UNL     1      16.736  49.525  45.843  1.00  0.00     0.001 A 
HETATM   18  C   UNL     1      17.945  49.736  46.512  1.00  0.00     0.008 A 
ENDBRANCH   8  13
ENDBRANCH   7   8
ENDBRANCH   3   7
BRANCH   1  19
HETATM   19  C   UNL     1      24.907  47.571  49.622  1.00  0.00     0.095 A 
HETATM   20  C   UNL     1      25.988  48.330  49.221  1.00  0.00     0.107 A 
HETATM   21  O   UNL     1      27.089  47.539  49.133  1.00  0.00    -0.215 OA
HETATM   22  N   UNL     1      26.766  46.253  49.499  1.00  0.00    -0.131 NA
HETATM   23  C   UNL     1      25.460  46.268  49.802  1.00  0.00     0.087 A 
HETATM   24  C   UNL     1      24.842  45.015  50.298  1.00  0.00     0.075 C 
BRANCH  20  25
HETATM   25  C   UNL     1      26.197  49.750  48.854  1.00  0.00     0.065 C 
HETATM   26  C   UNL     1      25.288  50.175  47.712  1.00  0.00     0.012 C 
ENDBRANCH  20  25
ENDBRANCH   1  19
TORSDOF 5
ENDMDL
MODEL 7
REMARK VINA RESULT:      -8.4      4.644      9.956
REMARK  5 active torsions:
REMARK  status: ('A' for Active; 'I' for Inactive)
REMARK    1  A    between atoms: C_2  and  C_3 
REMARK    2  A    between atoms: C_8  and  N_9 
REMARK       I    between atoms: N_9  and  C_10 
REMARK       I    between atoms: C_10  and  N_11 
REMARK    3  A    between atoms: N_11  and  C_12 
REMARK    4  A    between atoms: C_12  and  C_13 
REMARK    5  A    between atoms: C_13  and  C_14 
ROOT
HETATM    1  N   UNL     1      23.271  47.982  49.928  1.00  0.00    -0.305 N 
HETATM    2  C   UNL     1      22.937  48.972  49.034  1.00  0.00     0.320 C 
HETATM    3  N   UNL     1      22.072  49.883  49.601  1.00  0.00    -0.342 N 
HETATM    4  O   UNL     1      23.356  49.082  47.891  1.00  0.00    -0.247 OA
HETATM    5  H   UNL     1      23.191  48.231  50.902  1.00  0.00     0.171 HD
HETATM    6  H   UNL     1      21.516  49.571  50.383  1.00  0.00     0.164 HD
ENDROOT
BRANCH   3   7
HETATM    7  C   UNL     1      21.541  51.006  48.839  1.00  0.00     0.138 C 
BRANCH   7   8
HETATM    8  C   UNL     1      19.991  51.076  48.781  1.00  0.00     0.003 C 
HETATM    9  C   UNL     1      19.438  51.406  50.195  1.00  0.00     0.016 C 
HETATM   10  C   UNL     1      18.023  51.933  49.959  1.00  0.00     0.001 C 
HETATM   11  C   UNL     1      18.041  52.529  48.554  1.00  0.00     0.001 C 
HETATM   12  C   UNL     1      19.472  52.341  48.051  1.00  0.00     0.016 C 
BRANCH   8  13
HETATM   13  C   UNL     1      19.441  49.756  48.199  1.00  0.00    -0.048 A 
HETATM   14  C   UNL     1      18.927  48.742  49.028  1.00  0.00     0.008 A 
HETATM   15  C   UNL     1      18.441  47.542  48.496  1.00  0.00     0.001 A 
HETATM   16  C   UNL     1      18.480  47.316  47.126  1.00  0.00     0.000 A 
HETATM   17  C   UNL     1      19.011  48.289  46.286  1.00  0.00     0.001 A 
HETATM   18  C   UNL     1      19.488  49.491  46.816  1.00  0.00     0.008 A 
ENDBRANCH   8  13
ENDBRANCH   7   8
ENDBRANCH   3   7
BRANCH   1  19
HETATM   19  C   UNL     1      24.010  46.846  49.626  1.00  0.00     0.095 A 
HETATM   20  C   UNL     1      23.483  45.739  48.993  1.00  0.00     0.107 A 
HETATM   21  O   UNL     1      24.451  44.800  48.839  1.00  0.00    -0.215 OA
HETATM   22  N   UNL     1      25.641  45.275  49.340  1.00  0.00    -0.131 NA
HETATM   23  C   UNL     1      25.384  46.506  49.806  1.00  0.00     0.087 A 
HETATM   24  C   UNL     1      26.512  47.296  50.355  1.00  0.00     0.075 C 
BRANCH  20  25
HETATM   25  C   UNL     1      22.143  45.354  48.490  1.00  0.00     0.065 C 
HETATM   26  C   UNL     1      21.880  45.919  47.103  1.00  0.00     0.012 C 
ENDBRANCH  20  25
ENDBRANCH   1  19
TORSDOF 5
ENDMDL
MODEL 8
REMARK VINA RESULT:      -8.4      4.052      9.972
REMARK  5 active torsions:
REMARK  status: ('A' for Active; 'I' for Inactive)
REMARK    1  A    between atoms: C_2  and  C_3 
REMARK    2  A    between atoms: C_8  and  N_9 
REMARK       I    between atoms: N_9  and  C_10 
REMARK       I    between atoms: C_10  and  N_11 
REMARK    3  A    between atoms: N_11  and  C_12 
REMARK    4  A    between atoms: C_12  and  C_13 
REMARK    5  A    between atoms: C_13  and  C_14 
ROOT
HETATM    1  N   UNL     1      22.616  48.207  49.607  1.00  0.00    -0.305 N 
HETATM    2  C   UNL     1      21.771  47.736  48.630  1.00  0.00     0.320 C 
HETATM    3  N   UNL     1      20.518  47.472  49.139  1.00  0.00    -0.342 N 
HETATM    4  O   UNL     1      22.048  47.589  47.449  1.00  0.00    -0.247 OA
HETATM    5  H   UNL     1      22.166  48.649  50.395  1.00  0.00     0.171 HD
HETATM    6  H   UNL     1      20.450  47.288  50.129  1.00  0.00     0.164 HD
ENDROOT
BRANCH   3   7
HETATM    7  C   UNL     1      19.456  46.926  48.306  1.00  0.00     0.138 C 
BRANCH   7   8
HETATM    8  C   UNL     1      18.252  47.881  48.081  1.00  0.00     0.003 C 
HETATM    9  C   UNL     1      17.740  47.727  46.622  1.00  0.00     0.016 C 
HETATM   10  C   UNL     1      16.319  48.288  46.635  1.00  0.00     0.001 C 
HETATM   11  C   UNL     1      15.819  48.096  48.065  1.00  0.00     0.001 C 
HETATM   12  C   UNL     1      16.966  47.410  48.807  1.00  0.00     0.016 C 
BRANCH   8  13
HETATM   13  C   UNL     1      18.671  49.324  48.436  1.00  0.00    -0.048 A 
HETATM   14  C   UNL     1      18.365  49.894  49.686  1.00  0.00     0.008 A 
HETATM   15  C   UNL     1      18.736  51.206  49.999  1.00  0.00     0.001 A 
HETATM   16  C   UNL     1      19.400  51.989  49.063  1.00  0.00     0.000 A 
HETATM   17  C   UNL     1      19.688  51.461  47.810  1.00  0.00     0.001 A 
HETATM   18  C   UNL     1      19.325  50.147  47.500  1.00  0.00     0.008 A 
ENDBRANCH   8  13
ENDBRANCH   7   8
ENDBRANCH   3   7
BRANCH   1  19
HETATM   19  C   UNL     1      23.977  48.434  49.450  1.00  0.00     0.095 A 
HETATM   20  C   UNL     1      24.954  47.660  50.043  1.00  0.00     0.107 A 
HETATM   21  O   UNL     1      26.179  48.132  49.697  1.00  0.00    -0.215 OA
HETATM   22  N   UNL     1      26.039  49.207  48.850  1.00  0.00    -0.131 NA
HETATM   23  C   UNL     1      24.720  49.387  48.691  1.00  0.00     0.087 A 
HETATM   24  C   UNL     1      24.265  50.452  47.765  1.00  0.00     0.075 C 
BRANCH  20  25
HETATM   25  C   UNL     1      24.959  46.493  50.957  1.00  0.00     0.065 C 
HETATM   26  C   UNL     1      25.572  46.839  52.305  1.00  0.00     0.012 C 
ENDBRANCH  20  25
ENDBRANCH   1  19
TORSDOF 5
ENDMDL
MODEL 9
REMARK VINA RESULT:      -8.3      3.158      6.831
REMARK  5 active torsions:
REMARK  status: ('A' for Active; 'I' for Inactive)
REMARK    1  A    between atoms: C_2  and  C_3 
REMARK    2  A    between atoms: C_8  and  N_9 
REMARK       I    between atoms: N_9  and  C_10 
REMARK       I    between atoms: C_10  and  N_11 
REMARK    3  A    between atoms: N_11  and  C_12 
REMARK    4  A    between atoms: C_12  and  C_13 
REMARK    5  A    between atoms: C_13  and  C_14 
ROOT
HETATM    1  N   UNL     1      27.611  44.170  54.338  1.00  0.00    -0.305 N 
HETATM    2  C   UNL     1      27.699  43.749  53.032  1.00  0.00     0.320 C 
HETATM    3  N   UNL     1      26.570  43.054  52.655  1.00  0.00    -0.342 N 
HETATM    4  O   UNL     1      28.624  43.971  52.264  1.00  0.00    -0.247 OA
HETATM    5  H   UNL     1      26.675  44.275  54.699  1.00  0.00     0.171 HD
HETATM    6  H   UNL     1      26.026  42.623  53.388  1.00  0.00     0.164 HD
ENDROOT
BRANCH   3   7
HETATM    7  C   UNL     1      26.442  42.471  51.327  1.00  0.00     0.138 C 
BRANCH   7   8
HETATM    8  C   UNL     1      25.400  43.170  50.410  1.00  0.00     0.003 C 
HETATM    9  C   UNL     1      25.473  42.551  48.986  1.00  0.00     0.016 C 
HETATM   10  C   UNL     1      24.145  42.916  48.324  1.00  0.00     0.001 C 
HETATM   11  C   UNL     1      23.149  43.072  49.470  1.00  0.00     0.001 C 
HETATM   12  C   UNL     1      23.940  42.768  50.741  1.00  0.00     0.016 C 
BRANCH   8  13
HETATM   13  C   UNL     1      25.643  44.695  50.431  1.00  0.00    -0.048 A 
HETATM   14  C   UNL     1      24.812  45.564  51.162  1.00  0.00     0.008 A 
HETATM   15  C   UNL     1      25.028  46.946  51.168  1.00  0.00     0.001 A 
HETATM   16  C   UNL     1      26.066  47.496  50.425  1.00  0.00     0.000 A 
HETATM   17  C   UNL     1      26.884  46.664  49.670  1.00  0.00     0.001 A 
HETATM   18  C   UNL     1      26.673  45.282  49.671  1.00  0.00     0.008 A 
ENDBRANCH   8  13
ENDBRANCH   7   8
ENDBRANCH   3   7
BRANCH   1  19
HETATM   19  C   UNL     1      28.635  44.773  55.056  1.00  0.00     0.095 A 
HETATM   20  C   UNL     1      28.542  46.039  55.599  1.00  0.00     0.107 A 
HETATM   21  O   UNL     1      29.701  46.343  56.239  1.00  0.00    -0.215 OA
HETATM   22  N   UNL     1      30.569  45.279  56.157  1.00  0.00    -0.131 NA
HETATM   23  C   UNL     1      29.931  44.331  55.455  1.00  0.00     0.087 A 
HETATM   24  C   UNL     1      30.611  43.028  55.260  1.00  0.00     0.075 C 
BRANCH  20  25
HETATM   25  C   UNL     1      27.512  47.105  55.614  1.00  0.00     0.065 C 
HETATM   26  C   UNL     1      27.106  47.512  54.206  1.00  0.00     0.012 C 
ENDBRANCH  20  25
ENDBRANCH   1  19
TORSDOF 5
ENDMDL
MODEL 10
REMARK VINA RESULT:      -8.2      4.479      6.795
REMARK  5 active torsions:
REMARK  status: ('A' for Active; 'I' for Inactive)
REMARK    1  A    between atoms: C_2  and  C_3 
REMARK    2  A    between atoms: C_8  and  N_9 
REMARK       I    between atoms: N_9  and  C_10 
REMARK       I    between atoms: C_10  and  N_11 
REMARK    3  A    between atoms: N_11  and  C_12 
REMARK    4  A    between atoms: C_12  and  C_13 
REMARK    5  A    between atoms: C_13  and  C_14 
ROOT
HETATM    1  N   UNL     1      28.758  40.742  50.316  1.00  0.00    -0.305 N 
HETATM    2  C   UNL     1      27.836  40.890  51.325  1.00  0.00     0.320 C 
HETATM    3  N   UNL     1      28.218  41.879  52.206  1.00  0.00    -0.342 N 
HETATM    4  O   UNL     1      26.789  40.270  51.442  1.00  0.00    -0.247 OA
HETATM    5  H   UNL     1      29.326  41.553  50.122  1.00  0.00     0.171 HD
HETATM    6  H   UNL     1      29.201  42.102  52.256  1.00  0.00     0.164 HD
ENDROOT
BRANCH   3   7
HETATM    7  C   UNL     1      27.423  42.199  53.384  1.00  0.00     0.138 C 
BRANCH   7   8
HETATM    8  C   UNL     1      27.304  43.716  53.695  1.00  0.00     0.003 C 
HETATM    9  C   UNL     1      27.213  44.508  52.362  1.00  0.00     0.016 C 
HETATM   10  C   UNL     1      26.618  45.863  52.741  1.00  0.00     0.001 C 
HETATM   11  C   UNL     1      25.786  45.605  53.994  1.00  0.00     0.001 C 
HETATM   12  C   UNL     1      25.918  44.107  54.269  1.00  0.00     0.016 C 
BRANCH   8  13
HETATM   13  C   UNL     1      28.488  44.148  54.588  1.00  0.00    -0.048 A 
HETATM   14  C   UNL     1      28.484  45.376  55.275  1.00  0.00     0.008 A 
HETATM   15  C   UNL     1      29.564  45.769  56.072  1.00  0.00     0.001 A 
HETATM   16  C   UNL     1      30.685  44.955  56.184  1.00  0.00     0.000 A 
HETATM   17  C   UNL     1      30.728  43.750  55.493  1.00  0.00     0.001 A 
HETATM   18  C   UNL     1      29.645  43.354  54.703  1.00  0.00     0.008 A 
ENDBRANCH   8  13
ENDBRANCH   7   8
ENDBRANCH   3   7
BRANCH   1  19
HETATM   19  C   UNL     1      28.737  39.743  49.352  1.00  0.00     0.095 A 
HETATM   20  C   UNL     1      28.321  39.946  48.051  1.00  0.00     0.107 A 
HETATM   21  O   UNL     1      28.418  38.783  47.357  1.00  0.00    -0.215 OA
HETATM   22  N   UNL     1      28.923  37.797  48.173  1.00  0.00    -0.131 NA
HETATM   23  C   UNL     1      29.124  38.370  49.369  1.00  0.00     0.087 A 
HETATM   24  C   UNL     1      29.732  37.549  50.444  1.00  0.00     0.075 C 
BRANCH  20  25
HETATM   25  C   UNL     1      27.789  41.098  47.285  1.00  0.00     0.065 C 
HETATM   26  C   UNL     1      28.091  40.973  45.800  1.00  0.00     0.012 C 
ENDBRANCH  20  25
ENDBRANCH   1  19
TORSDOF 5
ENDMDL
