MODEL 1
REMARK VINA RESULT:      -8.1      0.000      0.000
REMARK  7 active torsions:
REMARK  status: ('A' for Active; 'I' for Inactive)
REMARK    1  A    between atoms: O_2  and  C_3 
REMARK    2  A    between atoms: C_4  and  O_5 
REMARK    3  A    between atoms: O_5  and  C_6 
REMARK       I    between atoms: C_6  and  N_7 
REMARK    4  A    between atoms: C_14  and  O_15 
REMARK    5  A    between atoms: C_18  and  C_19 
REMARK    6  A    between atoms: C_23  and  N_24 
REMARK    7  A    between atoms: C_31  and  C_32 
ROOT
HETATM    1  C   UNL     1      19.351  48.019  48.638  1.00  0.00     0.105 C 
HETATM    2  C   UNL     1      18.869  49.093  49.611  1.00  0.00     0.067 C 
HETATM    3  C   UNL     1      18.659  48.666  51.054  1.00  0.00     0.020 C 
HETATM    4  N   UNL     1      18.485  48.313  52.252  1.00  0.00    -0.096 N 
HETATM    5  C   UNL     1      18.449  50.326  49.217  1.00  0.00     0.139 C 
HETATM    6  O   UNL     1      18.404  50.689  47.857  1.00  0.00    -0.279 OA
HETATM    7  C   UNL     1      18.609  49.708  46.986  1.00  0.00     0.175 A 
HETATM    8  C   UNL     1      19.024  48.424  47.240  1.00  0.00     0.040 A 
HETATM    9  N   UNL     1      18.445  49.812  45.646  1.00  0.00    -0.256 N 
HETATM   10  H   UNL     1      18.154  50.623  45.109  1.00  0.00     0.191 HD
HETATM   11  N   UNL     1      18.704  48.660  45.000  1.00  0.00    -0.172 NA
HETATM   12  C   UNL     1      19.027  47.784  45.972  1.00  0.00     0.099 A 
ENDROOT
BRANCH   1  13
HETATM   13  C   UNL     1      20.864  47.815  48.722  1.00  0.00    -0.039 A 
HETATM   14  C   UNL     1      21.372  46.509  48.620  1.00  0.00     0.048 A 
HETATM   15  C   UNL     1      22.735  46.263  48.792  1.00  0.00     0.105 A 
HETATM   16  C   UNL     1      23.601  47.313  49.103  1.00  0.00     0.147 A 
HETATM   17  C   UNL     1      23.145  48.635  49.137  1.00  0.00     0.105 A 
HETATM   18  C   UNL     1      21.774  48.868  48.986  1.00  0.00     0.048 A 
BRANCH  15  19
HETATM   19  O   UNL     1      23.218  44.983  48.727  1.00  0.00    -0.353 OA
HETATM   20  C   UNL     1      22.442  44.119  49.557  1.00  0.00     0.210 C 
ENDBRANCH  15  19
BRANCH  16  21
HETATM   21  O   UNL     1      24.949  47.010  49.336  1.00  0.00    -0.256 OA
BRANCH  21  22
HETATM   22  C   UNL     1      25.220  46.679  50.661  1.00  0.00     0.368 C 
HETATM   23  N   UNL     1      25.960  45.510  50.774  1.00  0.00    -0.324 N 
HETATM   24  C   UNL     1      26.664  45.248  52.026  1.00  0.00     0.154 C 
HETATM   25  C   UNL     1      26.445  44.761  49.617  1.00  0.00     0.154 C 
HETATM   26  C   UNL     1      26.863  43.750  52.260  1.00  0.00     0.187 C 
HETATM   27  O   UNL     1      27.465  43.119  51.119  1.00  0.00    -0.388 OA
HETATM   28  C   UNL     1      26.631  43.281  49.963  1.00  0.00     0.187 C 
HETATM   29  O   UNL     1      24.860  47.328  51.641  1.00  0.00    -0.238 OA
ENDBRANCH  21  22
ENDBRANCH  16  21
BRANCH  17  30
HETATM   30  O   UNL     1      24.095  49.604  49.322  1.00  0.00    -0.353 OA
HETATM   31  C   UNL     1      24.673  50.185  48.161  1.00  0.00     0.210 C 
ENDBRANCH  17  30
ENDBRANCH   1  13
BRANCH   5  32
HETATM   32  N   UNL     1      17.983  51.319  50.045  1.00  0.00    -0.282 NA
HETATM   33  H   UNL     1      17.064  51.696  49.833  1.00  0.00     0.126 HD
HETATM   34  H   UNL     1      18.681  52.031  50.241  1.00  0.00     0.126 HD
ENDBRANCH   5  32
BRANCH  12  35
HETATM   35  C   UNL     1      19.342  46.396  45.646  1.00  0.00    -0.005 A 
HETATM   36  C   UNL     1      18.506  45.364  46.098  1.00  0.00     0.015 A 
HETATM   37  C   UNL     1      18.807  44.030  45.811  1.00  0.00     0.020 A 
HETATM   38  C   UNL     1      19.949  43.724  45.076  1.00  0.00     0.011 A 
HETATM   39 BR   UNL     1      20.366  41.920  44.696  1.00  0.00    -0.051 Br
HETATM   40  C   UNL     1      20.795  44.738  44.627  1.00  0.00     0.020 A 
HETATM   41  C   UNL     1      20.492  46.072  44.914  1.00  0.00     0.015 A 
ENDBRANCH  12  35
TORSDOF 7
ENDMDL
MODEL 2
REMARK VINA RESULT:      -8.1      3.051      5.519
REMARK  7 active torsions:
REMARK  status: ('A' for Active; 'I' for Inactive)
REMARK    1  A    between atoms: O_2  and  C_3 
REMARK    2  A    between atoms: C_4  and  O_5 
REMARK    3  A    between atoms: O_5  and  C_6 
REMARK       I    between atoms: C_6  and  N_7 
REMARK    4  A    between atoms: C_14  and  O_15 
REMARK    5  A    between atoms: C_18  and  C_19 
REMARK    6  A    between atoms: C_23  and  N_24 
REMARK    7  A    between atoms: C_31  and  C_32 
ROOT
HETATM    1  C   UNL     1      21.272  45.430  46.404  1.00  0.00     0.105 C 
HETATM    2  C   UNL     1      21.696  44.196  45.608  1.00  0.00     0.067 C 
HETATM    3  C   UNL     1      22.939  44.331  44.744  1.00  0.00     0.020 C 
HETATM    4  N   UNL     1      23.971  44.441  44.027  1.00  0.00    -0.096 N 
HETATM    5  C   UNL     1      20.928  43.079  45.493  1.00  0.00     0.139 C 
HETATM    6  O   UNL     1      19.653  42.997  46.088  1.00  0.00    -0.279 OA
HETATM    7  C   UNL     1      19.176  44.127  46.596  1.00  0.00     0.175 A 
HETATM    8  C   UNL     1      19.830  45.322  46.767  1.00  0.00     0.040 A 
HETATM    9  N   UNL     1      17.914  44.298  47.059  1.00  0.00    -0.256 N 
HETATM   10  H   UNL     1      17.160  43.619  47.095  1.00  0.00     0.191 HD
HETATM   11  N   UNL     1      17.689  45.548  47.503  1.00  0.00    -0.172 NA
HETATM   12  C   UNL     1      18.849  46.202  47.297  1.00  0.00     0.099 A 
ENDROOT
BRANCH   1  13
HETATM   13  C   UNL     1      22.070  45.570  47.699  1.00  0.00    -0.039 A 
HETATM   14  C   UNL     1      22.615  46.825  48.020  1.00  0.00     0.048 A 
HETATM   15  C   UNL     1      23.434  46.977  49.139  1.00  0.00     0.105 A 
HETATM   16  C   UNL     1      23.748  45.872  49.931  1.00  0.00     0.147 A 
HETATM   17  C   UNL     1      23.164  44.624  49.689  1.00  0.00     0.105 A 
HETATM   18  C   UNL     1      22.363  44.477  48.552  1.00  0.00     0.048 A 
BRANCH  15  19
HETATM   19  O   UNL     1      23.992  48.196  49.425  1.00  0.00    -0.353 OA
HETATM   20  C   UNL     1      23.109  49.247  49.033  1.00  0.00     0.210 C 
ENDBRANCH  15  19
BRANCH  16  21
HETATM   21  O   UNL     1      24.630  46.057  51.005  1.00  0.00    -0.256 OA
BRANCH  21  22
HETATM   22  C   UNL     1      25.920  45.601  50.745  1.00  0.00     0.368 C 
HETATM   23  N   UNL     1      26.449  44.875  51.804  1.00  0.00    -0.324 N 
HETATM   24  C   UNL     1      27.588  44.000  51.551  1.00  0.00     0.154 C 
HETATM   25  C   UNL     1      25.694  44.582  53.021  1.00  0.00     0.154 C 
HETATM   26  C   UNL     1      28.438  43.799  52.806  1.00  0.00     0.187 C 
HETATM   27  O   UNL     1      27.632  43.384  53.921  1.00  0.00    -0.388 OA
HETATM   28  C   UNL     1      26.637  44.377  54.211  1.00  0.00     0.187 C 
HETATM   29  O   UNL     1      26.545  45.799  49.705  1.00  0.00    -0.238 OA
ENDBRANCH  21  22
ENDBRANCH  16  21
BRANCH  17  30
HETATM   30  O   UNL     1      23.434  43.636  50.598  1.00  0.00    -0.353 OA
HETATM   31  C   UNL     1      24.135  42.491  50.134  1.00  0.00     0.210 C 
ENDBRANCH  17  30
ENDBRANCH   1  13
BRANCH   5  32
HETATM   32  N   UNL     1      21.248  41.954  44.772  1.00  0.00    -0.282 NA
HETATM   33  H   UNL     1      21.064  41.984  43.773  1.00  0.00     0.126 HD
HETATM   34  H   UNL     1      20.936  41.096  45.218  1.00  0.00     0.126 HD
ENDBRANCH   5  32
BRANCH  12  35
HETATM   35  C   UNL     1      18.973  47.618  47.631  1.00  0.00    -0.005 A 
HETATM   36  C   UNL     1      18.968  48.581  46.612  1.00  0.00     0.015 A 
HETATM   37  C   UNL     1      19.106  49.938  46.916  1.00  0.00     0.020 A 
HETATM   38  C   UNL     1      19.258  50.335  48.242  1.00  0.00     0.011 A 
HETATM   39 BR   UNL     1      19.458  52.168  48.657  1.00  0.00    -0.051 Br
HETATM   40  C   UNL     1      19.274  49.389  49.266  1.00  0.00     0.020 A 
HETATM   41  C   UNL     1      19.134  48.032  48.960  1.00  0.00     0.015 A 
ENDBRANCH  12  35
TORSDOF 7
ENDMDL
MODEL 3
REMARK VINA RESULT:      -8.0      2.925      5.101
REMARK  7 active torsions:
REMARK  status: ('A' for Active; 'I' for Inactive)
REMARK    1  A    between atoms: O_2  and  C_3 
REMARK    2  A    between atoms: C_4  and  O_5 
REMARK    3  A    between atoms: O_5  and  C_6 
REMARK       I    between atoms: C_6  and  N_7 
REMARK    4  A    between atoms: C_14  and  O_15 
REMARK    5  A    between atoms: C_18  and  C_19 
REMARK    6  A    between atoms: C_23  and  N_24 
REMARK    7  A    between atoms: C_31  and  C_32 
ROOT
HETATM    1  C   UNL     1      20.958  45.821  45.945  1.00  0.00     0.105 C 
HETATM    2  C   UNL     1      21.344  44.697  44.986  1.00  0.00     0.067 C 
HETATM    3  C   UNL     1      22.407  45.016  43.947  1.00  0.00     0.020 C 
HETATM    4  N   UNL     1      23.289  45.279  43.086  1.00  0.00    -0.096 N 
HETATM    5  C   UNL     1      20.665  43.521  44.898  1.00  0.00     0.139 C 
HETATM    6  O   UNL     1      19.521  43.271  45.682  1.00  0.00    -0.279 OA
HETATM    7  C   UNL     1      19.042  44.308  46.358  1.00  0.00     0.175 A 
HETATM    8  C   UNL     1      19.612  45.546  46.526  1.00  0.00     0.040 A 
HETATM    9  N   UNL     1      17.867  44.320  47.032  1.00  0.00    -0.256 N 
HETATM   10  H   UNL     1      17.190  43.570  47.130  1.00  0.00     0.191 HD
HETATM   11  N   UNL     1      17.616  45.507  47.615  1.00  0.00    -0.172 NA
HETATM   12  C   UNL     1      18.664  46.285  47.283  1.00  0.00     0.099 A 
ENDROOT
BRANCH   1  13
HETATM   13  C   UNL     1      21.949  45.944  47.102  1.00  0.00    -0.039 A 
HETATM   14  C   UNL     1      22.522  44.771  47.622  1.00  0.00     0.048 A 
HETATM   15  C   UNL     1      23.353  44.824  48.742  1.00  0.00     0.105 A 
HETATM   16  C   UNL     1      23.593  46.043  49.377  1.00  0.00     0.147 A 
HETATM   17  C   UNL     1      23.103  47.240  48.844  1.00  0.00     0.105 A 
HETATM   18  C   UNL     1      22.253  47.174  47.735  1.00  0.00     0.048 A 
BRANCH  15  19
HETATM   19  O   UNL     1      23.879  43.672  49.265  1.00  0.00    -0.353 OA
HETATM   20  C   UNL     1      22.860  42.914  49.916  1.00  0.00     0.210 C 
ENDBRANCH  15  19
BRANCH  16  21
HETATM   21  O   UNL     1      24.377  46.040  50.539  1.00  0.00    -0.256 OA
BRANCH  21  22
HETATM   22  C   UNL     1      25.721  45.765  50.297  1.00  0.00     0.368 C 
HETATM   23  N   UNL     1      26.257  44.885  51.228  1.00  0.00    -0.324 N 
HETATM   24  C   UNL     1      27.495  44.187  50.896  1.00  0.00     0.154 C 
HETATM   25  C   UNL     1      25.465  44.279  52.296  1.00  0.00     0.154 C 
HETATM   26  C   UNL     1      28.283  43.806  52.150  1.00  0.00     0.187 C 
HETATM   27  O   UNL     1      27.459  43.099  53.089  1.00  0.00    -0.388 OA
HETATM   28  C   UNL     1      26.350  43.916  53.492  1.00  0.00     0.187 C 
HETATM   29  O   UNL     1      26.383  46.230  49.372  1.00  0.00    -0.238 OA
ENDBRANCH  21  22
ENDBRANCH  16  21
BRANCH  17  30
HETATM   30  O   UNL     1      23.501  48.394  49.466  1.00  0.00    -0.353 OA
HETATM   31  C   UNL     1      24.474  49.193  48.806  1.00  0.00     0.210 C 
ENDBRANCH  17  30
ENDBRANCH   1  13
BRANCH   5  32
HETATM   32  N   UNL     1      20.952  42.488  44.038  1.00  0.00    -0.282 NA
HETATM   33  H   UNL     1      20.788  42.657  43.050  1.00  0.00     0.126 HD
HETATM   34  H   UNL     1      20.599  41.593  44.363  1.00  0.00     0.126 HD
ENDBRANCH   5  32
BRANCH  12  35
HETATM   35  C   UNL     1      18.722  47.678  47.716  1.00  0.00    -0.005 A 
HETATM   36  C   UNL     1      18.780  48.706  46.764  1.00  0.00     0.015 A 
HETATM   37  C   UNL     1      18.857  50.042  47.165  1.00  0.00     0.020 A 
HETATM   38  C   UNL     1      18.883  50.354  48.522  1.00  0.00     0.011 A 
HETATM   39 BR   UNL     1      19.000  52.160  49.069  1.00  0.00    -0.051 Br
HETATM   40  C   UNL     1      18.835  49.343  49.481  1.00  0.00     0.020 A 
HETATM   41  C   UNL     1      18.757  48.007  49.078  1.00  0.00     0.015 A 
ENDBRANCH  12  35
TORSDOF 7
ENDMDL
MODEL 4
REMARK VINA RESULT:      -7.6      3.357      7.628
REMARK  7 active torsions:
REMARK  status: ('A' for Active; 'I' for Inactive)
REMARK    1  A    between atoms: O_2  and  C_3 
REMARK    2  A    between atoms: C_4  and  O_5 
REMARK    3  A    between atoms: O_5  and  C_6 
REMARK       I    between atoms: C_6  and  N_7 
REMARK    4  A    between atoms: C_14  and  O_15 
REMARK    5  A    between atoms: C_18  and  C_19 
REMARK    6  A    between atoms: C_23  and  N_24 
REMARK    7  A    between atoms: C_31  and  C_32 
ROOT
HETATM    1  C   UNL     1      23.838  47.697  49.829  1.00  0.00     0.105 C 
HETATM    2  C   UNL     1      25.084  46.895  50.200  1.00  0.00     0.067 C 
HETATM    3  C   UNL     1      24.976  45.978  51.408  1.00  0.00     0.020 C 
HETATM    4  N   UNL     1      24.886  45.217  52.409  1.00  0.00    -0.096 N 
HETATM    5  C   UNL     1      26.304  47.103  49.634  1.00  0.00     0.139 C 
HETATM    6  O   UNL     1      26.508  48.109  48.670  1.00  0.00    -0.279 OA
HETATM    7  C   UNL     1      25.499  48.955  48.492  1.00  0.00     0.175 A 
HETATM    8  C   UNL     1      24.227  48.875  49.001  1.00  0.00     0.040 A 
HETATM    9  N   UNL     1      25.554  50.081  47.741  1.00  0.00    -0.256 N 
HETATM   10  H   UNL     1      26.339  50.446  47.211  1.00  0.00     0.191 HD
HETATM   11  N   UNL     1      24.395  50.765  47.746  1.00  0.00    -0.172 NA
HETATM   12  C   UNL     1      23.577  50.054  48.548  1.00  0.00     0.099 A 
ENDROOT
BRANCH   1  13
HETATM   13  C   UNL     1      22.849  46.862  49.015  1.00  0.00    -0.039 A 
HETATM   14  C   UNL     1      23.345  45.792  48.250  1.00  0.00     0.048 A 
HETATM   15  C   UNL     1      22.496  45.066  47.414  1.00  0.00     0.105 A 
HETATM   16  C   UNL     1      21.151  45.421  47.304  1.00  0.00     0.147 A 
HETATM   17  C   UNL     1      20.606  46.429  48.107  1.00  0.00     0.105 A 
HETATM   18  C   UNL     1      21.469  47.166  48.925  1.00  0.00     0.048 A 
BRANCH  15  19
HETATM   19  O   UNL     1      22.993  44.048  46.644  1.00  0.00    -0.353 OA
HETATM   20  C   UNL     1      23.494  43.000  47.473  1.00  0.00     0.210 C 
ENDBRANCH  15  19
BRANCH  16  21
HETATM   21  O   UNL     1      20.350  44.709  46.401  1.00  0.00    -0.256 OA
BRANCH  21  22
HETATM   22  C   UNL     1      20.050  45.426  45.245  1.00  0.00     0.368 C 
HETATM   23  N   UNL     1      18.717  45.305  44.879  1.00  0.00    -0.324 N 
HETATM   24  C   UNL     1      18.153  46.291  43.962  1.00  0.00     0.154 C 
HETATM   25  C   UNL     1      17.741  44.556  45.667  1.00  0.00     0.154 C 
HETATM   26  C   UNL     1      16.981  45.717  43.165  1.00  0.00     0.187 C 
HETATM   27  O   UNL     1      16.006  45.115  44.032  1.00  0.00    -0.388 OA
HETATM   28  C   UNL     1      16.600  44.045  44.782  1.00  0.00     0.187 C 
HETATM   29  O   UNL     1      20.852  46.100  44.602  1.00  0.00    -0.238 OA
ENDBRANCH  21  22
ENDBRANCH  16  21
BRANCH  17  30
HETATM   30  O   UNL     1      19.251  46.615  48.019  1.00  0.00    -0.353 OA
HETATM   31  C   UNL     1      18.687  47.689  48.758  1.00  0.00     0.210 C 
ENDBRANCH  17  30
ENDBRANCH   1  13
BRANCH   5  32
HETATM   32  N   UNL     1      27.461  46.430  49.947  1.00  0.00    -0.282 NA
HETATM   33  H   UNL     1      27.796  45.755  49.265  1.00  0.00     0.126 HD
HETATM   34  H   UNL     1      27.471  46.083  50.902  1.00  0.00     0.126 HD
ENDBRANCH   5  32
BRANCH  12  35
HETATM   35  C   UNL     1      22.221  50.518  48.824  1.00  0.00    -0.005 A 
HETATM   36  C   UNL     1      21.334  50.758  47.765  1.00  0.00     0.015 A 
HETATM   37  C   UNL     1      20.039  51.221  48.014  1.00  0.00     0.020 A 
HETATM   38  C   UNL     1      19.631  51.452  49.325  1.00  0.00     0.011 A 
HETATM   39 BR   UNL     1      17.884  52.091  49.666  1.00  0.00    -0.051 Br
HETATM   40  C   UNL     1      20.504  51.227  50.388  1.00  0.00     0.020 A 
HETATM   41  C   UNL     1      21.798  50.762  50.137  1.00  0.00     0.015 A 
ENDBRANCH  12  35
TORSDOF 7
ENDMDL
MODEL 5
REMARK VINA RESULT:      -7.6      3.545      7.236
REMARK  7 active torsions:
REMARK  status: ('A' for Active; 'I' for Inactive)
REMARK    1  A    between atoms: O_2  and  C_3 
REMARK    2  A    between atoms: C_4  and  O_5 
REMARK    3  A    between atoms: O_5  and  C_6 
REMARK       I    between atoms: C_6  and  N_7 
REMARK    4  A    between atoms: C_14  and  O_15 
REMARK    5  A    between atoms: C_18  and  C_19 
REMARK    6  A    between atoms: C_23  and  N_24 
REMARK    7  A    between atoms: C_31  and  C_32 
ROOT
HETATM    1  C   UNL     1      23.686  47.595  49.661  1.00  0.00     0.105 C 
HETATM    2  C   UNL     1      24.872  46.702  50.023  1.00  0.00     0.067 C 
HETATM    3  C   UNL     1      24.648  45.676  51.121  1.00  0.00     0.020 C 
HETATM    4  N   UNL     1      24.462  44.823  52.032  1.00  0.00    -0.096 N 
HETATM    5  C   UNL     1      26.134  46.908  49.557  1.00  0.00     0.139 C 
HETATM    6  O   UNL     1      26.441  47.995  48.715  1.00  0.00    -0.279 OA
HETATM    7  C   UNL     1      25.481  48.900  48.563  1.00  0.00     0.175 A 
HETATM    8  C   UNL     1      24.176  48.830  48.984  1.00  0.00     0.040 A 
HETATM    9  N   UNL     1      25.631  50.092  47.937  1.00  0.00    -0.256 N 
HETATM   10  H   UNL     1      26.463  50.471  47.496  1.00  0.00     0.191 HD
HETATM   11  N   UNL     1      24.502  50.826  47.941  1.00  0.00    -0.172 NA
HETATM   12  C   UNL     1      23.606  50.077  48.614  1.00  0.00     0.099 A 
ENDROOT
BRANCH   1  13
HETATM   13  C   UNL     1      22.720  46.893  48.707  1.00  0.00    -0.039 A 
HETATM   14  C   UNL     1      23.220  45.881  47.869  1.00  0.00     0.048 A 
HETATM   15  C   UNL     1      22.399  45.282  46.913  1.00  0.00     0.105 A 
HETATM   16  C   UNL     1      21.080  45.711  46.757  1.00  0.00     0.147 A 
HETATM   17  C   UNL     1      20.525  46.659  47.623  1.00  0.00     0.105 A 
HETATM   18  C   UNL     1      21.362  47.269  48.563  1.00  0.00     0.048 A 
BRANCH  15  19
HETATM   19  O   UNL     1      22.903  44.323  46.075  1.00  0.00    -0.353 OA
HETATM   20  C   UNL     1      23.348  43.194  46.827  1.00  0.00     0.210 C 
ENDBRANCH  15  19
BRANCH  16  21
HETATM   21  O   UNL     1      20.312  45.130  45.738  1.00  0.00    -0.256 OA
BRANCH  21  22
HETATM   22  C   UNL     1      19.811  43.875  46.073  1.00  0.00     0.368 C 
HETATM   23  N   UNL     1      19.989  42.946  45.057  1.00  0.00    -0.324 N 
HETATM   24  C   UNL     1      19.901  41.526  45.385  1.00  0.00     0.154 C 
HETATM   25  C   UNL     1      20.684  43.256  43.809  1.00  0.00     0.154 C 
HETATM   26  C   UNL     1      19.470  40.692  44.178  1.00  0.00     0.187 C 
HETATM   27  O   UNL     1      20.293  40.966  43.034  1.00  0.00    -0.388 OA
HETATM   28  C   UNL     1      20.197  42.352  42.673  1.00  0.00     0.187 C 
HETATM   29  O   UNL     1      19.268  43.590  47.138  1.00  0.00    -0.238 OA
ENDBRANCH  21  22
ENDBRANCH  16  21
BRANCH  17  30
HETATM   30  O   UNL     1      19.188  46.916  47.471  1.00  0.00    -0.353 OA
HETATM   31  C   UNL     1      18.558  47.716  48.463  1.00  0.00     0.210 C 
ENDBRANCH  17  30
ENDBRANCH   1  13
BRANCH   5  32
HETATM   32  N   UNL     1      27.239  46.153  49.869  1.00  0.00    -0.282 NA
HETATM   33  H   UNL     1      27.144  45.145  49.780  1.00  0.00     0.126 HD
HETATM   34  H   UNL     1      27.687  46.446  50.733  1.00  0.00     0.126 HD
ENDBRANCH   5  32
BRANCH  12  35
HETATM   35  C   UNL     1      22.254  50.574  48.853  1.00  0.00    -0.005 A 
HETATM   36  C   UNL     1      21.799  50.762  50.166  1.00  0.00     0.015 A 
HETATM   37  C   UNL     1      20.500  51.217  50.409  1.00  0.00     0.020 A 
HETATM   38  C   UNL     1      19.650  51.479  49.338  1.00  0.00     0.011 A 
HETATM   39 BR   UNL     1      17.889  52.084  49.663  1.00  0.00    -0.051 Br
HETATM   40  C   UNL     1      20.085  51.290  48.027  1.00  0.00     0.020 A 
HETATM   41  C   UNL     1      21.385  50.836  47.785  1.00  0.00     0.015 A 
ENDBRANCH  12  35
TORSDOF 7
ENDMDL
MODEL 6
REMARK VINA RESULT:      -7.5      3.455      7.462
REMARK  7 active torsions:
REMARK  status: ('A' for Active; 'I' for Inactive)
REMARK    1  A    between atoms: O_2  and  C_3 
REMARK    2  A    between atoms: C_4  and  O_5 
REMARK    3  A    between atoms: O_5  and  C_6 
REMARK       I    between atoms: C_6  and  N_7 
REMARK    4  A    between atoms: C_14  and  O_15 
REMARK    5  A    between atoms: C_18  and  C_19 
REMARK    6  A    between atoms: C_23  and  N_24 
REMARK    7  A    between atoms: C_31  and  C_32 
ROOT
HETATM    1  C   UNL     1      23.780  47.599  49.724  1.00  0.00     0.105 C 
HETATM    2  C   UNL     1      24.981  46.734  50.103  1.00  0.00     0.067 C 
HETATM    3  C   UNL     1      24.790  45.761  51.254  1.00  0.00     0.020 C 
HETATM    4  N   UNL     1      24.632  44.952  52.209  1.00  0.00    -0.096 N 
HETATM    5  C   UNL     1      26.230  46.926  49.599  1.00  0.00     0.139 C 
HETATM    6  O   UNL     1      26.509  47.973  48.699  1.00  0.00    -0.279 OA
HETATM    7  C   UNL     1      25.539  48.863  48.525  1.00  0.00     0.175 A 
HETATM    8  C   UNL     1      24.244  48.803  48.977  1.00  0.00     0.040 A 
HETATM    9  N   UNL     1      25.664  50.024  47.838  1.00  0.00    -0.256 N 
HETATM   10  H   UNL     1      26.483  50.387  47.360  1.00  0.00     0.191 HD
HETATM   11  N   UNL     1      24.530  50.748  47.832  1.00  0.00    -0.172 NA
HETATM   12  C   UNL     1      23.655  50.027  48.560  1.00  0.00     0.099 A 
ENDROOT
BRANCH   1  13
HETATM   13  C   UNL     1      22.799  46.844  48.828  1.00  0.00    -0.039 A 
HETATM   14  C   UNL     1      21.446  47.227  48.841  1.00  0.00     0.048 A 
HETATM   15  C   UNL     1      20.498  46.503  48.117  1.00  0.00     0.105 A 
HETATM   16  C   UNL     1      20.881  45.368  47.401  1.00  0.00     0.147 A 
HETATM   17  C   UNL     1      22.228  45.002  47.301  1.00  0.00     0.105 A 
HETATM   18  C   UNL     1      23.168  45.720  48.048  1.00  0.00     0.048 A 
BRANCH  15  19
HETATM   19  O   UNL     1      19.176  46.861  48.164  1.00  0.00    -0.353 OA
HETATM   20  C   UNL     1      18.950  47.779  49.233  1.00  0.00     0.210 C 
ENDBRANCH  15  19
BRANCH  16  21
HETATM   21  O   UNL     1      19.885  44.633  46.745  1.00  0.00    -0.256 OA
BRANCH  21  22
HETATM   22  C   UNL     1      19.728  44.986  45.407  1.00  0.00     0.368 C 
HETATM   23  N   UNL     1      19.654  43.879  44.573  1.00  0.00    -0.324 N 
HETATM   24  C   UNL     1      19.092  44.048  43.236  1.00  0.00     0.154 C 
HETATM   25  C   UNL     1      19.676  42.505  45.071  1.00  0.00     0.154 C 
HETATM   26  C   UNL     1      19.643  43.012  42.255  1.00  0.00     0.187 C 
HETATM   27  O   UNL     1      19.504  41.679  42.772  1.00  0.00    -0.388 OA
HETATM   28  C   UNL     1      20.222  41.547  44.008  1.00  0.00     0.187 C 
HETATM   29  O   UNL     1      19.658  46.137  44.982  1.00  0.00    -0.238 OA
ENDBRANCH  21  22
ENDBRANCH  16  21
BRANCH  17  30
HETATM   30  O   UNL     1      22.515  43.952  46.470  1.00  0.00    -0.353 OA
HETATM   31  C   UNL     1      23.237  44.237  45.280  1.00  0.00     0.210 C 
ENDBRANCH  17  30
ENDBRANCH   1  13
BRANCH   5  32
HETATM   32  N   UNL     1      27.349  46.196  49.923  1.00  0.00    -0.282 NA
HETATM   33  H   UNL     1      27.346  45.215  49.660  1.00  0.00     0.126 HD
HETATM   34  H   UNL     1      27.669  46.362  50.872  1.00  0.00     0.126 HD
ENDBRANCH   5  32
BRANCH  12  35
HETATM   35  C   UNL     1      22.304  50.524  48.805  1.00  0.00    -0.005 A 
HETATM   36  C   UNL     1      21.870  50.753  50.119  1.00  0.00     0.015 A 
HETATM   37  C   UNL     1      20.573  51.209  50.368  1.00  0.00     0.020 A 
HETATM   38  C   UNL     1      19.704  51.432  49.303  1.00  0.00     0.011 A 
HETATM   39 BR   UNL     1      17.944  52.038  49.637  1.00  0.00    -0.051 Br
HETATM   40  C   UNL     1      20.118  51.201  47.992  1.00  0.00     0.020 A 
HETATM   41  C   UNL     1      21.416  50.746  47.744  1.00  0.00     0.015 A 
ENDBRANCH  12  35
TORSDOF 7
ENDMDL
MODEL 7
REMARK VINA RESULT:      -7.2      4.293      8.822
REMARK  7 active torsions:
REMARK  status: ('A' for Active; 'I' for Inactive)
REMARK    1  A    between atoms: O_2  and  C_3 
REMARK    2  A    between atoms: C_4  and  O_5 
REMARK    3  A    between atoms: O_5  and  C_6 
REMARK       I    between atoms: C_6  and  N_7 
REMARK    4  A    between atoms: C_14  and  O_15 
REMARK    5  A    between atoms: C_18  and  C_19 
REMARK    6  A    between atoms: C_23  and  N_24 
REMARK    7  A    between atoms: C_31  and  C_32 
ROOT
HETATM    1  C   UNL     1      24.426  40.698  47.651  1.00  0.00     0.105 C 
HETATM    2  C   UNL     1      23.525  40.186  46.529  1.00  0.00     0.067 C 
HETATM    3  C   UNL     1      22.253  39.465  46.945  1.00  0.00     0.020 C 
HETATM    4  N   UNL     1      21.198  38.868  47.289  1.00  0.00    -0.096 N 
HETATM    5  C   UNL     1      23.893  40.177  45.219  1.00  0.00     0.139 C 
HETATM    6  O   UNL     1      25.165  40.621  44.808  1.00  0.00    -0.279 OA
HETATM    7  C   UNL     1      26.037  40.865  45.779  1.00  0.00     0.175 A 
HETATM    8  C   UNL     1      25.810  40.900  47.132  1.00  0.00     0.040 A 
HETATM    9  N   UNL     1      27.351  41.137  45.592  1.00  0.00    -0.256 N 
HETATM   10  H   UNL     1      27.862  41.202  44.717  1.00  0.00     0.191 HD
HETATM   11  N   UNL     1      28.011  41.326  46.750  1.00  0.00    -0.172 NA
HETATM   12  C   UNL     1      27.083  41.148  47.710  1.00  0.00     0.099 A 
ENDROOT
BRANCH   1  13
HETATM   13  C   UNL     1      23.936  42.035  48.206  1.00  0.00    -0.039 A 
HETATM   14  C   UNL     1      23.496  43.016  47.300  1.00  0.00     0.048 A 
HETATM   15  C   UNL     1      23.135  44.286  47.752  1.00  0.00     0.105 A 
HETATM   16  C   UNL     1      23.242  44.603  49.107  1.00  0.00     0.147 A 
HETATM   17  C   UNL     1      23.601  43.631  50.046  1.00  0.00     0.105 A 
HETATM   18  C   UNL     1      23.983  42.368  49.582  1.00  0.00     0.048 A 
BRANCH  15  19
HETATM   19  O   UNL     1      22.743  45.249  46.860  1.00  0.00    -0.353 OA
HETATM   20  C   UNL     1      22.378  44.651  45.616  1.00  0.00     0.210 C 
ENDBRANCH  15  19
BRANCH  16  21
HETATM   21  O   UNL     1      22.935  45.911  49.506  1.00  0.00    -0.256 OA
BRANCH  21  22
HETATM   22  C   UNL     1      23.978  46.811  49.297  1.00  0.00     0.368 C 
HETATM   23  N   UNL     1      23.528  48.051  48.863  1.00  0.00    -0.324 N 
HETATM   24  C   UNL     1      24.419  49.200  48.991  1.00  0.00     0.154 C 
HETATM   25  C   UNL     1      22.111  48.373  48.711  1.00  0.00     0.154 C 
HETATM   26  C   UNL     1      24.108  50.275  47.948  1.00  0.00     0.187 C 
HETATM   27  O   UNL     1      22.715  50.624  47.959  1.00  0.00    -0.388 OA
HETATM   28  C   UNL     1      21.911  49.472  47.663  1.00  0.00     0.187 C 
HETATM   29  O   UNL     1      25.169  46.566  49.470  1.00  0.00    -0.238 OA
ENDBRANCH  21  22
ENDBRANCH  16  21
BRANCH  17  30
HETATM   30  O   UNL     1      23.551  44.006  51.363  1.00  0.00    -0.353 OA
HETATM   31  C   UNL     1      24.778  44.345  51.995  1.00  0.00     0.210 C 
ENDBRANCH  17  30
ENDBRANCH   1  13
BRANCH   5  32
HETATM   32  N   UNL     1      23.134  39.706  44.174  1.00  0.00    -0.282 NA
HETATM   33  H   UNL     1      23.636  39.424  43.336  1.00  0.00     0.126 HD
HETATM   34  H   UNL     1      22.319  40.282  43.986  1.00  0.00     0.126 HD
ENDBRANCH   5  32
BRANCH  12  35
HETATM   35  C   UNL     1      27.447  41.243  49.121  1.00  0.00    -0.005 A 
HETATM   36  C   UNL     1      27.260  42.448  49.813  1.00  0.00     0.015 A 
HETATM   37  C   UNL     1      27.623  42.558  51.158  1.00  0.00     0.020 A 
HETATM   38  C   UNL     1      28.181  41.463  51.813  1.00  0.00     0.011 A 
HETATM   39 BR   UNL     1      28.685  41.611  53.629  1.00  0.00    -0.051 Br
HETATM   40  C   UNL     1      28.381  40.261  51.136  1.00  0.00     0.020 A 
HETATM   41  C   UNL     1      28.017  40.152  49.791  1.00  0.00     0.015 A 
ENDBRANCH  12  35
TORSDOF 7
ENDMDL
MODEL 8
REMARK VINA RESULT:      -7.1      3.333      5.794
REMARK  7 active torsions:
REMARK  status: ('A' for Active; 'I' for Inactive)
REMARK    1  A    between atoms: O_2  and  C_3 
REMARK    2  A    between atoms: C_4  and  O_5 
REMARK    3  A    between atoms: O_5  and  C_6 
REMARK       I    between atoms: C_6  and  N_7 
REMARK    4  A    between atoms: C_14  and  O_15 
REMARK    5  A    between atoms: C_18  and  C_19 
REMARK    6  A    between atoms: C_23  and  N_24 
REMARK    7  A    between atoms: C_31  and  C_32 
ROOT
HETATM    1  C   UNL     1      19.252  49.168  46.856  1.00  0.00     0.105 C 
HETATM    2  C   UNL     1      17.825  49.327  46.331  1.00  0.00     0.067 C 
HETATM    3  C   UNL     1      17.644  49.312  44.822  1.00  0.00     0.020 C 
HETATM    4  N   UNL     1      17.493  49.298  43.571  1.00  0.00    -0.096 N 
HETATM    5  C   UNL     1      16.771  49.664  47.121  1.00  0.00     0.139 C 
HETATM    6  O   UNL     1      16.932  49.921  48.497  1.00  0.00    -0.279 OA
HETATM    7  C   UNL     1      18.185  50.002  48.929  1.00  0.00     0.175 A 
HETATM    8  C   UNL     1      19.338  49.702  48.246  1.00  0.00     0.040 A 
HETATM    9  N   UNL     1      18.554  50.402  50.169  1.00  0.00    -0.256 N 
HETATM   10  H   UNL     1      17.960  50.690  50.940  1.00  0.00     0.191 HD
HETATM   11  N   UNL     1      19.890  50.408  50.336  1.00  0.00    -0.172 NA
HETATM   12  C   UNL     1      20.389  50.014  49.149  1.00  0.00     0.099 A 
ENDROOT
BRANCH   1  13
HETATM   13  C   UNL     1      19.682  47.702  46.892  1.00  0.00    -0.039 A 
HETATM   14  C   UNL     1      18.685  46.711  46.899  1.00  0.00     0.048 A 
HETATM   15  C   UNL     1      19.026  45.364  47.033  1.00  0.00     0.105 A 
HETATM   16  C   UNL     1      20.362  44.994  47.198  1.00  0.00     0.147 A 
HETATM   17  C   UNL     1      21.386  45.944  47.118  1.00  0.00     0.105 A 
HETATM   18  C   UNL     1      21.033  47.293  47.006  1.00  0.00     0.048 A 
BRANCH  15  19
HETATM   19  O   UNL     1      18.047  44.406  47.076  1.00  0.00    -0.353 OA
HETATM   20  C   UNL     1      17.279  44.430  45.874  1.00  0.00     0.210 C 
ENDBRANCH  15  19
BRANCH  16  21
HETATM   21  O   UNL     1      20.652  43.638  47.398  1.00  0.00    -0.256 OA
BRANCH  21  22
HETATM   22  C   UNL     1      21.050  42.981  46.236  1.00  0.00     0.368 C 
HETATM   23  N   UNL     1      22.094  42.094  46.461  1.00  0.00    -0.324 N 
HETATM   24  C   UNL     1      22.350  41.052  45.471  1.00  0.00     0.154 C 
HETATM   25  C   UNL     1      22.656  41.847  47.787  1.00  0.00     0.154 C 
HETATM   26  C   UNL     1      23.814  40.609  45.482  1.00  0.00     0.187 C 
HETATM   27  O   UNL     1      24.243  40.259  46.808  1.00  0.00    -0.388 OA
HETATM   28  C   UNL     1      24.114  41.388  47.686  1.00  0.00     0.187 C 
HETATM   29  O   UNL     1      20.552  43.145  45.125  1.00  0.00    -0.238 OA
ENDBRANCH  21  22
ENDBRANCH  16  21
BRANCH  17  30
HETATM   30  O   UNL     1      22.668  45.465  47.161  1.00  0.00    -0.353 OA
HETATM   31  C   UNL     1      23.290  45.368  48.435  1.00  0.00     0.210 C 
ENDBRANCH  17  30
ENDBRANCH   1  13
BRANCH   5  32
HETATM   32  N   UNL     1      15.475  49.845  46.699  1.00  0.00    -0.282 NA
HETATM   33  H   UNL     1      15.347  50.316  45.808  1.00  0.00     0.126 HD
HETATM   34  H   UNL     1      14.863  50.188  47.434  1.00  0.00     0.126 HD
ENDBRANCH   5  32
BRANCH  12  35
HETATM   35  C   UNL     1      21.832  49.934  48.939  1.00  0.00    -0.005 A 
HETATM   36  C   UNL     1      22.573  48.912  49.549  1.00  0.00     0.015 A 
HETATM   37  C   UNL     1      23.957  48.836  49.373  1.00  0.00     0.020 A 
HETATM   38  C   UNL     1      24.605  49.788  48.591  1.00  0.00     0.011 A 
HETATM   39 BR   UNL     1      26.479  49.696  48.360  1.00  0.00    -0.051 Br
HETATM   40  C   UNL     1      23.884  50.815  47.984  1.00  0.00     0.020 A 
HETATM   41  C   UNL     1      22.499  50.889  48.160  1.00  0.00     0.015 A 
ENDBRANCH  12  35
TORSDOF 7
ENDMDL
MODEL 9
REMARK VINA RESULT:      -7.1      3.049      7.986
REMARK  7 active torsions:
REMARK  status: ('A' for Active; 'I' for Inactive)
REMARK    1  A    between atoms: O_2  and  C_3 
REMARK    2  A    between atoms: C_4  and  O_5 
REMARK    3  A    between atoms: O_5  and  C_6 
REMARK       I    between atoms: C_6  and  N_7 
REMARK    4  A    between atoms: C_14  and  O_15 
REMARK    5  A    between atoms: C_18  and  C_19 
REMARK    6  A    between atoms: C_23  and  N_24 
REMARK    7  A    between atoms: C_31  and  C_32 
ROOT
HETATM    1  C   UNL     1      21.611  47.945  47.559  1.00  0.00     0.105 C 
HETATM    2  C   UNL     1      22.837  48.370  48.366  1.00  0.00     0.067 C 
HETATM    3  C   UNL     1      23.475  49.699  47.996  1.00  0.00     0.020 C 
HETATM    4  N   UNL     1      24.004  50.801  47.690  1.00  0.00    -0.096 N 
HETATM    5  C   UNL     1      23.476  47.550  49.243  1.00  0.00     0.139 C 
HETATM    6  O   UNL     1      23.059  46.220  49.447  1.00  0.00    -0.279 OA
HETATM    7  C   UNL     1      22.139  45.764  48.605  1.00  0.00     0.175 A 
HETATM    8  C   UNL     1      21.423  46.470  47.670  1.00  0.00     0.040 A 
HETATM    9  N   UNL     1      21.730  44.476  48.526  1.00  0.00    -0.256 N 
HETATM   10  H   UNL     1      22.041  43.682  49.077  1.00  0.00     0.191 HD
HETATM   11  N   UNL     1      20.799  44.284  47.572  1.00  0.00    -0.172 NA
HETATM   12  C   UNL     1      20.625  45.497  47.011  1.00  0.00     0.099 A 
ENDROOT
BRANCH   1  13
HETATM   13  C   UNL     1      20.337  48.617  48.069  1.00  0.00    -0.039 A 
HETATM   14  C   UNL     1      19.429  49.136  47.128  1.00  0.00     0.048 A 
HETATM   15  C   UNL     1      18.303  49.846  47.547  1.00  0.00     0.105 A 
HETATM   16  C   UNL     1      18.088  50.077  48.907  1.00  0.00     0.147 A 
HETATM   17  C   UNL     1      18.926  49.511  49.874  1.00  0.00     0.105 A 
HETATM   18  C   UNL     1      20.064  48.821  49.443  1.00  0.00     0.048 A 
BRANCH  15  19
HETATM   19  O   UNL     1      17.443  50.380  46.624  1.00  0.00    -0.353 OA
HETATM   20  C   UNL     1      18.150  51.232  45.724  1.00  0.00     0.210 C 
ENDBRANCH  15  19
BRANCH  16  21
HETATM   21  O   UNL     1      16.982  50.854  49.278  1.00  0.00    -0.256 OA
BRANCH  21  22
HETATM   22  C   UNL     1      17.269  52.214  49.369  1.00  0.00     0.368 C 
HETATM   23  N   UNL     1      16.167  52.962  49.761  1.00  0.00    -0.324 N 
HETATM   24  C   UNL     1      16.387  54.303  50.292  1.00  0.00     0.154 C 
HETATM   25  C   UNL     1      14.878  52.361  50.097  1.00  0.00     0.154 C 
HETATM   26  C   UNL     1      15.174  55.207  50.067  1.00  0.00     0.187 C 
HETATM   27  O   UNL     1      13.969  54.590  50.547  1.00  0.00    -0.388 OA
HETATM   28  C   UNL     1      13.735  53.353  49.859  1.00  0.00     0.187 C 
HETATM   29  O   UNL     1      18.362  52.724  49.137  1.00  0.00    -0.238 OA
ENDBRANCH  21  22
ENDBRANCH  16  21
BRANCH  17  30
HETATM   30  O   UNL     1      18.557  49.688  51.181  1.00  0.00    -0.353 OA
HETATM   31  C   UNL     1      18.551  48.542  52.021  1.00  0.00     0.210 C 
ENDBRANCH  17  30
ENDBRANCH   1  13
BRANCH   5  32
HETATM   32  N   UNL     1      24.595  47.871  49.975  1.00  0.00    -0.282 NA
HETATM   33  H   UNL     1      25.383  48.253  49.460  1.00  0.00     0.126 HD
HETATM   34  H   UNL     1      24.854  47.148  50.639  1.00  0.00     0.126 HD
ENDBRANCH   5  32
BRANCH  12  35
HETATM   35  C   UNL     1      19.699  45.673  45.896  1.00  0.00    -0.005 A 
HETATM   36  C   UNL     1      18.325  45.468  46.087  1.00  0.00     0.015 A 
HETATM   37  C   UNL     1      17.431  45.613  45.024  1.00  0.00     0.020 A 
HETATM   38  C   UNL     1      17.910  45.958  43.763  1.00  0.00     0.011 A 
HETATM   39 BR   UNL     1      16.705  46.143  42.318  1.00  0.00    -0.051 Br
HETATM   40  C   UNL     1      19.274  46.156  43.554  1.00  0.00     0.020 A 
HETATM   41  C   UNL     1      20.168  46.012  44.619  1.00  0.00     0.015 A 
ENDBRANCH  12  35
TORSDOF 7
ENDMDL
MODEL 10
REMARK VINA RESULT:      -7.1      4.987      7.615
REMARK  7 active torsions:
REMARK  status: ('A' for Active; 'I' for Inactive)
REMARK    1  A    between atoms: O_2  and  C_3 
REMARK    2  A    between atoms: C_4  and  O_5 
REMARK    3  A    between atoms: O_5  and  C_6 
REMARK       I    between atoms: C_6  and  N_7 
REMARK    4  A    between atoms: C_14  and  O_15 
REMARK    5  A    between atoms: C_18  and  C_19 
REMARK    6  A    between atoms: C_23  and  N_24 
REMARK    7  A    between atoms: C_31  and  C_32 
ROOT
HETATM    1  C   UNL     1      17.207  51.898  46.409  1.00  0.00     0.105 C 
HETATM    2  C   UNL     1      16.102  52.766  45.809  1.00  0.00     0.067 C 
HETATM    3  C   UNL     1      16.310  53.254  44.385  1.00  0.00     0.020 C 
HETATM    4  N   UNL     1      16.482  53.658  43.203  1.00  0.00    -0.096 N 
HETATM    5  C   UNL     1      15.065  53.265  46.535  1.00  0.00     0.139 C 
HETATM    6  O   UNL     1      14.955  53.033  47.920  1.00  0.00    -0.279 OA
HETATM    7  C   UNL     1      16.009  52.469  48.499  1.00  0.00     0.175 A 
HETATM    8  C   UNL     1      17.120  51.933  47.898  1.00  0.00     0.040 A 
HETATM    9  N   UNL     1      16.170  52.315  49.835  1.00  0.00    -0.256 N 
HETATM   10  H   UNL     1      15.538  52.589  50.581  1.00  0.00     0.191 HD
HETATM   11  N   UNL     1      17.339  51.729  50.153  1.00  0.00    -0.172 NA
HETATM   12  C   UNL     1      17.953  51.519  48.971  1.00  0.00     0.099 A 
ENDROOT
BRANCH   1  13
HETATM   13  C   UNL     1      17.083  50.440  45.969  1.00  0.00    -0.039 A 
HETATM   14  C   UNL     1      15.931  49.723  46.336  1.00  0.00     0.048 A 
HETATM   15  C   UNL     1      15.819  48.363  46.044  1.00  0.00     0.105 A 
HETATM   16  C   UNL     1      16.870  47.695  45.414  1.00  0.00     0.147 A 
HETATM   17  C   UNL     1      17.997  48.390  44.965  1.00  0.00     0.105 A 
HETATM   18  C   UNL     1      18.110  49.747  45.283  1.00  0.00     0.048 A 
BRANCH  15  19
HETATM   19  O   UNL     1      14.709  47.663  46.438  1.00  0.00    -0.353 OA
HETATM   20  C   UNL     1      13.591  48.010  45.621  1.00  0.00     0.210 C 
ENDBRANCH  15  19
BRANCH  16  21
HETATM   21  O   UNL     1      16.742  46.315  45.203  1.00  0.00    -0.256 OA
BRANCH  21  22
HETATM   22  C   UNL     1      17.511  45.550  46.077  1.00  0.00     0.368 C 
HETATM   23  N   UNL     1      18.218  44.550  45.423  1.00  0.00    -0.324 N 
HETATM   24  C   UNL     1      19.356  43.940  46.104  1.00  0.00     0.154 C 
HETATM   25  C   UNL     1      18.193  44.377  43.972  1.00  0.00     0.154 C 
HETATM   26  C   UNL     1      19.609  42.513  45.617  1.00  0.00     0.187 C 
HETATM   27  O   UNL     1      19.701  42.459  44.185  1.00  0.00    -0.388 OA
HETATM   28  C   UNL     1      18.479  42.922  43.590  1.00  0.00     0.187 C 
HETATM   29  O   UNL     1      17.578  45.717  47.293  1.00  0.00    -0.238 OA
ENDBRANCH  21  22
ENDBRANCH  16  21
BRANCH  17  30
HETATM   30  O   UNL     1      18.912  47.668  44.244  1.00  0.00    -0.353 OA
HETATM   31  C   UNL     1      18.919  47.841  42.834  1.00  0.00     0.210 C 
ENDBRANCH  17  30
ENDBRANCH   1  13
BRANCH   5  32
HETATM   32  N   UNL     1      14.060  54.070  46.053  1.00  0.00    -0.282 NA
HETATM   33  H   UNL     1      13.317  53.611  45.534  1.00  0.00     0.126 HD
HETATM   34  H   UNL     1      14.408  54.913  45.606  1.00  0.00     0.126 HD
ENDBRANCH   5  32
BRANCH  12  35
HETATM   35  C   UNL     1      19.284  50.920  48.922  1.00  0.00    -0.005 A 
HETATM   36  C   UNL     1      19.452  49.561  49.220  1.00  0.00     0.015 A 
HETATM   37  C   UNL     1      20.722  48.980  49.197  1.00  0.00     0.020 A 
HETATM   38  C   UNL     1      21.831  49.761  48.880  1.00  0.00     0.011 A 
HETATM   39 BR   UNL     1      23.553  48.983  48.859  1.00  0.00    -0.051 Br
HETATM   40  C   UNL     1      21.681  51.116  48.589  1.00  0.00     0.020 A 
HETATM   41  C   UNL     1      20.409  51.696  48.612  1.00  0.00     0.015 A 
ENDBRANCH  12  35
TORSDOF 7
ENDMDL
