MODEL 1
REMARK VINA RESULT:      -9.1      0.000      0.000
REMARK  7 active torsions:
REMARK  status: ('A' for Active; 'I' for Inactive)
REMARK    1  A    between atoms: O_1  and  C_2 
REMARK    2  A    between atoms: C_2  and  C_3 
REMARK    3  A    between atoms: C_3  and  C_4 
REMARK    4  A    between atoms: C_4  and  N_5 
REMARK    5  A    between atoms: C_4  and  C_21 
REMARK       I    between atoms: N_5  and  C_6 
REMARK       I    between atoms: C_6  and  N_8 
REMARK    6  A    between atoms: N_8  and  C_9 
REMARK    7  A    between atoms: C_12  and  C_15 
ROOT
HETATM    1  N   UNL     1      25.484  45.804  50.616  1.00  0.00    -0.334 N 
HETATM    2  C   UNL     1      26.146  45.972  51.816  1.00  0.00     0.321 C 
HETATM    3  O   UNL     1      25.918  46.901  52.579  1.00  0.00    -0.247 OA
HETATM    4  N   UNL     1      27.008  44.919  52.035  1.00  0.00    -0.309 N 
HETATM    5  H   UNL     1      26.042  45.393  49.883  1.00  0.00     0.165 HD
HETATM    6  H   UNL     1      26.805  44.089  51.500  1.00  0.00     0.170 HD
ENDROOT
BRANCH   1   7
HETATM    7  C   UNL     1      24.451  46.743  50.195  1.00  0.00     0.121 C 
BRANCH   7   8
HETATM    8  C   UNL     1      23.407  46.036  49.319  1.00  0.00     0.056 C 
BRANCH   8   9
HETATM    9  C   UNL     1      23.426  44.526  49.521  1.00  0.00     0.166 C 
BRANCH   9  10
HETATM   10  O   UNL     1      22.887  44.230  50.804  1.00  0.00    -0.401 OA
HETATM   11  H   UNL     1      23.552  43.703  51.279  1.00  0.00     0.209 HD
ENDBRANCH   9  10
ENDBRANCH   8   9
ENDBRANCH   7   8
BRANCH   7  12
HETATM   12  C   UNL     1      25.061  47.937  49.477  1.00  0.00    -0.032 A 
HETATM   13  C   UNL     1      24.235  48.802  48.738  1.00  0.00     0.009 A 
HETATM   14  C   UNL     1      24.770  49.893  48.048  1.00  0.00     0.004 A 
HETATM   15  C   UNL     1      26.139  50.142  48.097  1.00  0.00     0.042 A 
HETATM   16  C   UNL     1      26.959  49.299  48.836  1.00  0.00     0.117 A 
HETATM   17  F   UNL     1      28.276  49.539  48.890  1.00  0.00    -0.206 F 
HETATM   18  C   UNL     1      26.438  48.204  49.522  1.00  0.00     0.051 A 
ENDBRANCH   7  12
ENDBRANCH   1   7
BRANCH   4  19
HETATM   19  C   UNL     1      27.881  44.766  53.129  1.00  0.00     0.036 A 
HETATM   20  C   UNL     1      27.667  45.571  54.251  1.00  0.00     0.030 A 
HETATM   21  C   UNL     1      28.518  45.489  55.362  1.00  0.00     0.014 A 
HETATM   22  C   UNL     1      29.588  44.584  55.386  1.00  0.00    -0.023 A 
HETATM   23  C   UNL     1      29.768  43.753  54.271  1.00  0.00     0.014 A 
HETATM   24  C   UNL     1      28.926  43.845  53.153  1.00  0.00     0.030 A 
BRANCH  22  25
HETATM   25  C   UNL     1      30.477  44.524  56.539  1.00  0.00     0.010 A 
HETATM   26  C   UNL     1      31.538  43.636  56.847  1.00  0.00     0.152 A 
HETATM   27  N   UNL     1      32.113  43.892  58.026  1.00  0.00    -0.187 NA
HETATM   28  N   UNL     1      31.422  44.944  58.487  1.00  0.00    -0.289 N 
HETATM   29  H   UNL     1      31.674  45.328  59.390  1.00  0.00     0.188 HD
HETATM   30  C   UNL     1      30.435  45.359  57.639  1.00  0.00     0.123 A 
ENDBRANCH  22  25
ENDBRANCH   4  19
TORSDOF 7
ENDMDL
MODEL 2
REMARK VINA RESULT:      -9.0      3.347      8.981
REMARK  7 active torsions:
REMARK  status: ('A' for Active; 'I' for Inactive)
REMARK    1  A    between atoms: O_1  and  C_2 
REMARK    2  A    between atoms: C_2  and  C_3 
REMARK    3  A    between atoms: C_3  and  C_4 
REMARK    4  A    between atoms: C_4  and  N_5 
REMARK    5  A    between atoms: C_4  and  C_21 
REMARK       I    between atoms: N_5  and  C_6 
REMARK       I    between atoms: C_6  and  N_8 
REMARK    6  A    between atoms: N_8  and  C_9 
REMARK    7  A    between atoms: C_12  and  C_15 
ROOT
HETATM    1  N   UNL     1      27.460  43.525  53.276  1.00  0.00    -0.334 N 
HETATM    2  C   UNL     1      27.176  44.344  52.202  1.00  0.00     0.321 C 
HETATM    3  O   UNL     1      28.005  44.645  51.354  1.00  0.00    -0.247 OA
HETATM    4  N   UNL     1      25.839  44.683  52.203  1.00  0.00    -0.309 N 
HETATM    5  H   UNL     1      26.954  43.749  54.120  1.00  0.00     0.165 HD
HETATM    6  H   UNL     1      25.249  44.071  52.746  1.00  0.00     0.170 HD
ENDROOT
BRANCH   1   7
HETATM    7  C   UNL     1      28.792  42.959  53.452  1.00  0.00     0.121 C 
BRANCH   7   8
HETATM    8  C   UNL     1      28.714  41.431  53.582  1.00  0.00     0.056 C 
BRANCH   8   9
HETATM    9  C   UNL     1      28.356  40.767  52.258  1.00  0.00     0.166 C 
BRANCH   9  10
HETATM   10  O   UNL     1      26.940  40.752  52.123  1.00  0.00    -0.401 OA
HETATM   11  H   UNL     1      26.568  40.759  53.022  1.00  0.00     0.209 HD
ENDBRANCH   9  10
ENDBRANCH   8   9
ENDBRANCH   7   8
BRANCH   7  12
HETATM   12  C   UNL     1      29.496  43.583  54.647  1.00  0.00    -0.032 A 
HETATM   13  C   UNL     1      29.074  44.834  55.128  1.00  0.00     0.009 A 
HETATM   14  C   UNL     1      29.717  45.444  56.209  1.00  0.00     0.004 A 
HETATM   15  C   UNL     1      30.786  44.804  56.832  1.00  0.00     0.042 A 
HETATM   16  C   UNL     1      31.200  43.561  56.368  1.00  0.00     0.117 A 
HETATM   17  F   UNL     1      32.223  42.941  56.969  1.00  0.00    -0.206 F 
HETATM   18  C   UNL     1      30.571  42.948  55.288  1.00  0.00     0.051 A 
ENDBRANCH   7  12
ENDBRANCH   1   7
BRANCH   4  19
HETATM   19  C   UNL     1      25.192  45.536  51.290  1.00  0.00     0.036 A 
HETATM   20  C   UNL     1      25.553  46.887  51.291  1.00  0.00     0.030 A 
HETATM   21  C   UNL     1      24.925  47.794  50.427  1.00  0.00     0.014 A 
HETATM   22  C   UNL     1      23.940  47.369  49.526  1.00  0.00    -0.023 A 
HETATM   23  C   UNL     1      23.615  46.005  49.506  1.00  0.00     0.014 A 
HETATM   24  C   UNL     1      24.231  45.099  50.381  1.00  0.00     0.030 A 
BRANCH  22  25
HETATM   25  C   UNL     1      23.281  48.328  48.647  1.00  0.00     0.010 A 
HETATM   26  C   UNL     1      23.752  49.533  48.069  1.00  0.00     0.152 A 
HETATM   27  N   UNL     1      22.832  50.155  47.327  1.00  0.00    -0.187 NA
HETATM   28  N   UNL     1      21.760  49.357  47.427  1.00  0.00    -0.289 N 
HETATM   29  H   UNL     1      20.912  49.626  46.941  1.00  0.00     0.188 HD
HETATM   30  C   UNL     1      21.975  48.254  48.203  1.00  0.00     0.123 A 
ENDBRANCH  22  25
ENDBRANCH   4  19
TORSDOF 7
ENDMDL
MODEL 3
REMARK VINA RESULT:      -8.9      3.558      9.284
REMARK  7 active torsions:
REMARK  status: ('A' for Active; 'I' for Inactive)
REMARK    1  A    between atoms: O_1  and  C_2 
REMARK    2  A    between atoms: C_2  and  C_3 
REMARK    3  A    between atoms: C_3  and  C_4 
REMARK    4  A    between atoms: C_4  and  N_5 
REMARK    5  A    between atoms: C_4  and  C_21 
REMARK       I    between atoms: N_5  and  C_6 
REMARK       I    between atoms: C_6  and  N_8 
REMARK    6  A    between atoms: N_8  and  C_9 
REMARK    7  A    between atoms: C_12  and  C_15 
ROOT
HETATM    1  N   UNL     1      27.615  43.786  53.126  1.00  0.00    -0.334 N 
HETATM    2  C   UNL     1      27.102  44.266  51.937  1.00  0.00     0.321 C 
HETATM    3  O   UNL     1      27.784  44.433  50.935  1.00  0.00    -0.247 OA
HETATM    4  N   UNL     1      25.738  44.440  52.043  1.00  0.00    -0.309 N 
HETATM    5  H   UNL     1      27.174  44.158  53.953  1.00  0.00     0.165 HD
HETATM    6  H   UNL     1      25.304  43.923  52.793  1.00  0.00     0.170 HD
ENDROOT
BRANCH   1   7
HETATM    7  C   UNL     1      29.026  43.439  53.245  1.00  0.00     0.121 C 
BRANCH   7   8
HETATM    8  C   UNL     1      29.223  41.925  53.078  1.00  0.00     0.056 C 
BRANCH   8   9
HETATM    9  C   UNL     1      28.021  41.138  53.585  1.00  0.00     0.166 C 
BRANCH   9  10
HETATM   10  O   UNL     1      27.210  40.777  52.474  1.00  0.00    -0.401 OA
HETATM   11  H   UNL     1      27.766  40.850  51.679  1.00  0.00     0.209 HD
ENDBRANCH   9  10
ENDBRANCH   8   9
ENDBRANCH   7   8
BRANCH   7  12
HETATM   12  C   UNL     1      29.599  43.931  54.564  1.00  0.00    -0.032 A 
HETATM   13  C   UNL     1      29.068  45.085  55.167  1.00  0.00     0.009 A 
HETATM   14  C   UNL     1      29.589  45.576  56.367  1.00  0.00     0.004 A 
HETATM   15  C   UNL     1      30.643  44.911  56.989  1.00  0.00     0.042 A 
HETATM   16  C   UNL     1      31.164  43.763  56.405  1.00  0.00     0.117 A 
HETATM   17  F   UNL     1      32.173  43.118  57.004  1.00  0.00    -0.206 F 
HETATM   18  C   UNL     1      30.656  43.269  55.206  1.00  0.00     0.051 A 
ENDBRANCH   7  12
ENDBRANCH   1   7
BRANCH   4  19
HETATM   19  C   UNL     1      24.881  44.953  51.051  1.00  0.00     0.036 A 
HETATM   20  C   UNL     1      24.027  44.057  50.402  1.00  0.00     0.030 A 
HETATM   21  C   UNL     1      23.169  44.499  49.384  1.00  0.00     0.014 A 
HETATM   22  C   UNL     1      23.130  45.849  49.009  1.00  0.00    -0.023 A 
HETATM   23  C   UNL     1      23.962  46.744  49.696  1.00  0.00     0.014 A 
HETATM   24  C   UNL     1      24.831  46.301  50.704  1.00  0.00     0.030 A 
BRANCH  22  25
HETATM   25  C   UNL     1      22.249  46.291  47.936  1.00  0.00     0.010 A 
HETATM   26  C   UNL     1      22.022  45.757  46.642  1.00  0.00     0.152 A 
HETATM   27  N   UNL     1      21.142  46.465  45.928  1.00  0.00    -0.187 NA
HETATM   28  N   UNL     1      20.800  47.462  46.756  1.00  0.00    -0.289 N 
HETATM   29  H   UNL     1      20.130  48.150  46.430  1.00  0.00     0.188 HD
HETATM   30  C   UNL     1      21.432  47.404  47.965  1.00  0.00     0.123 A 
ENDBRANCH  22  25
ENDBRANCH   4  19
TORSDOF 7
ENDMDL
MODEL 4
REMARK VINA RESULT:      -8.7      4.035      5.819
REMARK  7 active torsions:
REMARK  status: ('A' for Active; 'I' for Inactive)
REMARK    1  A    between atoms: O_1  and  C_2 
REMARK    2  A    between atoms: C_2  and  C_3 
REMARK    3  A    between atoms: C_3  and  C_4 
REMARK    4  A    between atoms: C_4  and  N_5 
REMARK    5  A    between atoms: C_4  and  C_21 
REMARK       I    between atoms: N_5  and  C_6 
REMARK       I    between atoms: C_6  and  N_8 
REMARK    6  A    between atoms: N_8  and  C_9 
REMARK    7  A    between atoms: C_12  and  C_15 
ROOT
HETATM    1  N   UNL     1      23.199  48.582  49.513  1.00  0.00    -0.334 N 
HETATM    2  C   UNL     1      23.740  47.312  49.490  1.00  0.00     0.321 C 
HETATM    3  O   UNL     1      23.441  46.474  48.650  1.00  0.00    -0.247 OA
HETATM    4  N   UNL     1      24.692  47.183  50.480  1.00  0.00    -0.309 N 
HETATM    5  H   UNL     1      23.084  48.973  50.436  1.00  0.00     0.165 HD
HETATM    6  H   UNL     1      25.059  48.055  50.828  1.00  0.00     0.170 HD
ENDROOT
BRANCH   1   7
HETATM    7  C   UNL     1      22.228  48.998  48.508  1.00  0.00     0.121 C 
BRANCH   7   8
HETATM    8  C   UNL     1      22.781  50.164  47.676  1.00  0.00     0.056 C 
BRANCH   8   9
HETATM    9  C   UNL     1      24.150  50.615  48.172  1.00  0.00     0.166 C 
BRANCH   9  10
HETATM   10  O   UNL     1      25.143  50.130  47.277  1.00  0.00    -0.401 OA
HETATM   11  H   UNL     1      25.111  50.692  46.484  1.00  0.00     0.209 HD
ENDBRANCH   9  10
ENDBRANCH   8   9
ENDBRANCH   7   8
BRANCH   7  12
HETATM   12  C   UNL     1      20.898  49.358  49.152  1.00  0.00    -0.032 A 
HETATM   13  C   UNL     1      19.986  48.340  49.481  1.00  0.00     0.009 A 
HETATM   14  C   UNL     1      18.746  48.641  50.051  1.00  0.00     0.004 A 
HETATM   15  C   UNL     1      18.405  49.966  50.312  1.00  0.00     0.042 A 
HETATM   16  C   UNL     1      19.307  50.976  50.001  1.00  0.00     0.117 A 
HETATM   17  F   UNL     1      18.985  52.250  50.255  1.00  0.00    -0.206 F 
HETATM   18  C   UNL     1      20.543  50.688  49.426  1.00  0.00     0.051 A 
ENDBRANCH   7  12
ENDBRANCH   1   7
BRANCH   4  19
HETATM   19  C   UNL     1      25.424  46.021  50.789  1.00  0.00     0.036 A 
HETATM   20  C   UNL     1      24.929  45.189  51.797  1.00  0.00     0.030 A 
HETATM   21  C   UNL     1      25.626  44.032  52.173  1.00  0.00     0.014 A 
HETATM   22  C   UNL     1      26.820  43.669  51.536  1.00  0.00    -0.023 A 
HETATM   23  C   UNL     1      27.285  44.491  50.499  1.00  0.00     0.014 A 
HETATM   24  C   UNL     1      26.596  45.656  50.132  1.00  0.00     0.030 A 
BRANCH  22  25
HETATM   25  C   UNL     1      27.545  42.475  51.952  1.00  0.00     0.010 A 
HETATM   26  C   UNL     1      27.992  42.059  53.231  1.00  0.00     0.152 A 
HETATM   27  N   UNL     1      28.650  40.896  53.206  1.00  0.00    -0.187 NA
HETATM   28  N   UNL     1      28.635  40.559  51.909  1.00  0.00    -0.289 N 
HETATM   29  H   UNL     1      29.087  39.695  51.631  1.00  0.00     0.188 HD
HETATM   30  C   UNL     1      27.989  41.467  51.119  1.00  0.00     0.123 A 
ENDBRANCH  22  25
ENDBRANCH   4  19
TORSDOF 7
ENDMDL
MODEL 5
REMARK VINA RESULT:      -8.7      3.506      9.262
REMARK  7 active torsions:
REMARK  status: ('A' for Active; 'I' for Inactive)
REMARK    1  A    between atoms: O_1  and  C_2 
REMARK    2  A    between atoms: C_2  and  C_3 
REMARK    3  A    between atoms: C_3  and  C_4 
REMARK    4  A    between atoms: C_4  and  N_5 
REMARK    5  A    between atoms: C_4  and  C_21 
REMARK       I    between atoms: N_5  and  C_6 
REMARK       I    between atoms: C_6  and  N_8 
REMARK    6  A    between atoms: N_8  and  C_9 
REMARK    7  A    between atoms: C_12  and  C_15 
ROOT
HETATM    1  N   UNL     1      27.441  45.497  53.583  1.00  0.00    -0.334 N 
HETATM    2  C   UNL     1      26.155  45.454  53.082  1.00  0.00     0.321 C 
HETATM    3  O   UNL     1      25.174  45.789  53.731  1.00  0.00    -0.247 OA
HETATM    4  N   UNL     1      26.174  45.066  51.759  1.00  0.00    -0.309 N 
HETATM    5  H   UNL     1      28.051  44.774  53.235  1.00  0.00     0.165 HD
HETATM    6  H   UNL     1      27.063  45.182  51.297  1.00  0.00     0.170 HD
ENDROOT
BRANCH   1   7
HETATM    7  C   UNL     1      27.698  45.963  54.941  1.00  0.00     0.121 C 
BRANCH   7   8
HETATM    8  C   UNL     1      27.846  47.491  54.966  1.00  0.00     0.056 C 
BRANCH   8   9
HETATM    9  C   UNL     1      26.700  48.159  55.715  1.00  0.00     0.166 C 
BRANCH   9  10
HETATM   10  O   UNL     1      25.678  48.491  54.782  1.00  0.00    -0.401 OA
HETATM   11  H   UNL     1      24.889  47.977  55.029  1.00  0.00     0.209 HD
ENDBRANCH   9  10
ENDBRANCH   8   9
ENDBRANCH   7   8
BRANCH   7  12
HETATM   12  C   UNL     1      28.920  45.276  55.530  1.00  0.00    -0.032 A 
HETATM   13  C   UNL     1      29.463  44.149  54.888  1.00  0.00     0.009 A 
HETATM   14  C   UNL     1      30.571  43.483  55.418  1.00  0.00     0.004 A 
HETATM   15  C   UNL     1      31.159  43.940  56.594  1.00  0.00     0.042 A 
HETATM   16  C   UNL     1      30.634  45.061  57.227  1.00  0.00     0.117 A 
HETATM   17  F   UNL     1      31.202  45.507  58.355  1.00  0.00    -0.206 F 
HETATM   18  C   UNL     1      29.527  45.729  56.711  1.00  0.00     0.051 A 
ENDBRANCH   7  12
ENDBRANCH   1   7
BRANCH   4  19
HETATM   19  C   UNL     1      25.054  44.868  50.929  1.00  0.00     0.036 A 
HETATM   20  C   UNL     1      24.659  45.925  50.104  1.00  0.00     0.030 A 
HETATM   21  C   UNL     1      23.534  45.803  49.277  1.00  0.00     0.014 A 
HETATM   22  C   UNL     1      22.793  44.615  49.237  1.00  0.00    -0.023 A 
HETATM   23  C   UNL     1      23.223  43.548  50.039  1.00  0.00     0.014 A 
HETATM   24  C   UNL     1      24.339  43.674  50.879  1.00  0.00     0.030 A 
BRANCH  22  25
HETATM   25  C   UNL     1      21.614  44.509  48.387  1.00  0.00     0.010 A 
HETATM   26  C   UNL     1      21.393  43.778  47.192  1.00  0.00     0.152 A 
HETATM   27  N   UNL     1      20.169  43.955  46.686  1.00  0.00    -0.187 NA
HETATM   28  N   UNL     1      19.595  44.804  47.550  1.00  0.00    -0.289 N 
HETATM   29  H   UNL     1      18.641  45.099  47.373  1.00  0.00     0.188 HD
HETATM   30  C   UNL     1      20.414  45.166  48.581  1.00  0.00     0.123 A 
ENDBRANCH  22  25
ENDBRANCH   4  19
TORSDOF 7
ENDMDL
MODEL 6
REMARK VINA RESULT:      -8.7      4.555      8.622
REMARK  7 active torsions:
REMARK  status: ('A' for Active; 'I' for Inactive)
REMARK    1  A    between atoms: O_1  and  C_2 
REMARK    2  A    between atoms: C_2  and  C_3 
REMARK    3  A    between atoms: C_3  and  C_4 
REMARK    4  A    between atoms: C_4  and  N_5 
REMARK    5  A    between atoms: C_4  and  C_21 
REMARK       I    between atoms: N_5  and  C_6 
REMARK       I    between atoms: C_6  and  N_8 
REMARK    6  A    between atoms: N_8  and  C_9 
REMARK    7  A    between atoms: C_12  and  C_15 
ROOT
HETATM    1  N   UNL     1      28.469  45.091  53.958  1.00  0.00    -0.334 N 
HETATM    2  C   UNL     1      27.795  43.968  53.521  1.00  0.00     0.321 C 
HETATM    3  O   UNL     1      26.936  43.405  54.185  1.00  0.00    -0.247 OA
HETATM    4  N   UNL     1      28.180  43.653  52.234  1.00  0.00    -0.309 N 
HETATM    5  H   UNL     1      29.425  45.156  53.642  1.00  0.00     0.165 HD
HETATM    6  H   UNL     1      28.609  44.410  51.725  1.00  0.00     0.170 HD
ENDROOT
BRANCH   1   7
HETATM    7  C   UNL     1      28.177  45.679  55.260  1.00  0.00     0.121 C 
BRANCH   7   8
HETATM    8  C   UNL     1      27.984  47.197  55.133  1.00  0.00     0.056 C 
BRANCH   8   9
HETATM    9  C   UNL     1      26.612  47.549  54.571  1.00  0.00     0.166 C 
BRANCH   9  10
HETATM   10  O   UNL     1      25.773  46.404  54.665  1.00  0.00    -0.401 OA
HETATM   11  H   UNL     1      25.996  45.824  53.916  1.00  0.00     0.209 HD
ENDBRANCH   9  10
ENDBRANCH   8   9
ENDBRANCH   7   8
BRANCH   7  12
HETATM   12  C   UNL     1      29.263  45.339  56.267  1.00  0.00    -0.032 A 
HETATM   13  C   UNL     1      29.300  46.008  57.504  1.00  0.00     0.009 A 
HETATM   14  C   UNL     1      30.301  45.735  58.440  1.00  0.00     0.004 A 
HETATM   15  C   UNL     1      31.273  44.779  58.158  1.00  0.00     0.042 A 
HETATM   16  C   UNL     1      31.235  44.105  56.944  1.00  0.00     0.117 A 
HETATM   17  F   UNL     1      32.165  43.181  56.672  1.00  0.00    -0.206 F 
HETATM   18  C   UNL     1      30.246  44.374  56.000  1.00  0.00     0.051 A 
ENDBRANCH   7  12
ENDBRANCH   1   7
BRANCH   4  19
HETATM   19  C   UNL     1      27.741  42.551  51.476  1.00  0.00     0.036 A 
HETATM   20  C   UNL     1      28.445  41.350  51.604  1.00  0.00     0.030 A 
HETATM   21  C   UNL     1      28.076  40.224  50.855  1.00  0.00     0.014 A 
HETATM   22  C   UNL     1      26.983  40.265  49.979  1.00  0.00    -0.023 A 
HETATM   23  C   UNL     1      26.261  41.464  49.890  1.00  0.00     0.014 A 
HETATM   24  C   UNL     1      26.638  42.596  50.627  1.00  0.00     0.030 A 
BRANCH  22  25
HETATM   25  C   UNL     1      26.625  39.093  49.191  1.00  0.00     0.010 A 
HETATM   26  C   UNL     1      26.870  37.714  49.414  1.00  0.00     0.152 A 
HETATM   27  N   UNL     1      26.396  36.932  48.440  1.00  0.00    -0.187 NA
HETATM   28  N   UNL     1      25.847  37.803  47.581  1.00  0.00    -0.289 N 
HETATM   29  H   UNL     1      25.416  37.441  46.738  1.00  0.00     0.188 HD
HETATM   30  C   UNL     1      25.957  39.103  47.982  1.00  0.00     0.123 A 
ENDBRANCH  22  25
ENDBRANCH   4  19
TORSDOF 7
ENDMDL
MODEL 7
REMARK VINA RESULT:      -8.6      2.724      3.912
REMARK  7 active torsions:
REMARK  status: ('A' for Active; 'I' for Inactive)
REMARK    1  A    between atoms: O_1  and  C_2 
REMARK    2  A    between atoms: C_2  and  C_3 
REMARK    3  A    between atoms: C_3  and  C_4 
REMARK    4  A    between atoms: C_4  and  N_5 
REMARK    5  A    between atoms: C_4  and  C_21 
REMARK       I    between atoms: N_5  and  C_6 
REMARK       I    between atoms: C_6  and  N_8 
REMARK    6  A    between atoms: N_8  and  C_9 
REMARK    7  A    between atoms: C_12  and  C_15 
ROOT
HETATM    1  N   UNL     1      24.316  47.524  50.749  1.00  0.00    -0.334 N 
HETATM    2  C   UNL     1      25.491  46.994  51.244  1.00  0.00     0.321 C 
HETATM    3  O   UNL     1      26.424  46.656  50.528  1.00  0.00    -0.247 OA
HETATM    4  N   UNL     1      25.466  46.987  52.623  1.00  0.00    -0.309 N 
HETATM    5  H   UNL     1      23.492  47.285  51.280  1.00  0.00     0.165 HD
HETATM    6  H   UNL     1      24.797  47.619  53.036  1.00  0.00     0.170 HD
ENDROOT
BRANCH   1   7
HETATM    7  C   UNL     1      24.129  47.719  49.317  1.00  0.00     0.121 C 
BRANCH   7   8
HETATM    8  C   UNL     1      24.282  49.202  48.951  1.00  0.00     0.056 C 
BRANCH   8   9
HETATM    9  C   UNL     1      25.721  49.551  48.591  1.00  0.00     0.166 C 
BRANCH   9  10
HETATM   10  O   UNL     1      25.729  50.219  47.335  1.00  0.00    -0.401 OA
HETATM   11  H   UNL     1      24.865  50.656  47.240  1.00  0.00     0.209 HD
ENDBRANCH   9  10
ENDBRANCH   8   9
ENDBRANCH   7   8
BRANCH   7  12
HETATM   12  C   UNL     1      22.784  47.171  48.863  1.00  0.00    -0.032 A 
HETATM   13  C   UNL     1      21.671  48.027  48.796  1.00  0.00     0.009 A 
HETATM   14  C   UNL     1      20.417  47.548  48.407  1.00  0.00     0.004 A 
HETATM   15  C   UNL     1      20.262  46.206  48.067  1.00  0.00     0.042 A 
HETATM   16  C   UNL     1      21.361  45.359  48.119  1.00  0.00     0.117 A 
HETATM   17  F   UNL     1      21.216  44.069  47.787  1.00  0.00    -0.206 F 
HETATM   18  C   UNL     1      22.613  45.824  48.512  1.00  0.00     0.051 A 
ENDBRANCH   7  12
ENDBRANCH   1   7
BRANCH   4  19
HETATM   19  C   UNL     1      26.467  46.482  53.475  1.00  0.00     0.036 A 
HETATM   20  C   UNL     1      27.136  47.388  54.303  1.00  0.00     0.030 A 
HETATM   21  C   UNL     1      28.162  46.955  55.152  1.00  0.00     0.014 A 
HETATM   22  C   UNL     1      28.528  45.603  55.211  1.00  0.00    -0.023 A 
HETATM   23  C   UNL     1      27.823  44.698  54.405  1.00  0.00     0.014 A 
HETATM   24  C   UNL     1      26.806  45.133  53.544  1.00  0.00     0.030 A 
BRANCH  22  25
HETATM   25  C   UNL     1      29.612  45.169  56.084  1.00  0.00     0.010 A 
HETATM   26  C   UNL     1      30.018  45.634  57.361  1.00  0.00     0.152 A 
HETATM   27  N   UNL     1      31.085  44.989  57.840  1.00  0.00    -0.187 NA
HETATM   28  N   UNL     1      31.376  44.108  56.873  1.00  0.00    -0.289 N 
HETATM   29  H   UNL     1      32.170  43.492  57.006  1.00  0.00     0.188 HD
HETATM   30  C   UNL     1      30.529  44.176  55.805  1.00  0.00     0.123 A 
ENDBRANCH  22  25
ENDBRANCH   4  19
TORSDOF 7
ENDMDL
MODEL 8
REMARK VINA RESULT:      -8.6      5.856      7.638
REMARK  7 active torsions:
REMARK  status: ('A' for Active; 'I' for Inactive)
REMARK    1  A    between atoms: O_1  and  C_2 
REMARK    2  A    between atoms: C_2  and  C_3 
REMARK    3  A    between atoms: C_3  and  C_4 
REMARK    4  A    between atoms: C_4  and  N_5 
REMARK    5  A    between atoms: C_4  and  C_21 
REMARK       I    between atoms: N_5  and  C_6 
REMARK       I    between atoms: C_6  and  N_8 
REMARK    6  A    between atoms: N_8  and  C_9 
REMARK    7  A    between atoms: C_12  and  C_15 
ROOT
HETATM    1  N   UNL     1      28.865  40.047  50.279  1.00  0.00    -0.334 N 
HETATM    2  C   UNL     1      28.087  40.946  50.980  1.00  0.00     0.321 C 
HETATM    3  O   UNL     1      26.868  40.863  51.047  1.00  0.00    -0.247 OA
HETATM    4  N   UNL     1      28.887  41.862  51.629  1.00  0.00    -0.309 N 
HETATM    5  H   UNL     1      29.691  40.446  49.859  1.00  0.00     0.165 HD
HETATM    6  H   UNL     1      29.844  41.571  51.758  1.00  0.00     0.170 HD
ENDROOT
BRANCH   1   7
HETATM    7  C   UNL     1      28.258  38.924  49.574  1.00  0.00     0.121 C 
BRANCH   7   8
HETATM    8  C   UNL     1      29.013  37.623  49.885  1.00  0.00     0.056 C 
BRANCH   8   9
HETATM    9  C   UNL     1      30.256  37.877  50.729  1.00  0.00     0.166 C 
BRANCH   9  10
HETATM   10  O   UNL     1      31.318  38.271  49.869  1.00  0.00    -0.401 OA
HETATM   11  H   UNL     1      31.121  37.910  48.988  1.00  0.00     0.209 HD
ENDBRANCH   9  10
ENDBRANCH   8   9
ENDBRANCH   7   8
BRANCH   7  12
HETATM   12  C   UNL     1      28.200  39.187  48.078  1.00  0.00    -0.032 A 
HETATM   13  C   UNL     1      28.228  40.510  47.602  1.00  0.00     0.009 A 
HETATM   14  C   UNL     1      28.151  40.784  46.234  1.00  0.00     0.004 A 
HETATM   15  C   UNL     1      28.056  39.738  45.320  1.00  0.00     0.042 A 
HETATM   16  C   UNL     1      28.040  38.428  45.783  1.00  0.00     0.117 A 
HETATM   17  F   UNL     1      27.954  37.420  44.906  1.00  0.00    -0.206 F 
HETATM   18  C   UNL     1      28.109  38.143  47.144  1.00  0.00     0.051 A 
ENDBRANCH   7  12
ENDBRANCH   1   7
BRANCH   4  19
HETATM   19  C   UNL     1      28.450  42.953  52.405  1.00  0.00     0.036 A 
HETATM   20  C   UNL     1      27.611  43.891  51.796  1.00  0.00     0.030 A 
HETATM   21  C   UNL     1      27.165  45.015  52.504  1.00  0.00     0.014 A 
HETATM   22  C   UNL     1      27.527  45.215  53.843  1.00  0.00    -0.023 A 
HETATM   23  C   UNL     1      28.336  44.246  54.455  1.00  0.00     0.014 A 
HETATM   24  C   UNL     1      28.795  43.129  53.743  1.00  0.00     0.030 A 
BRANCH  22  25
HETATM   25  C   UNL     1      27.073  46.399  54.561  1.00  0.00     0.010 A 
HETATM   26  C   UNL     1      25.977  47.267  54.321  1.00  0.00     0.152 A 
HETATM   27  N   UNL     1      25.899  48.270  55.200  1.00  0.00    -0.187 NA
HETATM   28  N   UNL     1      26.947  48.058  56.009  1.00  0.00    -0.289 N 
HETATM   29  H   UNL     1      27.105  48.707  56.771  1.00  0.00     0.188 HD
HETATM   30  C   UNL     1      27.679  46.956  55.670  1.00  0.00     0.123 A 
ENDBRANCH  22  25
ENDBRANCH   4  19
TORSDOF 7
ENDMDL
MODEL 9
REMARK VINA RESULT:      -8.3      6.250      9.317
REMARK  7 active torsions:
REMARK  status: ('A' for Active; 'I' for Inactive)
REMARK    1  A    between atoms: O_1  and  C_2 
REMARK    2  A    between atoms: C_2  and  C_3 
REMARK    3  A    between atoms: C_3  and  C_4 
REMARK    4  A    between atoms: C_4  and  N_5 
REMARK    5  A    between atoms: C_4  and  C_21 
REMARK       I    between atoms: N_5  and  C_6 
REMARK       I    between atoms: C_6  and  N_8 
REMARK    6  A    between atoms: N_8  and  C_9 
REMARK    7  A    between atoms: C_12  and  C_15 
ROOT
HETATM    1  N   UNL     1      28.495  42.681  52.146  1.00  0.00    -0.334 N 
HETATM    2  C   UNL     1      27.962  41.586  51.496  1.00  0.00     0.321 C 
HETATM    3  O   UNL     1      26.863  41.120  51.763  1.00  0.00    -0.247 OA
HETATM    4  N   UNL     1      28.806  41.176  50.485  1.00  0.00    -0.309 N 
HETATM    5  H   UNL     1      29.498  42.663  52.246  1.00  0.00     0.165 HD
HETATM    6  H   UNL     1      29.467  41.874  50.178  1.00  0.00     0.170 HD
ENDROOT
BRANCH   1   7
HETATM    7  C   UNL     1      27.751  43.357  53.202  1.00  0.00     0.121 C 
BRANCH   7   8
HETATM    8  C   UNL     1      26.855  44.455  52.611  1.00  0.00     0.056 C 
BRANCH   8   9
HETATM    9  C   UNL     1      25.395  44.270  53.009  1.00  0.00     0.166 C 
BRANCH   9  10
HETATM   10  O   UNL     1      24.841  43.215  52.234  1.00  0.00    -0.401 OA
HETATM   11  H   UNL     1      25.076  42.381  52.678  1.00  0.00     0.209 HD
ENDBRANCH   9  10
ENDBRANCH   8   9
ENDBRANCH   7   8
BRANCH   7  12
HETATM   12  C   UNL     1      28.692  43.916  54.258  1.00  0.00    -0.032 A 
HETATM   13  C   UNL     1      28.496  45.221  54.744  1.00  0.00     0.009 A 
HETATM   14  C   UNL     1      29.358  45.771  55.696  1.00  0.00     0.004 A 
HETATM   15  C   UNL     1      30.423  45.019  56.186  1.00  0.00     0.042 A 
HETATM   16  C   UNL     1      30.614  43.725  55.719  1.00  0.00     0.117 A 
HETATM   17  F   UNL     1      31.634  42.996  56.192  1.00  0.00    -0.206 F 
HETATM   18  C   UNL     1      29.765  43.169  54.765  1.00  0.00     0.051 A 
ENDBRANCH   7  12
ENDBRANCH   1   7
BRANCH   4  19
HETATM   19  C   UNL     1      28.619  40.068  49.637  1.00  0.00     0.036 A 
HETATM   20  C   UNL     1      28.130  40.308  48.350  1.00  0.00     0.030 A 
HETATM   21  C   UNL     1      27.894  39.245  47.467  1.00  0.00     0.014 A 
HETATM   22  C   UNL     1      28.163  37.922  47.841  1.00  0.00    -0.023 A 
HETATM   23  C   UNL     1      28.692  37.698  49.121  1.00  0.00     0.014 A 
HETATM   24  C   UNL     1      28.914  38.759  50.010  1.00  0.00     0.030 A 
BRANCH  22  25
HETATM   25  C   UNL     1      27.893  36.825  46.920  1.00  0.00     0.010 A 
HETATM   26  C   UNL     1      28.657  36.309  45.843  1.00  0.00     0.152 A 
HETATM   27  N   UNL     1      28.056  35.296  45.210  1.00  0.00    -0.187 NA
HETATM   28  N   UNL     1      26.900  35.157  45.874  1.00  0.00    -0.289 N 
HETATM   29  H   UNL     1      26.254  34.437  45.571  1.00  0.00     0.188 HD
HETATM   30  C   UNL     1      26.754  36.045  46.901  1.00  0.00     0.123 A 
ENDBRANCH  22  25
ENDBRANCH   4  19
TORSDOF 7
ENDMDL
MODEL 10
REMARK VINA RESULT:      -8.3      3.671      9.397
REMARK  7 active torsions:
REMARK  status: ('A' for Active; 'I' for Inactive)
REMARK    1  A    between atoms: O_1  and  C_2 
REMARK    2  A    between atoms: C_2  and  C_3 
REMARK    3  A    between atoms: C_3  and  C_4 
REMARK    4  A    between atoms: C_4  and  N_5 
REMARK    5  A    between atoms: C_4  and  C_21 
REMARK       I    between atoms: N_5  and  C_6 
REMARK       I    between atoms: C_6  and  N_8 
REMARK    6  A    between atoms: N_8  and  C_9 
REMARK    7  A    between atoms: C_12  and  C_15 
ROOT
HETATM    1  N   UNL     1      26.982  42.983  52.880  1.00  0.00    -0.334 N 
HETATM    2  C   UNL     1      26.465  43.257  51.629  1.00  0.00     0.321 C 
HETATM    3  O   UNL     1      27.134  43.212  50.606  1.00  0.00    -0.247 OA
HETATM    4  N   UNL     1      25.110  43.499  51.718  1.00  0.00    -0.309 N 
HETATM    5  H   UNL     1      26.569  43.516  53.630  1.00  0.00     0.165 HD
HETATM    6  H   UNL     1      24.672  43.145  52.554  1.00  0.00     0.170 HD
ENDROOT
BRANCH   1   7
HETATM    7  C   UNL     1      28.382  42.609  53.044  1.00  0.00     0.121 C 
BRANCH   7   8
HETATM    8  C   UNL     1      28.504  41.116  53.380  1.00  0.00     0.056 C 
BRANCH   8   9
HETATM    9  C   UNL     1      28.931  40.296  52.169  1.00  0.00     0.166 C 
BRANCH   9  10
HETATM   10  O   UNL     1      27.832  40.200  51.272  1.00  0.00    -0.401 OA
HETATM   11  H   UNL     1      27.052  40.546  51.739  1.00  0.00     0.209 HD
ENDBRANCH   9  10
ENDBRANCH   8   9
ENDBRANCH   7   8
BRANCH   7  12
HETATM   12  C   UNL     1      29.056  43.473  54.098  1.00  0.00    -0.032 A 
HETATM   13  C   UNL     1      30.279  43.063  54.657  1.00  0.00     0.009 A 
HETATM   14  C   UNL     1      30.910  43.823  55.645  1.00  0.00     0.004 A 
HETATM   15  C   UNL     1      30.332  45.012  56.081  1.00  0.00     0.042 A 
HETATM   16  C   UNL     1      29.130  45.430  55.524  1.00  0.00     0.117 A 
HETATM   17  F   UNL     1      28.574  46.576  55.937  1.00  0.00    -0.206 F 
HETATM   18  C   UNL     1      28.488  44.677  54.544  1.00  0.00     0.051 A 
ENDBRANCH   7  12
ENDBRANCH   1   7
BRANCH   4  19
HETATM   19  C   UNL     1      24.253  43.855  50.658  1.00  0.00     0.036 A 
HETATM   20  C   UNL     1      24.219  45.197  50.271  1.00  0.00     0.030 A 
HETATM   21  C   UNL     1      23.365  45.622  49.243  1.00  0.00     0.014 A 
HETATM   22  C   UNL     1      22.545  44.711  48.564  1.00  0.00    -0.023 A 
HETATM   23  C   UNL     1      22.618  43.360  48.934  1.00  0.00     0.014 A 
HETATM   24  C   UNL     1      23.461  42.937  49.973  1.00  0.00     0.030 A 
BRANCH  22  25
HETATM   25  C   UNL     1      21.647  45.170  47.511  1.00  0.00     0.010 A 
HETATM   26  C   UNL     1      21.562  46.417  46.842  1.00  0.00     0.152 A 
HETATM   27  N   UNL     1      20.579  46.463  45.938  1.00  0.00    -0.187 NA
HETATM   28  N   UNL     1      20.022  45.246  46.022  1.00  0.00    -0.289 N 
HETATM   29  H   UNL     1      19.234  45.035  45.422  1.00  0.00     0.188 HD
HETATM   30  C   UNL     1      20.622  44.438  46.946  1.00  0.00     0.123 A 
ENDBRANCH  22  25
ENDBRANCH   4  19
TORSDOF 7
ENDMDL
