MODEL 1
REMARK VINA RESULT:      -9.9      0.000      0.000
REMARK  7 active torsions:
REMARK  status: ('A' for Active; 'I' for Inactive)
REMARK    1  A    between atoms: N_2  and  C_4 
REMARK    2  A    between atoms: N_2  and  C_27 
REMARK    3  A    between atoms: C_4  and  C_5 
REMARK       I    between atoms: C_5  and  N_6 
REMARK    4  A    between atoms: N_6  and  N_7 
REMARK    5  A    between atoms: C_11  and  C_12 
REMARK    6  A    between atoms: C_11  and  C_18 
REMARK    7  A    between atoms: C_27  and  C_28 
ROOT
HETATM    1  N   UNL     1      24.504  44.482  48.940  1.00  0.00    -0.167 N 
HETATM    2  C   UNL     1      23.394  45.256  49.112  1.00  0.00     0.346 C 
HETATM    3  O   UNL     1      22.301  45.087  48.598  1.00  0.00    -0.245 OA
HETATM    4  N   UNL     1      23.720  46.312  49.920  1.00  0.00    -0.315 N 
HETATM    5  C   UNL     1      25.146  46.414  50.223  1.00  0.00     0.173 C 
HETATM    6  C   UNL     1      25.613  45.129  49.435  1.00  0.00     0.285 C 
HETATM    7  O   UNL     1      26.759  44.716  49.277  1.00  0.00    -0.267 OA
HETATM    8  H   UNL     1      23.032  47.023  50.124  1.00  0.00     0.166 HD
ENDROOT
BRANCH   1   9
HETATM    9  N   UNL     1      24.569  43.563  47.896  1.00  0.00    -0.255 N 
HETATM   10  C   UNL     1      24.643  42.208  48.053  1.00  0.00     0.262 C 
HETATM   11  O   UNL     1      24.517  41.478  47.067  1.00  0.00    -0.270 OA
HETATM   12  H   UNL     1      24.301  43.915  46.978  1.00  0.00     0.191 HD
BRANCH  10  13
HETATM   13  C   UNL     1      24.885  41.616  49.447  1.00  0.00     0.338 C 
BRANCH  13  14
HETATM   14  N   UNL     1      26.349  41.635  49.916  1.00  0.00    -0.061 N 
HETATM   15  C   UNL     1      27.324  41.355  48.818  1.00  0.00     0.270 C 
HETATM   16  H   UNL     1      26.503  42.603  50.238  1.00  0.00     0.280 HD
BRANCH  14  17
HETATM   17  C   UNL     1      26.604  40.801  51.167  1.00  0.00     0.301 C 
BRANCH  17  18
HETATM   18  C   UNL     1      27.549  41.507  52.096  1.00  0.00     0.102 A 
HETATM   19  S   UNL     1      29.110  40.887  52.403  1.00  0.00    -0.071 SA
HETATM   20  C   UNL     1      29.420  42.208  53.466  1.00  0.00     0.035 A 
HETATM   21  C   UNL     1      28.295  43.037  53.504  1.00  0.00     0.074 A 
HETATM   22  C   UNL     1      30.575  42.490  54.213  1.00  0.00     0.021 A 
HETATM   23  N   UNL     1      27.227  42.625  52.715  1.00  0.00    -0.243 NA
HETATM   24  C   UNL     1      28.326  44.187  54.316  1.00  0.00     0.033 A 
HETATM   25  C   UNL     1      29.472  44.477  55.064  1.00  0.00     0.002 A 
HETATM   26  C   UNL     1      30.580  43.636  55.011  1.00  0.00     0.002 A 
ENDBRANCH  17  18
ENDBRANCH  14  17
ENDBRANCH  13  14
ENDBRANCH  10  13
ENDBRANCH   1   9
BRANCH   5  27
HETATM   27  C   UNL     1      25.376  46.297  51.736  1.00  0.00    -0.016 A 
HETATM   28  C   UNL     1      26.034  47.305  52.465  1.00  0.00     0.010 A 
HETATM   29  C   UNL     1      26.214  47.198  53.848  1.00  0.00     0.001 A 
HETATM   30  C   UNL     1      25.729  46.090  54.534  1.00  0.00     0.000 A 
HETATM   31  C   UNL     1      25.053  45.092  53.841  1.00  0.00     0.001 A 
HETATM   32  C   UNL     1      24.871  45.197  52.460  1.00  0.00     0.010 A 
ENDBRANCH   5  27
BRANCH   5  33
HETATM   33  C   UNL     1      25.773  47.686  49.634  1.00  0.00    -0.016 A 
HETATM   34  C   UNL     1      27.167  47.882  49.587  1.00  0.00     0.010 A 
HETATM   35  C   UNL     1      27.716  49.046  49.038  1.00  0.00     0.001 A 
HETATM   36  C   UNL     1      26.889  50.032  48.513  1.00  0.00     0.000 A 
HETATM   37  C   UNL     1      25.511  49.853  48.524  1.00  0.00     0.001 A 
HETATM   38  C   UNL     1      24.961  48.691  49.070  1.00  0.00     0.010 A 
ENDBRANCH   5  33
TORSDOF 7
ENDMDL
MODEL 2
REMARK VINA RESULT:      -9.4      3.627      8.299
REMARK  7 active torsions:
REMARK  status: ('A' for Active; 'I' for Inactive)
REMARK    1  A    between atoms: N_2  and  C_4 
REMARK    2  A    between atoms: N_2  and  C_27 
REMARK    3  A    between atoms: C_4  and  C_5 
REMARK       I    between atoms: C_5  and  N_6 
REMARK    4  A    between atoms: N_6  and  N_7 
REMARK    5  A    between atoms: C_11  and  C_12 
REMARK    6  A    between atoms: C_11  and  C_18 
REMARK    7  A    between atoms: C_27  and  C_28 
ROOT
HETATM    1  N   UNL     1      25.610  45.155  51.018  1.00  0.00    -0.167 N 
HETATM    2  C   UNL     1      24.958  44.455  51.991  1.00  0.00     0.346 C 
HETATM    3  O   UNL     1      23.959  44.807  52.595  1.00  0.00    -0.245 OA
HETATM    4  N   UNL     1      25.649  43.299  52.233  1.00  0.00    -0.315 N 
HETATM    5  C   UNL     1      26.934  43.215  51.540  1.00  0.00     0.173 C 
HETATM    6  C   UNL     1      26.840  44.590  50.773  1.00  0.00     0.285 C 
HETATM    7  O   UNL     1      27.686  45.108  50.048  1.00  0.00    -0.267 OA
HETATM    8  H   UNL     1      25.340  42.670  52.960  1.00  0.00     0.166 HD
ENDROOT
BRANCH   1   9
HETATM    9  N   UNL     1      25.348  46.509  50.827  1.00  0.00    -0.255 N 
HETATM   10  C   UNL     1      24.452  47.012  49.926  1.00  0.00     0.262 C 
HETATM   11  O   UNL     1      24.168  48.212  49.962  1.00  0.00    -0.270 OA
HETATM   12  H   UNL     1      25.668  47.132  51.569  1.00  0.00     0.191 HD
BRANCH  10  13
HETATM   13  C   UNL     1      23.817  46.082  48.886  1.00  0.00     0.338 C 
BRANCH  13  14
HETATM   14  N   UNL     1      22.356  45.697  49.163  1.00  0.00    -0.061 N 
HETATM   15  C   UNL     1      22.186  44.261  49.546  1.00  0.00     0.270 C 
HETATM   16  H   UNL     1      22.088  46.274  49.976  1.00  0.00     0.280 HD
BRANCH  14  17
HETATM   17  C   UNL     1      21.385  46.142  48.075  1.00  0.00     0.301 C 
BRANCH  17  18
HETATM   18  C   UNL     1      20.789  47.480  48.406  1.00  0.00     0.102 A 
HETATM   19  S   UNL     1      19.368  47.605  49.344  1.00  0.00    -0.071 SA
HETATM   20  C   UNL     1      19.434  49.321  49.206  1.00  0.00     0.035 A 
HETATM   21  C   UNL     1      20.554  49.676  48.448  1.00  0.00     0.074 A 
HETATM   22  C   UNL     1      18.558  50.285  49.731  1.00  0.00     0.021 A 
HETATM   23  N   UNL     1      21.324  48.611  47.992  1.00  0.00    -0.243 NA
HETATM   24  C   UNL     1      20.806  51.040  48.206  1.00  0.00     0.033 A 
HETATM   25  C   UNL     1      19.939  52.008  48.725  1.00  0.00     0.002 A 
HETATM   26  C   UNL     1      18.830  51.632  49.477  1.00  0.00     0.002 A 
ENDBRANCH  17  18
ENDBRANCH  14  17
ENDBRANCH  13  14
ENDBRANCH  10  13
ENDBRANCH   1   9
BRANCH   5  27
HETATM   27  C   UNL     1      26.946  42.008  50.592  1.00  0.00    -0.016 A 
HETATM   28  C   UNL     1      26.590  40.719  51.030  1.00  0.00     0.010 A 
HETATM   29  C   UNL     1      26.580  39.632  50.150  1.00  0.00     0.001 A 
HETATM   30  C   UNL     1      26.912  39.812  48.811  1.00  0.00     0.000 A 
HETATM   31  C   UNL     1      27.243  41.080  48.348  1.00  0.00     0.001 A 
HETATM   32  C   UNL     1      27.252  42.167  49.225  1.00  0.00     0.010 A 
ENDBRANCH   5  27
BRANCH   5  33
HETATM   33  C   UNL     1      28.118  43.202  52.517  1.00  0.00    -0.016 A 
HETATM   34  C   UNL     1      29.288  42.459  52.267  1.00  0.00     0.010 A 
HETATM   35  C   UNL     1      30.359  42.469  53.167  1.00  0.00     0.001 A 
HETATM   36  C   UNL     1      30.291  43.228  54.330  1.00  0.00     0.000 A 
HETATM   37  C   UNL     1      29.158  43.989  54.590  1.00  0.00     0.001 A 
HETATM   38  C   UNL     1      28.089  43.982  53.690  1.00  0.00     0.010 A 
ENDBRANCH   5  33
TORSDOF 7
ENDMDL
MODEL 3
REMARK VINA RESULT:      -9.3      3.449      7.521
REMARK  7 active torsions:
REMARK  status: ('A' for Active; 'I' for Inactive)
REMARK    1  A    between atoms: N_2  and  C_4 
REMARK    2  A    between atoms: N_2  and  C_27 
REMARK    3  A    between atoms: C_4  and  C_5 
REMARK       I    between atoms: C_5  and  N_6 
REMARK    4  A    between atoms: N_6  and  N_7 
REMARK    5  A    between atoms: C_11  and  C_12 
REMARK    6  A    between atoms: C_11  and  C_18 
REMARK    7  A    between atoms: C_27  and  C_28 
ROOT
HETATM    1  N   UNL     1      25.077  44.050  49.574  1.00  0.00    -0.167 N 
HETATM    2  C   UNL     1      26.420  43.826  49.473  1.00  0.00     0.346 C 
HETATM    3  O   UNL     1      26.960  42.809  49.073  1.00  0.00    -0.245 OA
HETATM    4  N   UNL     1      27.080  44.920  49.961  1.00  0.00    -0.315 N 
HETATM    5  C   UNL     1      26.210  45.913  50.589  1.00  0.00     0.173 C 
HETATM    6  C   UNL     1      24.841  45.176  50.326  1.00  0.00     0.285 C 
HETATM    7  O   UNL     1      23.718  45.519  50.690  1.00  0.00    -0.267 OA
HETATM    8  H   UNL     1      28.090  44.920  50.011  1.00  0.00     0.166 HD
ENDROOT
BRANCH   1   9
HETATM    9  N   UNL     1      24.178  42.989  49.497  1.00  0.00    -0.255 N 
HETATM   10  C   UNL     1      23.330  42.760  48.451  1.00  0.00     0.262 C 
HETATM   11  O   UNL     1      22.704  41.698  48.403  1.00  0.00    -0.270 OA
HETATM   12  H   UNL     1      24.342  42.220  50.146  1.00  0.00     0.191 HD
BRANCH  10  13
HETATM   13  C   UNL     1      23.165  43.822  47.358  1.00  0.00     0.338 C 
BRANCH  13  14
HETATM   14  N   UNL     1      22.276  45.016  47.739  1.00  0.00    -0.061 N 
HETATM   15  C   UNL     1      21.191  44.659  48.704  1.00  0.00     0.270 C 
HETATM   16  H   UNL     1      22.917  45.673  48.211  1.00  0.00     0.280 HD
BRANCH  14  17
HETATM   17  C   UNL     1      21.770  45.813  46.541  1.00  0.00     0.301 C 
BRANCH  17  18
HETATM   18  C   UNL     1      21.282  47.167  46.968  1.00  0.00     0.102 A 
HETATM   19  S   UNL     1      19.654  47.628  46.747  1.00  0.00    -0.071 SA
HETATM   20  C   UNL     1      19.998  49.164  47.447  1.00  0.00     0.035 A 
HETATM   21  C   UNL     1      21.348  49.209  47.807  1.00  0.00     0.074 A 
HETATM   22  C   UNL     1      19.136  50.251  47.662  1.00  0.00     0.021 A 
HETATM   23  N   UNL     1      22.076  48.059  47.526  1.00  0.00    -0.243 NA
HETATM   24  C   UNL     1      21.853  50.382  48.402  1.00  0.00     0.033 A 
HETATM   25  C   UNL     1      21.002  51.470  48.621  1.00  0.00     0.002 A 
HETATM   26  C   UNL     1      19.661  51.403  48.254  1.00  0.00     0.002 A 
ENDBRANCH  17  18
ENDBRANCH  14  17
ENDBRANCH  13  14
ENDBRANCH  10  13
ENDBRANCH   1   9
BRANCH   5  27
HETATM   27  C   UNL     1      26.314  47.253  49.848  1.00  0.00    -0.016 A 
HETATM   28  C   UNL     1      25.171  47.991  49.487  1.00  0.00     0.010 A 
HETATM   29  C   UNL     1      25.281  49.223  48.835  1.00  0.00     0.001 A 
HETATM   30  C   UNL     1      26.534  49.752  48.543  1.00  0.00     0.000 A 
HETATM   31  C   UNL     1      27.679  49.056  48.912  1.00  0.00     0.001 A 
HETATM   32  C   UNL     1      27.572  47.825  49.564  1.00  0.00     0.010 A 
ENDBRANCH   5  27
BRANCH   5  33
HETATM   33  C   UNL     1      26.486  46.055  52.093  1.00  0.00    -0.016 A 
HETATM   34  C   UNL     1      26.092  47.193  52.823  1.00  0.00     0.010 A 
HETATM   35  C   UNL     1      26.345  47.297  54.195  1.00  0.00     0.001 A 
HETATM   36  C   UNL     1      26.987  46.265  54.870  1.00  0.00     0.000 A 
HETATM   37  C   UNL     1      27.365  45.121  54.179  1.00  0.00     0.001 A 
HETATM   38  C   UNL     1      27.110  45.014  52.809  1.00  0.00     0.010 A 
ENDBRANCH   5  33
TORSDOF 7
ENDMDL
MODEL 4
REMARK VINA RESULT:      -8.8      3.218      6.438
REMARK  7 active torsions:
REMARK  status: ('A' for Active; 'I' for Inactive)
REMARK    1  A    between atoms: N_2  and  C_4 
REMARK    2  A    between atoms: N_2  and  C_27 
REMARK    3  A    between atoms: C_4  and  C_5 
REMARK       I    between atoms: C_5  and  N_6 
REMARK    4  A    between atoms: N_6  and  N_7 
REMARK    5  A    between atoms: C_11  and  C_12 
REMARK    6  A    between atoms: C_11  and  C_18 
REMARK    7  A    between atoms: C_27  and  C_28 
ROOT
HETATM    1  N   UNL     1      24.617  43.542  49.887  1.00  0.00    -0.167 N 
HETATM    2  C   UNL     1      23.574  44.177  50.497  1.00  0.00     0.346 C 
HETATM    3  O   UNL     1      22.399  43.856  50.449  1.00  0.00    -0.245 OA
HETATM    4  N   UNL     1      24.054  45.289  51.133  1.00  0.00    -0.315 N 
HETATM    5  C   UNL     1      25.460  45.578  50.853  1.00  0.00     0.173 C 
HETATM    6  C   UNL     1      25.739  44.337  49.920  1.00  0.00     0.285 C 
HETATM    7  O   UNL     1      26.774  44.065  49.316  1.00  0.00    -0.267 OA
HETATM    8  H   UNL     1      23.417  45.915  51.604  1.00  0.00     0.166 HD
ENDROOT
BRANCH   1   9
HETATM    9  N   UNL     1      24.384  42.606  48.884  1.00  0.00    -0.255 N 
HETATM   10  C   UNL     1      24.010  42.908  47.605  1.00  0.00     0.262 C 
HETATM   11  O   UNL     1      24.003  42.018  46.751  1.00  0.00    -0.270 OA
HETATM   12  H   UNL     1      24.748  41.669  49.056  1.00  0.00     0.191 HD
BRANCH  10  13
HETATM   13  C   UNL     1      23.603  44.344  47.251  1.00  0.00     0.338 C 
BRANCH  13  14
HETATM   14  N   UNL     1      22.092  44.619  47.283  1.00  0.00    -0.061 N 
HETATM   15  C   UNL     1      21.266  43.406  46.995  1.00  0.00     0.270 C 
HETATM   16  H   UNL     1      21.903  44.907  48.256  1.00  0.00     0.280 HD
BRANCH  14  17
HETATM   17  C   UNL     1      21.670  45.834  46.465  1.00  0.00     0.301 C 
BRANCH  17  18
HETATM   18  C   UNL     1      21.221  46.952  47.361  1.00  0.00     0.102 A 
HETATM   19  S   UNL     1      20.027  46.699  48.554  1.00  0.00    -0.071 SA
HETATM   20  C   UNL     1      20.149  48.354  49.020  1.00  0.00     0.035 A 
HETATM   21  C   UNL     1      21.108  48.983  48.221  1.00  0.00     0.074 A 
HETATM   22  C   UNL     1      19.446  49.045  50.019  1.00  0.00     0.021 A 
HETATM   23  N   UNL     1      21.716  48.170  47.271  1.00  0.00    -0.243 NA
HETATM   24  C   UNL     1      21.373  50.350  48.429  1.00  0.00     0.033 A 
HETATM   25  C   UNL     1      20.679  51.048  49.422  1.00  0.00     0.002 A 
HETATM   26  C   UNL     1      19.727  50.401  50.205  1.00  0.00     0.002 A 
ENDBRANCH  17  18
ENDBRANCH  14  17
ENDBRANCH  13  14
ENDBRANCH  10  13
ENDBRANCH   1   9
BRANCH   5  27
HETATM   27  C   UNL     1      26.277  45.539  52.151  1.00  0.00    -0.016 A 
HETATM   28  C   UNL     1      26.106  46.501  53.164  1.00  0.00     0.010 A 
HETATM   29  C   UNL     1      26.839  46.439  54.353  1.00  0.00     0.001 A 
HETATM   30  C   UNL     1      27.747  45.407  54.564  1.00  0.00     0.000 A 
HETATM   31  C   UNL     1      27.916  44.429  53.590  1.00  0.00     0.001 A 
HETATM   32  C   UNL     1      27.185  44.488  52.401  1.00  0.00     0.010 A 
ENDBRANCH   5  27
BRANCH   5  33
HETATM   33  C   UNL     1      25.638  46.899  50.091  1.00  0.00    -0.016 A 
HETATM   34  C   UNL     1      24.545  47.713  49.735  1.00  0.00     0.010 A 
HETATM   35  C   UNL     1      24.732  48.917  49.049  1.00  0.00     0.001 A 
HETATM   36  C   UNL     1      26.012  49.342  48.713  1.00  0.00     0.000 A 
HETATM   37  C   UNL     1      27.110  48.571  49.073  1.00  0.00     0.001 A 
HETATM   38  C   UNL     1      26.926  47.368  49.761  1.00  0.00     0.010 A 
ENDBRANCH   5  33
TORSDOF 7
ENDMDL
MODEL 5
REMARK VINA RESULT:      -8.5      3.928      8.187
REMARK  7 active torsions:
REMARK  status: ('A' for Active; 'I' for Inactive)
REMARK    1  A    between atoms: N_2  and  C_4 
REMARK    2  A    between atoms: N_2  and  C_27 
REMARK    3  A    between atoms: C_4  and  C_5 
REMARK       I    between atoms: C_5  and  N_6 
REMARK    4  A    between atoms: N_6  and  N_7 
REMARK    5  A    between atoms: C_11  and  C_12 
REMARK    6  A    between atoms: C_11  and  C_18 
REMARK    7  A    between atoms: C_27  and  C_28 
ROOT
HETATM    1  N   UNL     1      26.207  46.748  50.731  1.00  0.00    -0.167 N 
HETATM    2  C   UNL     1      27.174  46.508  49.799  1.00  0.00     0.346 C 
HETATM    3  O   UNL     1      27.546  47.271  48.924  1.00  0.00    -0.245 OA
HETATM    4  N   UNL     1      27.626  45.227  49.962  1.00  0.00    -0.315 N 
HETATM    5  C   UNL     1      26.864  44.443  50.933  1.00  0.00     0.173 C 
HETATM    6  C   UNL     1      25.854  45.576  51.360  1.00  0.00     0.285 C 
HETATM    7  O   UNL     1      24.907  45.489  52.138  1.00  0.00    -0.267 OA
HETATM    8  H   UNL     1      28.318  44.852  49.328  1.00  0.00     0.166 HD
ENDROOT
BRANCH   1   9
HETATM    9  N   UNL     1      25.327  47.816  50.577  1.00  0.00    -0.255 N 
HETATM   10  C   UNL     1      24.135  47.756  49.912  1.00  0.00     0.262 C 
HETATM   11  O   UNL     1      23.353  48.708  49.986  1.00  0.00    -0.270 OA
HETATM   12  H   UNL     1      25.477  48.609  51.201  1.00  0.00     0.191 HD
BRANCH  10  13
HETATM   13  C   UNL     1      23.788  46.513  49.084  1.00  0.00     0.338 C 
BRANCH  13  14
HETATM   14  N   UNL     1      22.285  46.231  48.933  1.00  0.00    -0.061 N 
HETATM   15  C   UNL     1      21.949  44.775  48.993  1.00  0.00     0.270 C 
HETATM   16  H   UNL     1      21.854  46.690  49.751  1.00  0.00     0.280 HD
BRANCH  14  17
HETATM   17  C   UNL     1      21.641  46.943  47.748  1.00  0.00     0.301 C 
BRANCH  17  18
HETATM   18  C   UNL     1      20.807  48.103  48.210  1.00  0.00     0.102 A 
HETATM   19  S   UNL     1      19.510  47.878  49.296  1.00  0.00    -0.071 SA
HETATM   20  C   UNL     1      19.180  49.569  49.244  1.00  0.00     0.035 A 
HETATM   21  C   UNL     1      20.100  50.187  48.393  1.00  0.00     0.074 A 
HETATM   22  C   UNL     1      18.179  50.295  49.908  1.00  0.00     0.021 A 
HETATM   23  N   UNL     1      21.029  49.337  47.803  1.00  0.00    -0.243 NA
HETATM   24  C   UNL     1      20.016  51.580  48.200  1.00  0.00     0.033 A 
HETATM   25  C   UNL     1      19.023  52.313  48.857  1.00  0.00     0.002 A 
HETATM   26  C   UNL     1      18.117  51.675  49.700  1.00  0.00     0.002 A 
ENDBRANCH  17  18
ENDBRANCH  14  17
ENDBRANCH  13  14
ENDBRANCH  10  13
ENDBRANCH   1   9
BRANCH   5  27
HETATM   27  C   UNL     1      27.775  43.995  52.084  1.00  0.00    -0.016 A 
HETATM   28  C   UNL     1      28.972  43.293  51.852  1.00  0.00     0.010 A 
HETATM   29  C   UNL     1      29.806  42.913  52.909  1.00  0.00     0.001 A 
HETATM   30  C   UNL     1      29.469  43.239  54.218  1.00  0.00     0.000 A 
HETATM   31  C   UNL     1      28.305  43.955  54.473  1.00  0.00     0.001 A 
HETATM   32  C   UNL     1      27.471  44.336  53.419  1.00  0.00     0.010 A 
ENDBRANCH   5  27
BRANCH   5  33
HETATM   33  C   UNL     1      26.132  43.264  50.275  1.00  0.00    -0.016 A 
HETATM   34  C   UNL     1      26.106  41.981  50.855  1.00  0.00     0.010 A 
HETATM   35  C   UNL     1      25.426  40.923  50.243  1.00  0.00     0.001 A 
HETATM   36  C   UNL     1      24.746  41.124  49.047  1.00  0.00     0.000 A 
HETATM   37  C   UNL     1      24.735  42.386  48.466  1.00  0.00     0.001 A 
HETATM   38  C   UNL     1      25.412  43.445  49.077  1.00  0.00     0.010 A 
ENDBRANCH   5  33
TORSDOF 7
ENDMDL
MODEL 6
REMARK VINA RESULT:      -8.4      5.187      7.666
REMARK  7 active torsions:
REMARK  status: ('A' for Active; 'I' for Inactive)
REMARK    1  A    between atoms: N_2  and  C_4 
REMARK    2  A    between atoms: N_2  and  C_27 
REMARK    3  A    between atoms: C_4  and  C_5 
REMARK       I    between atoms: C_5  and  N_6 
REMARK    4  A    between atoms: N_6  and  N_7 
REMARK    5  A    between atoms: C_11  and  C_12 
REMARK    6  A    between atoms: C_11  and  C_18 
REMARK    7  A    between atoms: C_27  and  C_28 
ROOT
HETATM    1  N   UNL     1      21.583  51.064  48.694  1.00  0.00    -0.167 N 
HETATM    2  C   UNL     1      21.415  50.788  50.020  1.00  0.00     0.346 C 
HETATM    3  O   UNL     1      22.250  50.906  50.900  1.00  0.00    -0.245 OA
HETATM    4  N   UNL     1      20.154  50.287  50.203  1.00  0.00    -0.315 N 
HETATM    5  C   UNL     1      19.426  50.033  48.961  1.00  0.00     0.173 C 
HETATM    6  C   UNL     1      20.538  50.544  47.966  1.00  0.00     0.285 C 
HETATM    7  O   UNL     1      20.517  50.527  46.738  1.00  0.00    -0.267 OA
HETATM    8  H   UNL     1      19.862  49.980  51.120  1.00  0.00     0.166 HD
ENDROOT
BRANCH   1   9
HETATM    9  N   UNL     1      22.860  51.236  48.166  1.00  0.00    -0.255 N 
HETATM   10  C   UNL     1      23.761  50.230  47.957  1.00  0.00     0.262 C 
HETATM   11  O   UNL     1      24.792  50.464  47.322  1.00  0.00    -0.270 OA
HETATM   12  H   UNL     1      23.029  52.122  47.691  1.00  0.00     0.191 HD
BRANCH  10  13
HETATM   13  C   UNL     1      23.479  48.829  48.515  1.00  0.00     0.338 C 
BRANCH  13  14
HETATM   14  N   UNL     1      24.475  48.341  49.579  1.00  0.00    -0.061 N 
HETATM   15  C   UNL     1      25.903  48.568  49.199  1.00  0.00     0.270 C 
HETATM   16  H   UNL     1      24.271  48.922  50.408  1.00  0.00     0.280 HD
BRANCH  14  17
HETATM   17  C   UNL     1      24.206  46.922  50.068  1.00  0.00     0.301 C 
BRANCH  17  18
HETATM   18  C   UNL     1      25.086  46.583  51.236  1.00  0.00     0.102 A 
HETATM   19  S   UNL     1      25.865  45.068  51.343  1.00  0.00    -0.071 SA
HETATM   20  C   UNL     1      26.561  45.537  52.848  1.00  0.00     0.035 A 
HETATM   21  C   UNL     1      26.144  46.836  53.158  1.00  0.00     0.074 A 
HETATM   22  C   UNL     1      27.414  44.810  53.693  1.00  0.00     0.021 A 
HETATM   23  N   UNL     1      25.297  47.426  52.227  1.00  0.00    -0.243 NA
HETATM   24  C   UNL     1      26.597  47.426  54.354  1.00  0.00     0.033 A 
HETATM   25  C   UNL     1      27.446  46.709  55.203  1.00  0.00     0.002 A 
HETATM   26  C   UNL     1      27.848  45.418  54.874  1.00  0.00     0.002 A 
ENDBRANCH  17  18
ENDBRANCH  14  17
ENDBRANCH  13  14
ENDBRANCH  10  13
ENDBRANCH   1   9
BRANCH   5  27
HETATM   27  C   UNL     1      18.150  50.883  48.911  1.00  0.00    -0.016 A 
HETATM   28  C   UNL     1      17.803  51.760  49.956  1.00  0.00     0.010 A 
HETATM   29  C   UNL     1      16.650  52.549  49.886  1.00  0.00     0.001 A 
HETATM   30  C   UNL     1      15.827  52.491  48.766  1.00  0.00     0.000 A 
HETATM   31  C   UNL     1      16.161  51.652  47.709  1.00  0.00     0.001 A 
HETATM   32  C   UNL     1      17.313  50.863  47.776  1.00  0.00     0.010 A 
ENDBRANCH   5  27
BRANCH   5  33
HETATM   33  C   UNL     1      19.139  48.538  48.755  1.00  0.00    -0.016 A 
HETATM   34  C   UNL     1      20.166  47.605  48.512  1.00  0.00     0.010 A 
HETATM   35  C   UNL     1      19.882  46.246  48.335  1.00  0.00     0.001 A 
HETATM   36  C   UNL     1      18.572  45.787  48.410  1.00  0.00     0.000 A 
HETATM   37  C   UNL     1      17.543  46.683  48.673  1.00  0.00     0.001 A 
HETATM   38  C   UNL     1      17.825  48.040  48.851  1.00  0.00     0.010 A 
ENDBRANCH   5  33
TORSDOF 7
ENDMDL
MODEL 7
REMARK VINA RESULT:      -8.4      4.433      6.975
REMARK  7 active torsions:
REMARK  status: ('A' for Active; 'I' for Inactive)
REMARK    1  A    between atoms: N_2  and  C_4 
REMARK    2  A    between atoms: N_2  and  C_27 
REMARK    3  A    between atoms: C_4  and  C_5 
REMARK       I    between atoms: C_5  and  N_6 
REMARK    4  A    between atoms: N_6  and  N_7 
REMARK    5  A    between atoms: C_11  and  C_12 
REMARK    6  A    between atoms: C_11  and  C_18 
REMARK    7  A    between atoms: C_27  and  C_28 
ROOT
HETATM    1  N   UNL     1      20.559  45.594  47.704  1.00  0.00    -0.167 N 
HETATM    2  C   UNL     1      19.246  45.524  48.069  1.00  0.00     0.346 C 
HETATM    3  O   UNL     1      18.623  44.516  48.357  1.00  0.00    -0.245 OA
HETATM    4  N   UNL     1      18.707  46.779  47.999  1.00  0.00    -0.315 N 
HETATM    5  C   UNL     1      19.598  47.780  47.412  1.00  0.00     0.173 C 
HETATM    6  C   UNL     1      20.838  46.833  47.178  1.00  0.00     0.285 C 
HETATM    7  O   UNL     1      21.908  47.112  46.642  1.00  0.00    -0.267 OA
HETATM    8  H   UNL     1      17.725  46.919  48.190  1.00  0.00     0.166 HD
ENDROOT
BRANCH   1   9
HETATM    9  N   UNL     1      21.251  44.443  47.335  1.00  0.00    -0.255 N 
HETATM   10  C   UNL     1      21.971  43.657  48.191  1.00  0.00     0.262 C 
HETATM   11  O   UNL     1      22.396  42.568  47.797  1.00  0.00    -0.270 OA
HETATM   12  H   UNL     1      21.001  44.045  46.431  1.00  0.00     0.191 HD
BRANCH  10  13
HETATM   13  C   UNL     1      22.241  44.140  49.621  1.00  0.00     0.338 C 
BRANCH  13  14
HETATM   14  N   UNL     1      23.706  44.039  50.075  1.00  0.00    -0.061 N 
HETATM   15  C   UNL     1      24.109  42.652  50.464  1.00  0.00     0.270 C 
HETATM   16  H   UNL     1      24.253  44.305  49.241  1.00  0.00     0.280 HD
BRANCH  14  17
HETATM   17  C   UNL     1      24.103  45.087  51.109  1.00  0.00     0.301 C 
BRANCH  17  18
HETATM   18  C   UNL     1      24.753  46.268  50.450  1.00  0.00     0.102 A 
HETATM   19  S   UNL     1      26.449  46.464  50.464  1.00  0.00    -0.071 SA
HETATM   20  C   UNL     1      26.283  47.932  49.578  1.00  0.00     0.035 A 
HETATM   21  C   UNL     1      24.927  48.165  49.331  1.00  0.00     0.074 A 
HETATM   22  C   UNL     1      27.280  48.815  49.135  1.00  0.00     0.021 A 
HETATM   23  N   UNL     1      24.058  47.205  49.836  1.00  0.00    -0.243 NA
HETATM   24  C   UNL     1      24.556  49.320  48.615  1.00  0.00     0.033 A 
HETATM   25  C   UNL     1      25.542  50.206  48.169  1.00  0.00     0.002 A 
HETATM   26  C   UNL     1      26.886  49.954  48.428  1.00  0.00     0.002 A 
ENDBRANCH  17  18
ENDBRANCH  14  17
ENDBRANCH  13  14
ENDBRANCH  10  13
ENDBRANCH   1   9
BRANCH   5  27
HETATM   27  C   UNL     1      19.885  48.894  48.427  1.00  0.00    -0.016 A 
HETATM   28  C   UNL     1      19.156  49.011  49.625  1.00  0.00     0.010 A 
HETATM   29  C   UNL     1      19.446  50.015  50.555  1.00  0.00     0.001 A 
HETATM   30  C   UNL     1      20.478  50.915  50.314  1.00  0.00     0.000 A 
HETATM   31  C   UNL     1      21.231  50.806  49.150  1.00  0.00     0.001 A 
HETATM   32  C   UNL     1      20.944  49.803  48.221  1.00  0.00     0.010 A 
ENDBRANCH   5  27
BRANCH   5  33
HETATM   33  C   UNL     1      19.057  48.327  46.083  1.00  0.00    -0.016 A 
HETATM   34  C   UNL     1      18.692  49.677  45.922  1.00  0.00     0.010 A 
HETATM   35  C   UNL     1      18.209  50.156  44.699  1.00  0.00     0.001 A 
HETATM   36  C   UNL     1      18.092  49.302  43.608  1.00  0.00     0.000 A 
HETATM   37  C   UNL     1      18.467  47.971  43.733  1.00  0.00     0.001 A 
HETATM   38  C   UNL     1      18.952  47.491  44.953  1.00  0.00     0.010 A 
ENDBRANCH   5  33
TORSDOF 7
ENDMDL
MODEL 8
REMARK VINA RESULT:      -8.2      4.656      6.736
REMARK  7 active torsions:
REMARK  status: ('A' for Active; 'I' for Inactive)
REMARK    1  A    between atoms: N_2  and  C_4 
REMARK    2  A    between atoms: N_2  and  C_27 
REMARK    3  A    between atoms: C_4  and  C_5 
REMARK       I    between atoms: C_5  and  N_6 
REMARK    4  A    between atoms: N_6  and  N_7 
REMARK    5  A    between atoms: C_11  and  C_12 
REMARK    6  A    between atoms: C_11  and  C_18 
REMARK    7  A    between atoms: C_27  and  C_28 
ROOT
HETATM    1  N   UNL     1      22.342  48.920  48.681  1.00  0.00    -0.167 N 
HETATM    2  C   UNL     1      22.552  49.832  47.688  1.00  0.00     0.346 C 
HETATM    3  O   UNL     1      23.603  50.390  47.422  1.00  0.00    -0.245 OA
HETATM    4  N   UNL     1      21.360  50.076  47.063  1.00  0.00    -0.315 N 
HETATM    5  C   UNL     1      20.206  49.454  47.711  1.00  0.00     0.173 C 
HETATM    6  C   UNL     1      20.994  48.728  48.869  1.00  0.00     0.285 C 
HETATM    7  O   UNL     1      20.531  48.068  49.797  1.00  0.00    -0.267 OA
HETATM    8  H   UNL     1      21.308  50.764  46.325  1.00  0.00     0.166 HD
ENDROOT
BRANCH   1   9
HETATM    9  N   UNL     1      23.278  48.759  49.699  1.00  0.00    -0.255 N 
HETATM   10  C   UNL     1      23.985  47.614  49.935  1.00  0.00     0.262 C 
HETATM   11  O   UNL     1      24.914  47.634  50.747  1.00  0.00    -0.270 OA
HETATM   12  H   UNL     1      23.620  49.618  50.129  1.00  0.00     0.191 HD
BRANCH  10  13
HETATM   13  C   UNL     1      23.614  46.324  49.193  1.00  0.00     0.338 C 
BRANCH  13  14
HETATM   14  N   UNL     1      24.448  45.091  49.575  1.00  0.00    -0.061 N 
HETATM   15  C   UNL     1      24.468  44.040  48.512  1.00  0.00     0.270 C 
HETATM   16  H   UNL     1      25.409  45.453  49.682  1.00  0.00     0.280 HD
BRANCH  14  17
HETATM   17  C   UNL     1      24.124  44.534  50.957  1.00  0.00     0.301 C 
BRANCH  17  18
HETATM   18  C   UNL     1      25.375  44.351  51.766  1.00  0.00     0.102 A 
HETATM   19  S   UNL     1      25.536  45.053  53.314  1.00  0.00    -0.071 SA
HETATM   20  C   UNL     1      27.118  44.385  53.448  1.00  0.00     0.035 A 
HETATM   21  C   UNL     1      27.408  43.661  52.287  1.00  0.00     0.074 A 
HETATM   22  C   UNL     1      28.038  44.492  54.504  1.00  0.00     0.021 A 
HETATM   23  N   UNL     1      26.402  43.650  51.328  1.00  0.00    -0.243 NA
HETATM   24  C   UNL     1      28.660  43.025  52.179  1.00  0.00     0.033 A 
HETATM   25  C   UNL     1      29.582  43.126  53.225  1.00  0.00     0.002 A 
HETATM   26  C   UNL     1      29.272  43.852  54.371  1.00  0.00     0.002 A 
ENDBRANCH  17  18
ENDBRANCH  14  17
ENDBRANCH  13  14
ENDBRANCH  10  13
ENDBRANCH   1   9
BRANCH   5  27
HETATM   27  C   UNL     1      19.525  48.470  46.750  1.00  0.00    -0.016 A 
HETATM   28  C   UNL     1      19.846  47.100  46.742  1.00  0.00     0.010 A 
HETATM   29  C   UNL     1      19.199  46.210  45.879  1.00  0.00     0.001 A 
HETATM   30  C   UNL     1      18.207  46.666  45.017  1.00  0.00     0.000 A 
HETATM   31  C   UNL     1      17.853  48.010  45.023  1.00  0.00     0.001 A 
HETATM   32  C   UNL     1      18.498  48.901  45.885  1.00  0.00     0.010 A 
ENDBRANCH   5  27
BRANCH   5  33
HETATM   33  C   UNL     1      19.227  50.495  48.272  1.00  0.00    -0.016 A 
HETATM   34  C   UNL     1      18.105  50.131  49.041  1.00  0.00     0.010 A 
HETATM   35  C   UNL     1      17.231  51.097  49.549  1.00  0.00     0.001 A 
HETATM   36  C   UNL     1      17.462  52.447  49.312  1.00  0.00     0.000 A 
HETATM   37  C   UNL     1      18.575  52.836  48.576  1.00  0.00     0.001 A 
HETATM   38  C   UNL     1      19.451  51.872  48.070  1.00  0.00     0.010 A 
ENDBRANCH   5  33
TORSDOF 7
ENDMDL
MODEL 9
REMARK VINA RESULT:      -8.2      7.721     12.123
REMARK  7 active torsions:
REMARK  status: ('A' for Active; 'I' for Inactive)
REMARK    1  A    between atoms: N_2  and  C_4 
REMARK    2  A    between atoms: N_2  and  C_27 
REMARK    3  A    between atoms: C_4  and  C_5 
REMARK       I    between atoms: C_5  and  N_6 
REMARK    4  A    between atoms: N_6  and  N_7 
REMARK    5  A    between atoms: C_11  and  C_12 
REMARK    6  A    between atoms: C_11  and  C_18 
REMARK    7  A    between atoms: C_27  and  C_28 
ROOT
HETATM    1  N   UNL     1      18.648  50.296  49.605  1.00  0.00    -0.167 N 
HETATM    2  C   UNL     1      19.000  49.341  50.514  1.00  0.00     0.346 C 
HETATM    3  O   UNL     1      18.655  49.284  51.682  1.00  0.00    -0.245 OA
HETATM    4  N   UNL     1      19.872  48.472  49.915  1.00  0.00    -0.315 N 
HETATM    5  C   UNL     1      20.303  48.883  48.581  1.00  0.00     0.173 C 
HETATM    6  C   UNL     1      19.444  50.203  48.488  1.00  0.00     0.285 C 
HETATM    7  O   UNL     1      19.432  51.033  47.582  1.00  0.00    -0.267 OA
HETATM    8  H   UNL     1      20.280  47.719  50.451  1.00  0.00     0.166 HD
ENDROOT
BRANCH   1   9
HETATM    9  N   UNL     1      18.073  51.493  50.027  1.00  0.00    -0.255 N 
HETATM   10  C   UNL     1      16.794  51.884  49.751  1.00  0.00     0.262 C 
HETATM   11  O   UNL     1      16.329  52.876  50.319  1.00  0.00    -0.270 OA
HETATM   12  H   UNL     1      18.560  51.978  50.779  1.00  0.00     0.191 HD
BRANCH  10  13
HETATM   13  C   UNL     1      15.957  51.090  48.740  1.00  0.00     0.338 C 
BRANCH  13  14
HETATM   14  N   UNL     1      16.137  51.512  47.273  1.00  0.00    -0.061 N 
HETATM   15  C   UNL     1      15.219  52.617  46.860  1.00  0.00     0.270 C 
HETATM   16  H   UNL     1      17.104  51.868  47.225  1.00  0.00     0.280 HD
BRANCH  14  17
HETATM   17  C   UNL     1      16.141  50.343  46.294  1.00  0.00     0.301 C 
BRANCH  17  18
HETATM   18  C   UNL     1      16.877  50.702  45.036  1.00  0.00     0.102 A 
HETATM   19  S   UNL     1      18.164  49.739  44.461  1.00  0.00    -0.071 SA
HETATM   20  C   UNL     1      18.369  50.815  43.131  1.00  0.00     0.035 A 
HETATM   21  C   UNL     1      17.424  51.841  43.224  1.00  0.00     0.074 A 
HETATM   22  C   UNL     1      19.299  50.756  42.081  1.00  0.00     0.021 A 
HETATM   23  N   UNL     1      16.574  51.767  44.321  1.00  0.00    -0.243 NA
HETATM   24  C   UNL     1      17.409  52.841  42.233  1.00  0.00     0.033 A 
HETATM   25  C   UNL     1      18.331  52.791  41.183  1.00  0.00     0.002 A 
HETATM   26  C   UNL     1      19.264  51.760  41.111  1.00  0.00     0.002 A 
ENDBRANCH  17  18
ENDBRANCH  14  17
ENDBRANCH  13  14
ENDBRANCH  10  13
ENDBRANCH   1   9
BRANCH   5  27
HETATM   27  C   UNL     1      19.889  47.832  47.542  1.00  0.00    -0.016 A 
HETATM   28  C   UNL     1      20.835  47.179  46.731  1.00  0.00     0.010 A 
HETATM   29  C   UNL     1      20.446  46.204  45.807  1.00  0.00     0.001 A 
HETATM   30  C   UNL     1      19.107  45.850  45.683  1.00  0.00     0.000 A 
HETATM   31  C   UNL     1      18.155  46.461  46.491  1.00  0.00     0.001 A 
HETATM   32  C   UNL     1      18.541  47.435  47.416  1.00  0.00     0.010 A 
ENDBRANCH   5  27
BRANCH   5  33
HETATM   33  C   UNL     1      21.806  49.193  48.529  1.00  0.00    -0.016 A 
HETATM   34  C   UNL     1      22.320  50.299  47.824  1.00  0.00     0.010 A 
HETATM   35  C   UNL     1      23.693  50.567  47.798  1.00  0.00     0.001 A 
HETATM   36  C   UNL     1      24.581  49.747  48.484  1.00  0.00     0.000 A 
HETATM   37  C   UNL     1      24.099  48.663  49.207  1.00  0.00     0.001 A 
HETATM   38  C   UNL     1      22.728  48.395  49.236  1.00  0.00     0.010 A 
ENDBRANCH   5  33
TORSDOF 7
ENDMDL
MODEL 10
REMARK VINA RESULT:      -8.2      7.034      9.783
REMARK  7 active torsions:
REMARK  status: ('A' for Active; 'I' for Inactive)
REMARK    1  A    between atoms: N_2  and  C_4 
REMARK    2  A    between atoms: N_2  and  C_27 
REMARK    3  A    between atoms: C_4  and  C_5 
REMARK       I    between atoms: C_5  and  N_6 
REMARK    4  A    between atoms: N_6  and  N_7 
REMARK    5  A    between atoms: C_11  and  C_12 
REMARK    6  A    between atoms: C_11  and  C_18 
REMARK    7  A    between atoms: C_27  and  C_28 
ROOT
HETATM    1  N   UNL     1      16.600  47.783  46.145  1.00  0.00    -0.167 N 
HETATM    2  C   UNL     1      15.459  48.434  46.516  1.00  0.00     0.346 C 
HETATM    3  O   UNL     1      14.341  47.954  46.597  1.00  0.00    -0.245 OA
HETATM    4  N   UNL     1      15.759  49.752  46.727  1.00  0.00    -0.315 N 
HETATM    5  C   UNL     1      17.121  50.123  46.346  1.00  0.00     0.173 C 
HETATM    6  C   UNL     1      17.600  48.691  45.888  1.00  0.00     0.285 C 
HETATM    7  O   UNL     1      18.683  48.379  45.399  1.00  0.00    -0.267 OA
HETATM    8  H   UNL     1      15.026  50.404  46.966  1.00  0.00     0.166 HD
ENDROOT
BRANCH   1   9
HETATM    9  N   UNL     1      16.532  46.538  45.524  1.00  0.00    -0.255 N 
HETATM   10  C   UNL     1      17.020  45.376  46.050  1.00  0.00     0.262 C 
HETATM   11  O   UNL     1      16.751  44.304  45.502  1.00  0.00    -0.270 OA
HETATM   12  H   UNL     1      15.869  46.462  44.754  1.00  0.00     0.191 HD
BRANCH  10  13
HETATM   13  C   UNL     1      17.896  45.420  47.309  1.00  0.00     0.338 C 
BRANCH  13  14
HETATM   14  N   UNL     1      19.368  45.787  47.064  1.00  0.00    -0.061 N 
HETATM   15  C   UNL     1      19.970  45.065  45.901  1.00  0.00     0.270 C 
HETATM   16  H   UNL     1      19.348  46.793  46.837  1.00  0.00     0.280 HD
BRANCH  14  17
HETATM   17  C   UNL     1      20.234  45.723  48.318  1.00  0.00     0.301 C 
BRANCH  17  18
HETATM   18  C   UNL     1      21.222  46.853  48.342  1.00  0.00     0.102 A 
HETATM   19  S   UNL     1      22.839  46.601  48.826  1.00  0.00    -0.071 SA
HETATM   20  C   UNL     1      23.172  48.272  48.571  1.00  0.00     0.035 A 
HETATM   21  C   UNL     1      22.008  48.906  48.125  1.00  0.00     0.074 A 
HETATM   22  C   UNL     1      24.375  48.972  48.752  1.00  0.00     0.021 A 
HETATM   23  N   UNL     1      20.895  48.083  47.999  1.00  0.00    -0.243 NA
HETATM   24  C   UNL     1      22.050  50.287  47.852  1.00  0.00     0.033 A 
HETATM   25  C   UNL     1      23.245  50.993  48.029  1.00  0.00     0.002 A 
HETATM   26  C   UNL     1      24.391  50.341  48.475  1.00  0.00     0.002 A 
ENDBRANCH  17  18
ENDBRANCH  14  17
ENDBRANCH  13  14
ENDBRANCH  10  13
ENDBRANCH   1   9
BRANCH   5  27
HETATM   27  C   UNL     1      17.890  50.642  47.568  1.00  0.00    -0.016 A 
HETATM   28  C   UNL     1      18.600  51.857  47.536  1.00  0.00     0.010 A 
HETATM   29  C   UNL     1      19.276  52.332  48.665  1.00  0.00     0.001 A 
HETATM   30  C   UNL     1      19.244  51.612  49.854  1.00  0.00     0.000 A 
HETATM   31  C   UNL     1      18.529  50.421  49.921  1.00  0.00     0.001 A 
HETATM   32  C   UNL     1      17.853  49.945  48.794  1.00  0.00     0.010 A 
ENDBRANCH   5  27
BRANCH   5  33
HETATM   33  C   UNL     1      17.144  51.118  45.177  1.00  0.00    -0.016 A 
HETATM   34  C   UNL     1      16.499  52.368  45.244  1.00  0.00     0.010 A 
HETATM   35  C   UNL     1      16.540  53.263  44.170  1.00  0.00     0.001 A 
HETATM   36  C   UNL     1      17.234  52.936  43.010  1.00  0.00     0.000 A 
HETATM   37  C   UNL     1      17.899  51.719  42.926  1.00  0.00     0.001 A 
HETATM   38  C   UNL     1      17.861  50.825  44.000  1.00  0.00     0.010 A 
ENDBRANCH   5  33
TORSDOF 7
ENDMDL
