MODEL 1
REMARK VINA RESULT:      -8.0      0.000      0.000
REMARK  4 active torsions:
REMARK  status: ('A' for Active; 'I' for Inactive)
REMARK    1  A    between atoms: C_5  and  N_6 
REMARK    2  A    between atoms: N_9  and  C_11 
REMARK    3  A    between atoms: C_11  and  C_12 
REMARK    4  A    between atoms: C_13  and  O_14 
ROOT
HETATM    1  N   UNL     1      24.994  46.401  49.564  1.00  0.00    -0.363 N 
HETATM    2  C   UNL     1      24.565  45.109  50.118  1.00  0.00     0.152 C 
HETATM    3  C   UNL     1      24.480  45.096  51.657  1.00  0.00     0.255 C 
HETATM    4  N   UNL     1      25.884  45.091  52.256  1.00  0.00    -0.066 N 
HETATM    5  H   UNL     1      26.490  44.587  51.586  1.00  0.00     0.280 HD
HETATM    6  C   UNL     1      26.500  46.437  52.488  1.00  0.00     0.237 C 
HETATM    7  C   UNL     1      26.280  47.469  51.388  1.00  0.00     0.047 C 
HETATM    8  C   UNL     1      26.301  46.930  49.960  1.00  0.00     0.126 C 
ENDROOT
BRANCH   4   9
HETATM    9  C   UNL     1      25.982  44.218  53.492  1.00  0.00     0.276 C 
BRANCH   9  10
HETATM   10  C   UNL     1      27.346  43.613  53.711  1.00  0.00     0.002 A 
HETATM   11  C   UNL     1      27.788  42.499  52.981  1.00  0.00     0.073 A 
HETATM   12  C   UNL     1      29.061  41.964  53.173  1.00  0.00     0.038 A 
HETATM   13  C   UNL     1      29.922  42.551  54.100  1.00  0.00     0.022 A 
HETATM   14  C   UNL     1      29.505  43.667  54.820  1.00  0.00     0.011 A 
HETATM   15 BR   UNL     1      30.675  44.469  56.069  1.00  0.00    -0.051 Br
HETATM   16  C   UNL     1      28.230  44.202  54.628  1.00  0.00     0.030 A 
BRANCH  11  17
HETATM   17  O   UNL     1      26.928  41.926  52.080  1.00  0.00    -0.360 OA
HETATM   18  H   UNL     1      26.489  41.174  52.530  1.00  0.00     0.217 HD
ENDBRANCH  11  17
ENDBRANCH   9  10
ENDBRANCH   4   9
BRANCH   1  19
HETATM   19  C   UNL     1      23.945  47.320  49.391  1.00  0.00     0.147 A 
HETATM   20  N   UNL     1      24.109  48.601  49.788  1.00  0.00    -0.132 NA
HETATM   21  N   UNL     1      23.106  49.532  49.661  1.00  0.00    -0.153 NA
HETATM   22  C   UNL     1      21.917  49.172  49.143  1.00  0.00     0.053 A 
HETATM   23  C   UNL     1      20.845  50.211  49.054  1.00  0.00     0.072 C 
HETATM   24  C   UNL     1      21.702  47.878  48.706  1.00  0.00     0.032 A 
HETATM   25  C   UNL     1      22.730  46.943  48.834  1.00  0.00     0.054 A 
ENDBRANCH   1  19
TORSDOF 4
ENDMDL
MODEL 2
REMARK VINA RESULT:      -7.9      3.602      8.042
REMARK  4 active torsions:
REMARK  status: ('A' for Active; 'I' for Inactive)
REMARK    1  A    between atoms: C_5  and  N_6 
REMARK    2  A    between atoms: N_9  and  C_11 
REMARK    3  A    between atoms: C_11  and  C_12 
REMARK    4  A    between atoms: C_13  and  O_14 
ROOT
HETATM    1  N   UNL     1      26.384  44.683  54.034  1.00  0.00    -0.363 N 
HETATM    2  C   UNL     1      26.201  43.975  52.760  1.00  0.00     0.152 C 
HETATM    3  C   UNL     1      26.735  44.752  51.540  1.00  0.00     0.255 C 
HETATM    4  N   UNL     1      25.812  45.926  51.227  1.00  0.00    -0.066 N 
HETATM    5  H   UNL     1      24.858  45.637  51.508  1.00  0.00     0.280 HD
HETATM    6  C   UNL     1      26.118  47.207  51.941  1.00  0.00     0.237 C 
HETATM    7  C   UNL     1      26.504  47.074  53.410  1.00  0.00     0.047 C 
HETATM    8  C   UNL     1      25.761  45.998  54.197  1.00  0.00     0.126 C 
ENDROOT
BRANCH   4   9
HETATM    9  C   UNL     1      25.647  46.151  49.736  1.00  0.00     0.276 C 
BRANCH   9  10
HETATM   10  C   UNL     1      25.396  47.588  49.355  1.00  0.00     0.002 A 
HETATM   11  C   UNL     1      26.420  48.418  48.873  1.00  0.00     0.073 A 
HETATM   12  C   UNL     1      26.171  49.737  48.499  1.00  0.00     0.038 A 
HETATM   13  C   UNL     1      24.875  50.245  48.590  1.00  0.00     0.022 A 
HETATM   14  C   UNL     1      23.843  49.430  49.049  1.00  0.00     0.011 A 
HETATM   15 BR   UNL     1      22.086  50.116  49.163  1.00  0.00    -0.051 Br
HETATM   16  C   UNL     1      24.094  48.110  49.426  1.00  0.00     0.030 A 
BRANCH  11  17
HETATM   17  O   UNL     1      27.690  47.908  48.798  1.00  0.00    -0.360 OA
HETATM   18  H   UNL     1      28.219  48.514  48.238  1.00  0.00     0.217 HD
ENDBRANCH  11  17
ENDBRANCH   9  10
ENDBRANCH   4   9
BRANCH   1  19
HETATM   19  C   UNL     1      27.648  44.486  54.616  1.00  0.00     0.147 A 
HETATM   20  N   UNL     1      28.107  45.371  55.528  1.00  0.00    -0.132 NA
HETATM   21  N   UNL     1      29.346  45.235  56.109  1.00  0.00    -0.153 NA
HETATM   22  C   UNL     1      30.141  44.205  55.761  1.00  0.00     0.053 A 
HETATM   23  C   UNL     1      31.492  44.115  56.395  1.00  0.00     0.072 C 
HETATM   24  C   UNL     1      29.712  43.262  54.845  1.00  0.00     0.032 A 
HETATM   25  C   UNL     1      28.451  43.408  54.267  1.00  0.00     0.054 A 
ENDBRANCH   1  19
TORSDOF 4
ENDMDL
MODEL 3
REMARK VINA RESULT:      -7.8      4.798      7.267
REMARK  4 active torsions:
REMARK  status: ('A' for Active; 'I' for Inactive)
REMARK    1  A    between atoms: C_5  and  N_6 
REMARK    2  A    between atoms: N_9  and  C_11 
REMARK    3  A    between atoms: C_11  and  C_12 
REMARK    4  A    between atoms: C_13  and  O_14 
ROOT
HETATM    1  N   UNL     1      19.615  49.907  50.089  1.00  0.00    -0.363 N 
HETATM    2  C   UNL     1      20.839  50.686  50.318  1.00  0.00     0.152 C 
HETATM    3  C   UNL     1      21.646  50.959  49.032  1.00  0.00     0.255 C 
HETATM    4  N   UNL     1      22.333  49.678  48.568  1.00  0.00    -0.066 N 
HETATM    5  H   UNL     1      22.541  49.128  49.419  1.00  0.00     0.280 HD
HETATM    6  C   UNL     1      21.531  48.801  47.655  1.00  0.00     0.237 C 
HETATM    7  C   UNL     1      20.058  48.640  48.011  1.00  0.00     0.047 C 
HETATM    8  C   UNL     1      19.738  48.571  49.501  1.00  0.00     0.126 C 
ENDROOT
BRANCH   4   9
HETATM    9  C   UNL     1      23.719  49.935  48.010  1.00  0.00     0.276 C 
BRANCH   9  10
HETATM   10  C   UNL     1      24.815  49.169  48.707  1.00  0.00     0.002 A 
HETATM   11  C   UNL     1      26.170  49.485  48.528  1.00  0.00     0.073 A 
HETATM   12  C   UNL     1      27.174  48.788  49.197  1.00  0.00     0.038 A 
HETATM   13  C   UNL     1      26.829  47.760  50.075  1.00  0.00     0.022 A 
HETATM   14  C   UNL     1      25.488  47.444  50.277  1.00  0.00     0.011 A 
HETATM   15 BR   UNL     1      25.021  46.059  51.475  1.00  0.00    -0.051 Br
HETATM   16  C   UNL     1      24.484  48.143  49.605  1.00  0.00     0.030 A 
BRANCH  11  17
HETATM   17  O   UNL     1      26.495  50.491  47.654  1.00  0.00    -0.360 OA
HETATM   18  H   UNL     1      27.213  50.159  47.076  1.00  0.00     0.217 HD
ENDBRANCH  11  17
ENDBRANCH   9  10
ENDBRANCH   4   9
BRANCH   1  19
HETATM   19  C   UNL     1      18.509  50.686  49.708  1.00  0.00     0.147 A 
HETATM   20  N   UNL     1      17.431  50.087  49.156  1.00  0.00    -0.132 NA
HETATM   21  N   UNL     1      16.334  50.807  48.746  1.00  0.00    -0.153 NA
HETATM   22  C   UNL     1      16.323  52.147  48.877  1.00  0.00     0.053 A 
HETATM   23  C   UNL     1      15.122  52.892  48.388  1.00  0.00     0.072 C 
HETATM   24  C   UNL     1      17.395  52.808  49.450  1.00  0.00     0.032 A 
HETATM   25  C   UNL     1      18.499  52.065  49.868  1.00  0.00     0.054 A 
ENDBRANCH   1  19
TORSDOF 4
ENDMDL
MODEL 4
REMARK VINA RESULT:      -7.6     12.095     14.181
REMARK  4 active torsions:
REMARK  status: ('A' for Active; 'I' for Inactive)
REMARK    1  A    between atoms: C_5  and  N_6 
REMARK    2  A    between atoms: N_9  and  C_11 
REMARK    3  A    between atoms: C_11  and  C_12 
REMARK    4  A    between atoms: C_13  and  O_14 
ROOT
HETATM    1  N   UNL     1      28.967  51.914  41.538  1.00  0.00    -0.363 N 
HETATM    2  C   UNL     1      28.065  50.753  41.536  1.00  0.00     0.152 C 
HETATM    3  C   UNL     1      27.997  50.028  40.178  1.00  0.00     0.255 C 
HETATM    4  N   UNL     1      27.208  50.869  39.178  1.00  0.00    -0.066 N 
HETATM    5  H   UNL     1      26.505  51.397  39.724  1.00  0.00     0.280 HD
HETATM    6  C   UNL     1      28.003  51.867  38.393  1.00  0.00     0.237 C 
HETATM    7  C   UNL     1      29.065  52.633  39.173  1.00  0.00     0.047 C 
HETATM    8  C   UNL     1      28.695  53.009  40.605  1.00  0.00     0.126 C 
ENDROOT
BRANCH   4   9
HETATM    9  C   UNL     1      26.335  50.023  38.272  1.00  0.00     0.276 C 
BRANCH   9  10
HETATM   10  C   UNL     1      25.142  49.411  38.962  1.00  0.00     0.002 A 
HETATM   11  C   UNL     1      23.845  49.914  38.786  1.00  0.00     0.073 A 
HETATM   12  C   UNL     1      22.746  49.325  39.408  1.00  0.00     0.038 A 
HETATM   13  C   UNL     1      22.932  48.202  40.215  1.00  0.00     0.022 A 
HETATM   14  C   UNL     1      24.211  47.678  40.386  1.00  0.00     0.011 A 
HETATM   15 BR   UNL     1      24.462  46.151  41.470  1.00  0.00    -0.051 Br
HETATM   16  C   UNL     1      25.311  48.271  39.763  1.00  0.00     0.030 A 
BRANCH  11  17
HETATM   17  O   UNL     1      23.677  51.024  37.999  1.00  0.00    -0.360 OA
HETATM   18  H   UNL     1      24.063  51.787  38.480  1.00  0.00     0.217 HD
ENDBRANCH  11  17
ENDBRANCH   9  10
ENDBRANCH   4   9
BRANCH   1  19
HETATM   19  C   UNL     1      30.312  51.587  41.783  1.00  0.00     0.147 A 
HETATM   20  N   UNL     1      31.261  52.543  41.673  1.00  0.00    -0.132 NA
HETATM   21  N   UNL     1      32.592  52.268  41.881  1.00  0.00    -0.153 NA
HETATM   22  C   UNL     1      32.979  51.016  42.189  1.00  0.00     0.053 A 
HETATM   23  C   UNL     1      34.440  50.758  42.374  1.00  0.00     0.072 C 
HETATM   24  C   UNL     1      32.047  50.005  42.330  1.00  0.00     0.032 A 
HETATM   25  C   UNL     1      30.698  50.297  42.123  1.00  0.00     0.054 A 
ENDBRANCH   1  19
TORSDOF 4
ENDMDL
MODEL 5
REMARK VINA RESULT:      -7.6      3.317      8.054
REMARK  4 active torsions:
REMARK  status: ('A' for Active; 'I' for Inactive)
REMARK    1  A    between atoms: C_5  and  N_6 
REMARK    2  A    between atoms: N_9  and  C_11 
REMARK    3  A    between atoms: C_11  and  C_12 
REMARK    4  A    between atoms: C_13  and  O_14 
ROOT
HETATM    1  N   UNL     1      26.489  44.205  53.552  1.00  0.00    -0.363 N 
HETATM    2  C   UNL     1      26.552  43.846  52.129  1.00  0.00     0.152 C 
HETATM    3  C   UNL     1      27.034  44.996  51.223  1.00  0.00     0.255 C 
HETATM    4  N   UNL     1      25.939  46.050  51.093  1.00  0.00    -0.066 N 
HETATM    5  H   UNL     1      25.035  45.549  51.165  1.00  0.00     0.280 HD
HETATM    6  C   UNL     1      25.937  47.124  52.138  1.00  0.00     0.237 C 
HETATM    7  C   UNL     1      26.212  46.664  53.565  1.00  0.00     0.047 C 
HETATM    8  C   UNL     1      25.619  45.313  53.953  1.00  0.00     0.126 C 
ENDROOT
BRANCH   4   9
HETATM    9  C   UNL     1      25.864  46.638  49.697  1.00  0.00     0.276 C 
BRANCH   9  10
HETATM   10  C   UNL     1      24.503  47.167  49.324  1.00  0.00     0.002 A 
HETATM   11  C   UNL     1      23.399  46.319  49.153  1.00  0.00     0.073 A 
HETATM   12  C   UNL     1      22.138  46.821  48.833  1.00  0.00     0.038 A 
HETATM   13  C   UNL     1      21.962  48.197  48.691  1.00  0.00     0.022 A 
HETATM   14  C   UNL     1      23.044  49.055  48.874  1.00  0.00     0.011 A 
HETATM   15 BR   UNL     1      22.802  50.921  48.691  1.00  0.00    -0.051 Br
HETATM   16  C   UNL     1      24.306  48.551  49.193  1.00  0.00     0.030 A 
BRANCH  11  17
HETATM   17  O   UNL     1      23.588  44.967  49.286  1.00  0.00    -0.360 OA
HETATM   18  H   UNL     1      24.548  44.816  49.419  1.00  0.00     0.217 HD
ENDBRANCH  11  17
ENDBRANCH   9  10
ENDBRANCH   4   9
BRANCH   1  19
HETATM   19  C   UNL     1      27.712  44.061  54.228  1.00  0.00     0.147 A 
HETATM   20  N   UNL     1      28.119  45.026  55.082  1.00  0.00    -0.132 NA
HETATM   21  N   UNL     1      29.318  44.943  55.750  1.00  0.00    -0.153 NA
HETATM   22  C   UNL     1      30.126  43.885  55.550  1.00  0.00     0.053 A 
HETATM   23  C   UNL     1      31.434  43.853  56.274  1.00  0.00     0.072 C 
HETATM   24  C   UNL     1      29.750  42.862  54.699  1.00  0.00     0.032 A 
HETATM   25  C   UNL     1      28.528  42.955  54.032  1.00  0.00     0.054 A 
ENDBRANCH   1  19
TORSDOF 4
ENDMDL
MODEL 6
REMARK VINA RESULT:      -7.4     12.045     14.276
REMARK  4 active torsions:
REMARK  status: ('A' for Active; 'I' for Inactive)
REMARK    1  A    between atoms: C_5  and  N_6 
REMARK    2  A    between atoms: N_9  and  C_11 
REMARK    3  A    between atoms: C_11  and  C_12 
REMARK    4  A    between atoms: C_13  and  O_14 
ROOT
HETATM    1  N   UNL     1      31.667  51.069  42.866  1.00  0.00    -0.363 N 
HETATM    2  C   UNL     1      30.939  49.939  42.272  1.00  0.00     0.152 C 
HETATM    3  C   UNL     1      30.590  50.143  40.785  1.00  0.00     0.255 C 
HETATM    4  N   UNL     1      29.469  51.170  40.649  1.00  0.00    -0.066 N 
HETATM    5  H   UNL     1      28.884  51.083  41.499  1.00  0.00     0.280 HD
HETATM    6  C   UNL     1      29.903  52.601  40.551  1.00  0.00     0.237 C 
HETATM    7  C   UNL     1      31.040  53.017  41.477  1.00  0.00     0.047 C 
HETATM    8  C   UNL     1      31.029  52.387  42.866  1.00  0.00     0.126 C 
ENDROOT
BRANCH   4   9
HETATM    9  C   UNL     1      28.488  50.813  39.550  1.00  0.00     0.276 C 
BRANCH   9  10
HETATM   10  C   UNL     1      27.921  49.420  39.658  1.00  0.00     0.002 A 
HETATM   11  C   UNL     1      27.280  48.969  40.821  1.00  0.00     0.073 A 
HETATM   12  C   UNL     1      26.737  47.688  40.902  1.00  0.00     0.038 A 
HETATM   13  C   UNL     1      26.819  46.835  39.800  1.00  0.00     0.022 A 
HETATM   14  C   UNL     1      27.437  47.274  38.632  1.00  0.00     0.011 A 
HETATM   15 BR   UNL     1      27.538  46.123  37.136  1.00  0.00    -0.051 Br
HETATM   16  C   UNL     1      27.981  48.557  38.553  1.00  0.00     0.030 A 
BRANCH  11  17
HETATM   17  O   UNL     1      27.216  49.813  41.900  1.00  0.00    -0.360 OA
HETATM   18  H   UNL     1      27.972  50.433  41.834  1.00  0.00     0.217 HD
ENDBRANCH  11  17
ENDBRANCH   9  10
ENDBRANCH   4   9
BRANCH   1  19
HETATM   19  C   UNL     1      33.057  51.018  42.660  1.00  0.00     0.147 A 
HETATM   20  N   UNL     1      33.852  51.933  43.258  1.00  0.00    -0.132 NA
HETATM   21  N   UNL     1      35.214  51.940  43.071  1.00  0.00    -0.153 NA
HETATM   22  C   UNL     1      35.786  51.028  42.262  1.00  0.00     0.053 A 
HETATM   23  C   UNL     1      37.266  51.094  42.063  1.00  0.00     0.072 C 
HETATM   24  C   UNL     1      35.019  50.060  41.639  1.00  0.00     0.032 A 
HETATM   25  C   UNL     1      33.638  50.059  41.842  1.00  0.00     0.054 A 
ENDBRANCH   1  19
TORSDOF 4
ENDMDL
MODEL 7
REMARK VINA RESULT:      -7.2      3.579      7.982
REMARK  4 active torsions:
REMARK  status: ('A' for Active; 'I' for Inactive)
REMARK    1  A    between atoms: C_5  and  N_6 
REMARK    2  A    between atoms: N_9  and  C_11 
REMARK    3  A    between atoms: C_11  and  C_12 
REMARK    4  A    between atoms: C_13  and  O_14 
ROOT
HETATM    1  N   UNL     1      25.747  45.453  53.584  1.00  0.00    -0.363 N 
HETATM    2  C   UNL     1      25.065  44.411  52.803  1.00  0.00     0.152 C 
HETATM    3  C   UNL     1      25.472  44.389  51.316  1.00  0.00     0.255 C 
HETATM    4  N   UNL     1      24.861  45.585  50.591  1.00  0.00    -0.066 N 
HETATM    5  H   UNL     1      23.966  45.794  51.068  1.00  0.00     0.280 HD
HETATM    6  C   UNL     1      25.676  46.842  50.603  1.00  0.00     0.237 C 
HETATM    7  C   UNL     1      26.363  47.179  51.921  1.00  0.00     0.047 C 
HETATM    8  C   UNL     1      25.571  46.851  53.184  1.00  0.00     0.126 C 
ENDROOT
BRANCH   4   9
HETATM    9  C   UNL     1      24.400  45.238  49.189  1.00  0.00     0.276 C 
BRANCH   9  10
HETATM   10  C   UNL     1      22.986  45.662  48.883  1.00  0.00     0.002 A 
HETATM   11  C   UNL     1      21.913  44.760  48.939  1.00  0.00     0.073 A 
HETATM   12  C   UNL     1      20.606  45.168  48.680  1.00  0.00     0.038 A 
HETATM   13  C   UNL     1      20.351  46.504  48.370  1.00  0.00     0.022 A 
HETATM   14  C   UNL     1      21.403  47.417  48.327  1.00  0.00     0.011 A 
HETATM   15 BR   UNL     1      21.056  49.229  47.917  1.00  0.00    -0.051 Br
HETATM   16  C   UNL     1      22.712  47.006  48.586  1.00  0.00     0.030 A 
BRANCH  11  17
HETATM   17  O   UNL     1      22.179  43.448  49.235  1.00  0.00    -0.360 OA
HETATM   18  H   UNL     1      22.995  43.196  48.754  1.00  0.00     0.217 HD
ENDBRANCH  11  17
ENDBRANCH   9  10
ENDBRANCH   4   9
BRANCH   1  19
HETATM   19  C   UNL     1      27.010  45.067  54.062  1.00  0.00     0.147 A 
HETATM   20  N   UNL     1      27.478  43.830  53.786  1.00  0.00    -0.132 NA
HETATM   21  N   UNL     1      28.697  43.396  54.250  1.00  0.00    -0.153 NA
HETATM   22  C   UNL     1      29.453  44.208  55.013  1.00  0.00     0.053 A 
HETATM   23  C   UNL     1      30.757  43.683  55.522  1.00  0.00     0.072 C 
HETATM   24  C   UNL     1      29.028  45.490  55.313  1.00  0.00     0.032 A 
HETATM   25  C   UNL     1      27.791  45.920  54.831  1.00  0.00     0.054 A 
ENDBRANCH   1  19
TORSDOF 4
ENDMDL
MODEL 8
REMARK VINA RESULT:      -7.2      3.672      7.867
REMARK  4 active torsions:
REMARK  status: ('A' for Active; 'I' for Inactive)
REMARK    1  A    between atoms: C_5  and  N_6 
REMARK    2  A    between atoms: N_9  and  C_11 
REMARK    3  A    between atoms: C_11  and  C_12 
REMARK    4  A    between atoms: C_13  and  O_14 
ROOT
HETATM    1  N   UNL     1      26.454  44.825  54.116  1.00  0.00    -0.363 N 
HETATM    2  C   UNL     1      26.263  43.972  52.935  1.00  0.00     0.152 C 
HETATM    3  C   UNL     1      26.772  44.609  51.626  1.00  0.00     0.255 C 
HETATM    4  N   UNL     1      25.830  45.728  51.192  1.00  0.00    -0.066 N 
HETATM    5  H   UNL     1      24.884  45.464  51.519  1.00  0.00     0.280 HD
HETATM    6  C   UNL     1      26.130  47.087  51.750  1.00  0.00     0.237 C 
HETATM    7  C   UNL     1      26.536  47.129  53.218  1.00  0.00     0.047 C 
HETATM    8  C   UNL     1      25.816  46.144  54.135  1.00  0.00     0.126 C 
ENDROOT
BRANCH   4   9
HETATM    9  C   UNL     1      25.644  45.777  49.688  1.00  0.00     0.276 C 
BRANCH   9  10
HETATM   10  C   UNL     1      24.368  45.136  49.205  1.00  0.00     0.002 A 
HETATM   11  C   UNL     1      23.160  45.847  49.138  1.00  0.00     0.073 A 
HETATM   12  C   UNL     1      21.992  45.252  48.665  1.00  0.00     0.038 A 
HETATM   13  C   UNL     1      22.020  43.926  48.235  1.00  0.00     0.022 A 
HETATM   14  C   UNL     1      23.215  43.210  48.279  1.00  0.00     0.011 A 
HETATM   15 BR   UNL     1      23.256  41.416  47.687  1.00  0.00    -0.051 Br
HETATM   16  C   UNL     1      24.384  43.807  48.754  1.00  0.00     0.030 A 
BRANCH  11  17
HETATM   17  O   UNL     1      23.144  47.147  49.573  1.00  0.00    -0.360 OA
HETATM   18  H   UNL     1      23.341  47.719  48.801  1.00  0.00     0.217 HD
ENDBRANCH  11  17
ENDBRANCH   9  10
ENDBRANCH   4   9
BRANCH   1  19
HETATM   19  C   UNL     1      27.727  44.710  54.699  1.00  0.00     0.147 A 
HETATM   20  N   UNL     1      28.477  43.614  54.451  1.00  0.00    -0.132 NA
HETATM   21  N   UNL     1      29.720  43.444  55.014  1.00  0.00    -0.153 NA
HETATM   22  C   UNL     1      30.211  44.377  55.850  1.00  0.00     0.053 A 
HETATM   23  C   UNL     1      31.553  44.134  56.465  1.00  0.00     0.072 C 
HETATM   24  C   UNL     1      29.492  45.526  56.126  1.00  0.00     0.032 A 
HETATM   25  C   UNL     1      28.235  45.690  55.542  1.00  0.00     0.054 A 
ENDBRANCH   1  19
TORSDOF 4
ENDMDL
MODEL 9
REMARK VINA RESULT:      -7.2     12.233     14.203
REMARK  4 active torsions:
REMARK  status: ('A' for Active; 'I' for Inactive)
REMARK    1  A    between atoms: C_5  and  N_6 
REMARK    2  A    between atoms: N_9  and  C_11 
REMARK    3  A    between atoms: C_11  and  C_12 
REMARK    4  A    between atoms: C_13  and  O_14 
ROOT
HETATM    1  N   UNL     1      28.933  51.556  41.637  1.00  0.00    -0.363 N 
HETATM    2  C   UNL     1      28.223  50.292  41.394  1.00  0.00     0.152 C 
HETATM    3  C   UNL     1      28.325  49.799  39.937  1.00  0.00     0.255 C 
HETATM    4  N   UNL     1      27.458  50.668  39.031  1.00  0.00    -0.066 N 
HETATM    5  H   UNL     1      26.659  50.990  39.605  1.00  0.00     0.280 HD
HETATM    6  C   UNL     1      28.121  51.887  38.466  1.00  0.00     0.237 C 
HETATM    7  C   UNL     1      29.017  52.662  39.425  1.00  0.00     0.047 C 
HETATM    8  C   UNL     1      28.533  52.739  40.871  1.00  0.00     0.126 C 
ENDROOT
BRANCH   4   9
HETATM    9  C   UNL     1      26.766  49.864  37.948  1.00  0.00     0.276 C 
BRANCH   9  10
HETATM   10  C   UNL     1      25.882  48.759  38.470  1.00  0.00     0.002 A 
HETATM   11  C   UNL     1      24.751  49.024  39.256  1.00  0.00     0.073 A 
HETATM   12  C   UNL     1      23.926  47.998  39.711  1.00  0.00     0.038 A 
HETATM   13  C   UNL     1      24.219  46.677  39.372  1.00  0.00     0.022 A 
HETATM   14  C   UNL     1      25.329  46.398  38.578  1.00  0.00     0.011 A 
HETATM   15 BR   UNL     1      25.721  44.610  38.109  1.00  0.00    -0.051 Br
HETATM   16  C   UNL     1      26.156  47.427  38.123  1.00  0.00     0.030 A 
BRANCH  11  17
HETATM   17  O   UNL     1      24.480  50.326  39.591  1.00  0.00    -0.360 OA
HETATM   18  H   UNL     1      24.313  50.353  40.556  1.00  0.00     0.217 HD
ENDBRANCH  11  17
ENDBRANCH   9  10
ENDBRANCH   4   9
BRANCH   1  19
HETATM   19  C   UNL     1      30.300  51.394  41.917  1.00  0.00     0.147 A 
HETATM   20  N   UNL     1      31.127  52.461  41.844  1.00  0.00    -0.132 NA
HETATM   21  N   UNL     1      32.475  52.350  42.087  1.00  0.00    -0.153 NA
HETATM   22  C   UNL     1      33.006  51.151  42.393  1.00  0.00     0.053 A 
HETATM   23  C   UNL     1      34.482  51.072  42.617  1.00  0.00     0.072 C 
HETATM   24  C   UNL     1      32.202  50.030  42.496  1.00  0.00     0.032 A 
HETATM   25  C   UNL     1      30.834  50.157  42.253  1.00  0.00     0.054 A 
ENDBRANCH   1  19
TORSDOF 4
ENDMDL
MODEL 10
REMARK VINA RESULT:      -7.1      3.346      7.121
REMARK  4 active torsions:
REMARK  status: ('A' for Active; 'I' for Inactive)
REMARK    1  A    between atoms: C_5  and  N_6 
REMARK    2  A    between atoms: N_9  and  C_11 
REMARK    3  A    between atoms: C_11  and  C_12 
REMARK    4  A    between atoms: C_13  and  O_14 
ROOT
HETATM    1  N   UNL     1      26.073  45.435  54.451  1.00  0.00    -0.363 N 
HETATM    2  C   UNL     1      25.355  44.463  53.615  1.00  0.00     0.152 C 
HETATM    3  C   UNL     1      25.679  44.584  52.112  1.00  0.00     0.255 C 
HETATM    4  N   UNL     1      25.022  45.835  51.537  1.00  0.00    -0.066 N 
HETATM    5  H   UNL     1      24.154  45.990  52.079  1.00  0.00     0.280 HD
HETATM    6  C   UNL     1      25.830  47.095  51.621  1.00  0.00     0.237 C 
HETATM    7  C   UNL     1      26.586  47.314  52.926  1.00  0.00     0.047 C 
HETATM    8  C   UNL     1      25.868  46.862  54.194  1.00  0.00     0.126 C 
ENDROOT
BRANCH   4   9
HETATM    9  C   UNL     1      24.486  45.616  50.136  1.00  0.00     0.276 C 
BRANCH   9  10
HETATM   10  C   UNL     1      24.376  44.165  49.739  1.00  0.00     0.002 A 
HETATM   11  C   UNL     1      23.176  43.450  49.869  1.00  0.00     0.073 A 
HETATM   12  C   UNL     1      23.077  42.117  49.475  1.00  0.00     0.038 A 
HETATM   13  C   UNL     1      24.190  41.478  48.927  1.00  0.00     0.022 A 
HETATM   14  C   UNL     1      25.384  42.177  48.776  1.00  0.00     0.011 A 
HETATM   15 BR   UNL     1      26.888  41.314  48.025  1.00  0.00    -0.051 Br
HETATM   16  C   UNL     1      25.482  43.513  49.172  1.00  0.00     0.030 A 
BRANCH  11  17
HETATM   17  O   UNL     1      22.093  44.088  50.418  1.00  0.00    -0.360 OA
HETATM   18  H   UNL     1      21.287  43.633  50.094  1.00  0.00     0.217 HD
ENDBRANCH  11  17
ENDBRANCH   9  10
ENDBRANCH   4   9
BRANCH   1  19
HETATM   19  C   UNL     1      27.364  45.019  54.821  1.00  0.00     0.147 A 
HETATM   20  N   UNL     1      28.087  45.776  55.676  1.00  0.00    -0.132 NA
HETATM   21  N   UNL     1      29.362  45.424  56.052  1.00  0.00    -0.153 NA
HETATM   22  C   UNL     1      29.926  44.308  55.553  1.00  0.00     0.053 A 
HETATM   23  C   UNL     1      31.326  43.983  55.965  1.00  0.00     0.072 C 
HETATM   24  C   UNL     1      29.223  43.490  54.688  1.00  0.00     0.032 A 
HETATM   25  C   UNL     1      27.927  43.854  54.319  1.00  0.00     0.054 A 
ENDBRANCH   1  19
TORSDOF 4
ENDMDL
