MODEL 1
REMARK VINA RESULT:      -9.6      0.000      0.000
REMARK  10 active torsions:
REMARK  status: ('A' for Active; 'I' for Inactive)
REMARK    1  A    between atoms: C_2  and  C_3 
REMARK    2  A    between atoms: C_3  and  C_4 
REMARK    3  A    between atoms: C_4  and  O_5 
REMARK    4  A    between atoms: O_5  and  C_6 
REMARK    5  A    between atoms: C_9  and  C_10 
REMARK       I    between atoms: C_10  and  N_11 
REMARK    6  A    between atoms: N_11  and  C_12 
REMARK    7  A    between atoms: C_12  and  N_13 
REMARK    8  A    between atoms: N_13  and  C_14 
REMARK    9  A    between atoms: C_16  and  O_17 
REMARK   10  A    between atoms: C_18  and  C_19 
ROOT
HETATM    1  N   UNL     1      24.041  45.956  49.024  1.00  0.00    -0.333 N 
HETATM    2  H   UNL     1      24.469  45.625  48.167  1.00  0.00     0.168 HD
ENDROOT
BRANCH   1   3
HETATM    3  C   UNL     1      22.706  46.139  48.912  1.00  0.00     0.179 C 
HETATM    4  S   UNL     1      21.770  44.896  48.294  1.00  0.00    -0.040 SA
BRANCH   3   5
HETATM    5  N   UNL     1      22.084  47.302  49.239  1.00  0.00    -0.299 N 
HETATM    6  C   UNL     1      22.198  48.535  48.600  1.00  0.00     0.257 C 
HETATM    7  O   UNL     1      23.101  48.871  47.844  1.00  0.00    -0.267 OA
HETATM    8  H   UNL     1      21.218  47.130  49.726  1.00  0.00     0.171 HD
BRANCH   6   9
HETATM    9  C   UNL     1      21.126  49.527  48.922  1.00  0.00     0.032 A 
HETATM   10  C   UNL     1      21.136  50.752  48.242  1.00  0.00     0.020 A 
HETATM   11  C   UNL     1      20.176  51.729  48.523  1.00  0.00     0.038 A 
HETATM   12  C   UNL     1      19.187  51.474  49.471  1.00  0.00     0.068 A 
HETATM   13  C   UNL     1      19.164  50.258  50.149  1.00  0.00     0.038 A 
HETATM   14  C   UNL     1      20.119  49.275  49.864  1.00  0.00     0.020 A 
BRANCH  12  15
HETATM   15  O   UNL     1      18.268  52.411  49.852  1.00  0.00    -0.351 OA
BRANCH  15  16
HETATM   16  C   UNL     1      16.925  51.916  49.858  1.00  0.00     0.175 C 
BRANCH  16  17
HETATM   17  C   UNL     1      16.388  51.951  48.428  1.00  0.00     0.026 C 
BRANCH  17  18
HETATM   18  C   UNL     1      15.776  50.610  48.014  1.00  0.00    -0.002 C 
HETATM   19  C   UNL     1      16.780  49.742  47.272  1.00  0.00     0.005 C 
ENDBRANCH  17  18
ENDBRANCH  16  17
ENDBRANCH  15  16
ENDBRANCH  12  15
ENDBRANCH   6   9
ENDBRANCH   3   5
ENDBRANCH   1   3
BRANCH   1  20
HETATM   20  C   UNL     1      24.825  45.747  50.183  1.00  0.00     0.036 A 
HETATM   21  C   UNL     1      24.762  46.731  51.177  1.00  0.00     0.067 A 
HETATM   22  C   UNL     1      25.591  46.665  52.306  1.00  0.00     0.082 A 
HETATM   23  C   UNL     1      26.503  45.616  52.474  1.00  0.00     0.050 A 
HETATM   24  C   UNL     1      26.548  44.631  51.472  1.00  0.00     0.021 A 
HETATM   25  C   UNL     1      25.724  44.695  50.339  1.00  0.00     0.030 A 
BRANCH  22  26
HETATM   26  O   UNL     1      25.516  47.679  53.226  1.00  0.00    -0.360 OA
HETATM   27  H   UNL     1      25.117  47.350  54.047  1.00  0.00     0.217 HD
ENDBRANCH  22  26
BRANCH  23  28
HETATM   28  C   UNL     1      27.441  45.502  53.595  1.00  0.00     0.183 A 
HETATM   29  O   UNL     1      28.366  44.488  53.556  1.00  0.00    -0.289 OA
HETATM   30  C   UNL     1      29.059  44.620  54.722  1.00  0.00     0.107 A 
HETATM   31  C   UNL     1      28.542  45.710  55.399  1.00  0.00     0.093 A 
HETATM   32  C   UNL     1      30.098  43.819  55.179  1.00  0.00     0.046 A 
HETATM   33  N   UNL     1      27.526  46.273  54.670  1.00  0.00    -0.221 NA
HETATM   34  C   UNL     1      29.083  46.049  56.645  1.00  0.00     0.035 A 
HETATM   35  C   UNL     1      30.133  45.263  57.148  1.00  0.00     0.009 A 
HETATM   36  C   UNL     1      30.646  44.170  56.426  1.00  0.00    -0.059 A 
HETATM   37  C   UNL     1      31.749  43.337  57.020  1.00  0.00     0.048 C 
ENDBRANCH  23  28
ENDBRANCH   1  20
TORSDOF 10
ENDMDL
MODEL 2
REMARK VINA RESULT:      -9.4      1.191      1.852
REMARK  10 active torsions:
REMARK  status: ('A' for Active; 'I' for Inactive)
REMARK    1  A    between atoms: C_2  and  C_3 
REMARK    2  A    between atoms: C_3  and  C_4 
REMARK    3  A    between atoms: C_4  and  O_5 
REMARK    4  A    between atoms: O_5  and  C_6 
REMARK    5  A    between atoms: C_9  and  C_10 
REMARK       I    between atoms: C_10  and  N_11 
REMARK    6  A    between atoms: N_11  and  C_12 
REMARK    7  A    between atoms: C_12  and  N_13 
REMARK    8  A    between atoms: N_13  and  C_14 
REMARK    9  A    between atoms: C_16  and  O_17 
REMARK   10  A    between atoms: C_18  and  C_19 
ROOT
HETATM    1  N   UNL     1      23.261  46.895  48.798  1.00  0.00    -0.333 N 
HETATM    2  H   UNL     1      23.641  47.063  47.873  1.00  0.00     0.168 HD
ENDROOT
BRANCH   1   3
HETATM    3  C   UNL     1      21.910  46.912  48.826  1.00  0.00     0.179 C 
HETATM    4  S   UNL     1      21.075  45.545  48.337  1.00  0.00    -0.040 SA
BRANCH   3   5
HETATM    5  N   UNL     1      21.186  48.000  49.196  1.00  0.00    -0.299 N 
HETATM    6  C   UNL     1      21.571  49.338  49.132  1.00  0.00     0.257 C 
HETATM    7  O   UNL     1      22.721  49.750  49.036  1.00  0.00    -0.267 OA
HETATM    8  H   UNL     1      20.196  47.818  49.143  1.00  0.00     0.171 HD
BRANCH   6   9
HETATM    9  C   UNL     1      20.459  50.332  49.234  1.00  0.00     0.032 A 
HETATM   10  C   UNL     1      19.447  50.093  50.175  1.00  0.00     0.020 A 
HETATM   11  C   UNL     1      18.367  50.973  50.295  1.00  0.00     0.038 A 
HETATM   12  C   UNL     1      18.306  52.108  49.488  1.00  0.00     0.068 A 
HETATM   13  C   UNL     1      19.309  52.358  48.554  1.00  0.00     0.038 A 
HETATM   14  C   UNL     1      20.395  51.484  48.438  1.00  0.00     0.020 A 
BRANCH  12  15
HETATM   15  O   UNL     1      17.242  52.966  49.496  1.00  0.00    -0.351 OA
BRANCH  15  16
HETATM   16  C   UNL     1      15.978  52.297  49.439  1.00  0.00     0.175 C 
BRANCH  16  17
HETATM   17  C   UNL     1      15.739  51.832  48.002  1.00  0.00     0.026 C 
BRANCH  17  18
HETATM   18  C   UNL     1      15.664  50.306  47.900  1.00  0.00    -0.002 C 
HETATM   19  C   UNL     1      16.336  49.795  46.635  1.00  0.00     0.005 C 
ENDBRANCH  17  18
ENDBRANCH  16  17
ENDBRANCH  15  16
ENDBRANCH  12  15
ENDBRANCH   6   9
ENDBRANCH   3   5
ENDBRANCH   1   3
BRANCH   1  20
HETATM   20  C   UNL     1      24.173  46.294  49.698  1.00  0.00     0.036 A 
HETATM   21  C   UNL     1      24.695  47.108  50.709  1.00  0.00     0.067 A 
HETATM   22  C   UNL     1      25.689  46.630  51.575  1.00  0.00     0.082 A 
HETATM   23  C   UNL     1      26.188  45.326  51.455  1.00  0.00     0.050 A 
HETATM   24  C   UNL     1      25.646  44.518  50.440  1.00  0.00     0.021 A 
HETATM   25  C   UNL     1      24.655  44.994  49.569  1.00  0.00     0.030 A 
BRANCH  22  26
HETATM   26  O   UNL     1      26.195  47.486  52.519  1.00  0.00    -0.360 OA
HETATM   27  H   UNL     1      27.105  47.232  52.741  1.00  0.00     0.217 HD
ENDBRANCH  22  26
BRANCH  23  28
HETATM   28  C   UNL     1      27.262  44.769  52.281  1.00  0.00     0.183 A 
HETATM   29  O   UNL     1      27.487  45.339  53.510  1.00  0.00    -0.289 OA
HETATM   30  C   UNL     1      28.540  44.640  54.018  1.00  0.00     0.107 A 
HETATM   31  C   UNL     1      28.892  43.674  53.092  1.00  0.00     0.093 A 
HETATM   32  C   UNL     1      29.175  44.841  55.238  1.00  0.00     0.046 A 
HETATM   33  N   UNL     1      28.065  43.752  52.000  1.00  0.00    -0.221 NA
HETATM   34  C   UNL     1      29.968  42.826  53.377  1.00  0.00     0.035 A 
HETATM   35  C   UNL     1      30.641  42.996  54.598  1.00  0.00     0.009 A 
HETATM   36  C   UNL     1      30.248  43.979  55.525  1.00  0.00    -0.059 A 
HETATM   37  C   UNL     1      31.020  44.146  56.805  1.00  0.00     0.048 C 
ENDBRANCH  23  28
ENDBRANCH   1  20
TORSDOF 10
ENDMDL
MODEL 3
REMARK VINA RESULT:      -9.3      1.612      2.085
REMARK  10 active torsions:
REMARK  status: ('A' for Active; 'I' for Inactive)
REMARK    1  A    between atoms: C_2  and  C_3 
REMARK    2  A    between atoms: C_3  and  C_4 
REMARK    3  A    between atoms: C_4  and  O_5 
REMARK    4  A    between atoms: O_5  and  C_6 
REMARK    5  A    between atoms: C_9  and  C_10 
REMARK       I    between atoms: C_10  and  N_11 
REMARK    6  A    between atoms: N_11  and  C_12 
REMARK    7  A    between atoms: C_12  and  N_13 
REMARK    8  A    between atoms: N_13  and  C_14 
REMARK    9  A    between atoms: C_16  and  O_17 
REMARK   10  A    between atoms: C_18  and  C_19 
ROOT
HETATM    1  N   UNL     1      24.331  44.881  48.766  1.00  0.00    -0.333 N 
HETATM    2  H   UNL     1      24.613  44.512  47.865  1.00  0.00     0.168 HD
ENDROOT
BRANCH   1   3
HETATM    3  C   UNL     1      23.005  45.131  48.844  1.00  0.00     0.179 C 
HETATM    4  S   UNL     1      21.933  43.854  48.688  1.00  0.00    -0.040 SA
BRANCH   3   5
HETATM    5  N   UNL     1      22.490  46.377  49.005  1.00  0.00    -0.299 N 
HETATM    6  C   UNL     1      23.184  47.585  49.041  1.00  0.00     0.257 C 
HETATM    7  O   UNL     1      24.384  47.717  49.253  1.00  0.00    -0.267 OA
HETATM    8  H   UNL     1      21.533  46.423  48.692  1.00  0.00     0.171 HD
BRANCH   6   9
HETATM    9  C   UNL     1      22.352  48.811  48.842  1.00  0.00     0.032 A 
HETATM   10  C   UNL     1      22.959  50.059  49.036  1.00  0.00     0.020 A 
HETATM   11  C   UNL     1      22.222  51.239  48.891  1.00  0.00     0.038 A 
HETATM   12  C   UNL     1      20.877  51.174  48.530  1.00  0.00     0.068 A 
HETATM   13  C   UNL     1      20.265  49.939  48.329  1.00  0.00     0.038 A 
HETATM   14  C   UNL     1      21.002  48.758  48.465  1.00  0.00     0.020 A 
BRANCH  12  15
HETATM   15  O   UNL     1      20.079  52.280  48.450  1.00  0.00    -0.351 OA
BRANCH  15  16
HETATM   16  C   UNL     1      18.706  51.968  48.189  1.00  0.00     0.175 C 
BRANCH  16  17
HETATM   17  C   UNL     1      17.839  52.694  49.218  1.00  0.00     0.026 C 
BRANCH  17  18
HETATM   18  C   UNL     1      16.798  51.764  49.846  1.00  0.00    -0.002 C 
HETATM   19  C   UNL     1      15.399  52.058  49.328  1.00  0.00     0.005 C 
ENDBRANCH  17  18
ENDBRANCH  16  17
ENDBRANCH  15  16
ENDBRANCH  12  15
ENDBRANCH   6   9
ENDBRANCH   3   5
ENDBRANCH   1   3
BRANCH   1  20
HETATM   20  C   UNL     1      25.267  44.656  49.803  1.00  0.00     0.036 A 
HETATM   21  C   UNL     1      24.751  44.320  51.060  1.00  0.00     0.067 A 
HETATM   22  C   UNL     1      25.595  44.191  52.173  1.00  0.00     0.082 A 
HETATM   23  C   UNL     1      26.977  44.393  52.060  1.00  0.00     0.050 A 
HETATM   24  C   UNL     1      27.481  44.721  50.789  1.00  0.00     0.021 A 
HETATM   25  C   UNL     1      26.639  44.855  49.675  1.00  0.00     0.030 A 
BRANCH  22  26
HETATM   26  O   UNL     1      25.030  43.903  53.387  1.00  0.00    -0.360 OA
HETATM   27  H   UNL     1      24.187  43.439  53.257  1.00  0.00     0.217 HD
ENDBRANCH  22  26
BRANCH  23  28
HETATM   28  C   UNL     1      27.920  44.332  53.180  1.00  0.00     0.183 A 
HETATM   29  O   UNL     1      27.797  45.273  54.173  1.00  0.00    -0.289 OA
HETATM   30  C   UNL     1      28.807  44.981  55.040  1.00  0.00     0.107 A 
HETATM   31  C   UNL     1      29.478  43.875  54.549  1.00  0.00     0.093 A 
HETATM   32  C   UNL     1      29.134  45.656  56.210  1.00  0.00     0.046 A 
HETATM   33  N   UNL     1      28.898  43.460  53.377  1.00  0.00    -0.221 NA
HETATM   34  C   UNL     1      30.578  43.383  55.261  1.00  0.00     0.035 A 
HETATM   35  C   UNL     1      30.946  44.037  56.447  1.00  0.00     0.009 A 
HETATM   36  C   UNL     1      30.232  45.151  56.928  1.00  0.00    -0.059 A 
HETATM   37  C   UNL     1      30.685  45.839  58.186  1.00  0.00     0.048 C 
ENDBRANCH  23  28
ENDBRANCH   1  20
TORSDOF 10
ENDMDL
MODEL 4
REMARK VINA RESULT:      -9.3      1.677      2.343
REMARK  10 active torsions:
REMARK  status: ('A' for Active; 'I' for Inactive)
REMARK    1  A    between atoms: C_2  and  C_3 
REMARK    2  A    between atoms: C_3  and  C_4 
REMARK    3  A    between atoms: C_4  and  O_5 
REMARK    4  A    between atoms: O_5  and  C_6 
REMARK    5  A    between atoms: C_9  and  C_10 
REMARK       I    between atoms: C_10  and  N_11 
REMARK    6  A    between atoms: N_11  and  C_12 
REMARK    7  A    between atoms: C_12  and  N_13 
REMARK    8  A    between atoms: N_13  and  C_14 
REMARK    9  A    between atoms: C_16  and  O_17 
REMARK   10  A    between atoms: C_18  and  C_19 
ROOT
HETATM    1  N   UNL     1      24.169  47.259  49.745  1.00  0.00    -0.333 N 
HETATM    2  H   UNL     1      23.297  46.771  49.576  1.00  0.00     0.168 HD
ENDROOT
BRANCH   1   3
HETATM    3  C   UNL     1      24.133  48.556  49.366  1.00  0.00     0.179 C 
HETATM    4  S   UNL     1      25.508  49.240  48.698  1.00  0.00    -0.040 SA
BRANCH   3   5
HETATM    5  N   UNL     1      23.045  49.351  49.535  1.00  0.00    -0.299 N 
HETATM    6  C   UNL     1      22.272  49.956  48.546  1.00  0.00     0.257 C 
HETATM    7  O   UNL     1      22.612  50.142  47.384  1.00  0.00    -0.267 OA
HETATM    8  H   UNL     1      22.578  49.154  50.407  1.00  0.00     0.171 HD
BRANCH   6   9
HETATM    9  C   UNL     1      20.931  50.446  48.989  1.00  0.00     0.032 A 
HETATM   10  C   UNL     1      20.219  49.670  49.914  1.00  0.00     0.020 A 
HETATM   11  C   UNL     1      18.947  50.064  50.343  1.00  0.00     0.038 A 
HETATM   12  C   UNL     1      18.392  51.249  49.863  1.00  0.00     0.068 A 
HETATM   13  C   UNL     1      19.093  52.030  48.948  1.00  0.00     0.038 A 
HETATM   14  C   UNL     1      20.368  51.643  48.523  1.00  0.00     0.020 A 
BRANCH  12  15
HETATM   15  O   UNL     1      17.124  51.652  50.177  1.00  0.00    -0.351 OA
BRANCH  15  16
HETATM   16  C   UNL     1      16.222  51.593  49.067  1.00  0.00     0.175 C 
BRANCH  16  17
HETATM   17  C   UNL     1      15.275  52.791  49.147  1.00  0.00     0.026 C 
BRANCH  17  18
HETATM   18  C   UNL     1      15.647  53.738  50.291  1.00  0.00    -0.002 C 
HETATM   19  C   UNL     1      14.467  53.991  51.216  1.00  0.00     0.005 C 
ENDBRANCH  17  18
ENDBRANCH  16  17
ENDBRANCH  15  16
ENDBRANCH  12  15
ENDBRANCH   6   9
ENDBRANCH   3   5
ENDBRANCH   1   3
BRANCH   1  20
HETATM   20  C   UNL     1      25.021  46.618  50.676  1.00  0.00     0.036 A 
HETATM   21  C   UNL     1      25.027  47.122  51.981  1.00  0.00     0.067 A 
HETATM   22  C   UNL     1      25.922  46.624  52.940  1.00  0.00     0.082 A 
HETATM   23  C   UNL     1      26.834  45.609  52.620  1.00  0.00     0.050 A 
HETATM   24  C   UNL     1      26.808  45.107  51.308  1.00  0.00     0.021 A 
HETATM   25  C   UNL     1      25.918  45.605  50.345  1.00  0.00     0.030 A 
BRANCH  22  26
HETATM   26  O   UNL     1      25.912  47.185  54.190  1.00  0.00    -0.360 OA
HETATM   27  H   UNL     1      26.801  47.142  54.578  1.00  0.00     0.217 HD
ENDBRANCH  22  26
BRANCH  23  28
HETATM   28  C   UNL     1      27.836  45.073  53.545  1.00  0.00     0.183 A 
HETATM   29  O   UNL     1      28.140  45.814  54.661  1.00  0.00    -0.289 OA
HETATM   30  C   UNL     1      29.102  45.087  55.295  1.00  0.00     0.107 A 
HETATM   31  C   UNL     1      29.322  43.940  54.554  1.00  0.00     0.093 A 
HETATM   32  C   UNL     1      29.766  45.414  56.471  1.00  0.00     0.046 A 
HETATM   33  N   UNL     1      28.503  43.931  53.454  1.00  0.00    -0.221 NA
HETATM   34  C   UNL     1      30.285  43.026  54.996  1.00  0.00     0.035 A 
HETATM   35  C   UNL     1      30.984  43.318  56.178  1.00  0.00     0.009 A 
HETATM   36  C   UNL     1      30.725  44.488  56.918  1.00  0.00    -0.059 A 
HETATM   37  C   UNL     1      31.522  44.774  58.160  1.00  0.00     0.048 C 
ENDBRANCH  23  28
ENDBRANCH   1  20
TORSDOF 10
ENDMDL
MODEL 5
REMARK VINA RESULT:      -8.9      2.324      3.948
REMARK  10 active torsions:
REMARK  status: ('A' for Active; 'I' for Inactive)
REMARK    1  A    between atoms: C_2  and  C_3 
REMARK    2  A    between atoms: C_3  and  C_4 
REMARK    3  A    between atoms: C_4  and  O_5 
REMARK    4  A    between atoms: O_5  and  C_6 
REMARK    5  A    between atoms: C_9  and  C_10 
REMARK       I    between atoms: C_10  and  N_11 
REMARK    6  A    between atoms: N_11  and  C_12 
REMARK    7  A    between atoms: C_12  and  N_13 
REMARK    8  A    between atoms: N_13  and  C_14 
REMARK    9  A    between atoms: C_16  and  O_17 
REMARK   10  A    between atoms: C_18  and  C_19 
ROOT
HETATM    1  N   UNL     1      25.743  42.473  48.426  1.00  0.00    -0.333 N 
HETATM    2  H   UNL     1      26.114  41.782  47.783  1.00  0.00     0.168 HD
ENDROOT
BRANCH   1   3
HETATM    3  C   UNL     1      24.412  42.664  48.288  1.00  0.00     0.179 C 
HETATM    4  S   UNL     1      23.407  41.326  48.228  1.00  0.00    -0.040 SA
BRANCH   3   5
HETATM    5  N   UNL     1      23.845  43.891  48.155  1.00  0.00    -0.299 N 
HETATM    6  C   UNL     1      23.189  44.635  49.135  1.00  0.00     0.257 C 
HETATM    7  O   UNL     1      22.731  44.195  50.182  1.00  0.00    -0.267 OA
HETATM    8  H   UNL     1      24.279  44.417  47.412  1.00  0.00     0.171 HD
BRANCH   6   9
HETATM    9  C   UNL     1      23.011  46.087  48.826  1.00  0.00     0.032 A 
HETATM   10  C   UNL     1      23.860  47.004  49.460  1.00  0.00     0.020 A 
HETATM   11  C   UNL     1      23.721  48.377  49.232  1.00  0.00     0.038 A 
HETATM   12  C   UNL     1      22.743  48.836  48.351  1.00  0.00     0.068 A 
HETATM   13  C   UNL     1      21.897  47.933  47.712  1.00  0.00     0.038 A 
HETATM   14  C   UNL     1      22.040  46.559  47.931  1.00  0.00     0.020 A 
BRANCH  12  15
HETATM   15  O   UNL     1      22.499  50.165  48.144  1.00  0.00    -0.351 OA
BRANCH  15  16
HETATM   16  C   UNL     1      22.054  50.847  49.320  1.00  0.00     0.175 C 
BRANCH  16  17
HETATM   17  C   UNL     1      20.553  50.604  49.484  1.00  0.00     0.026 C 
BRANCH  17  18
HETATM   18  C   UNL     1      19.725  51.797  48.999  1.00  0.00    -0.002 C 
HETATM   19  C   UNL     1      18.953  51.465  47.731  1.00  0.00     0.005 C 
ENDBRANCH  17  18
ENDBRANCH  16  17
ENDBRANCH  15  16
ENDBRANCH  12  15
ENDBRANCH   6   9
ENDBRANCH   3   5
ENDBRANCH   1   3
BRANCH   1  20
HETATM   20  C   UNL     1      26.580  42.741  49.535  1.00  0.00     0.036 A 
HETATM   21  C   UNL     1      26.997  41.642  50.294  1.00  0.00     0.067 A 
HETATM   22  C   UNL     1      27.732  41.822  51.475  1.00  0.00     0.082 A 
HETATM   23  C   UNL     1      28.072  43.103  51.928  1.00  0.00     0.050 A 
HETATM   24  C   UNL     1      27.654  44.196  51.149  1.00  0.00     0.021 A 
HETATM   25  C   UNL     1      26.914  44.021  49.971  1.00  0.00     0.030 A 
BRANCH  22  26
HETATM   26  O   UNL     1      28.077  40.711  52.201  1.00  0.00    -0.360 OA
HETATM   27  H   UNL     1      28.245  39.965  51.602  1.00  0.00     0.217 HD
ENDBRANCH  22  26
BRANCH  23  28
HETATM   28  C   UNL     1      28.789  43.380  53.176  1.00  0.00     0.183 A 
HETATM   29  O   UNL     1      28.424  44.494  53.891  1.00  0.00    -0.289 OA
HETATM   30  C   UNL     1      29.269  44.499  54.960  1.00  0.00     0.107 A 
HETATM   31  C   UNL     1      30.087  43.388  54.857  1.00  0.00     0.093 A 
HETATM   32  C   UNL     1      29.328  45.438  55.982  1.00  0.00     0.046 A 
HETATM   33  N   UNL     1      29.765  42.675  53.730  1.00  0.00    -0.221 NA
HETATM   34  C   UNL     1      31.062  43.175  55.838  1.00  0.00     0.035 A 
HETATM   35  C   UNL     1      31.160  44.102  56.888  1.00  0.00     0.009 A 
HETATM   36  C   UNL     1      30.301  45.214  56.973  1.00  0.00    -0.059 A 
HETATM   37  C   UNL     1      30.466  46.198  58.097  1.00  0.00     0.048 C 
ENDBRANCH  23  28
ENDBRANCH   1  20
TORSDOF 10
ENDMDL
MODEL 6
REMARK VINA RESULT:      -8.7      2.126      2.910
REMARK  10 active torsions:
REMARK  status: ('A' for Active; 'I' for Inactive)
REMARK    1  A    between atoms: C_2  and  C_3 
REMARK    2  A    between atoms: C_3  and  C_4 
REMARK    3  A    between atoms: C_4  and  O_5 
REMARK    4  A    between atoms: O_5  and  C_6 
REMARK    5  A    between atoms: C_9  and  C_10 
REMARK       I    between atoms: C_10  and  N_11 
REMARK    6  A    between atoms: N_11  and  C_12 
REMARK    7  A    between atoms: C_12  and  N_13 
REMARK    8  A    between atoms: N_13  and  C_14 
REMARK    9  A    between atoms: C_16  and  O_17 
REMARK   10  A    between atoms: C_18  and  C_19 
ROOT
HETATM    1  N   UNL     1      22.482  44.033  49.110  1.00  0.00    -0.333 N 
HETATM    2  H   UNL     1      21.643  43.743  49.600  1.00  0.00     0.168 HD
ENDROOT
BRANCH   1   3
HETATM    3  C   UNL     1      22.232  44.526  47.877  1.00  0.00     0.179 C 
HETATM    4  S   UNL     1      23.110  43.936  46.578  1.00  0.00    -0.040 SA
BRANCH   3   5
HETATM    5  N   UNL     1      21.327  45.511  47.637  1.00  0.00    -0.299 N 
HETATM    6  C   UNL     1      20.002  45.568  48.064  1.00  0.00     0.257 C 
HETATM    7  O   UNL     1      19.330  44.619  48.448  1.00  0.00    -0.267 OA
HETATM    8  H   UNL     1      21.782  46.396  47.475  1.00  0.00     0.171 HD
BRANCH   6   9
HETATM    9  C   UNL     1      19.362  46.918  47.992  1.00  0.00     0.032 A 
HETATM   10  C   UNL     1      19.559  47.679  46.831  1.00  0.00     0.020 A 
HETATM   11  C   UNL     1      19.009  48.960  46.720  1.00  0.00     0.038 A 
HETATM   12  C   UNL     1      18.241  49.476  47.762  1.00  0.00     0.068 A 
HETATM   13  C   UNL     1      18.035  48.726  48.917  1.00  0.00     0.038 A 
HETATM   14  C   UNL     1      18.577  47.441  49.029  1.00  0.00     0.020 A 
BRANCH  12  15
HETATM   15  O   UNL     1      17.742  50.748  47.754  1.00  0.00    -0.351 OA
BRANCH  15  16
HETATM   16  C   UNL     1      18.207  51.544  48.848  1.00  0.00     0.175 C 
BRANCH  16  17
HETATM   17  C   UNL     1      19.618  52.037  48.525  1.00  0.00     0.026 C 
BRANCH  17  18
HETATM   18  C   UNL     1      20.682  51.301  49.344  1.00  0.00    -0.002 C 
HETATM   19  C   UNL     1      21.897  50.951  48.499  1.00  0.00     0.005 C 
ENDBRANCH  17  18
ENDBRANCH  16  17
ENDBRANCH  15  16
ENDBRANCH  12  15
ENDBRANCH   6   9
ENDBRANCH   3   5
ENDBRANCH   1   3
BRANCH   1  20
HETATM   20  C   UNL     1      23.602  44.240  49.951  1.00  0.00     0.036 A 
HETATM   21  C   UNL     1      24.270  43.099  50.409  1.00  0.00     0.067 A 
HETATM   22  C   UNL     1      25.317  43.202  51.336  1.00  0.00     0.082 A 
HETATM   23  C   UNL     1      25.726  44.449  51.830  1.00  0.00     0.050 A 
HETATM   24  C   UNL     1      25.051  45.586  51.353  1.00  0.00     0.021 A 
HETATM   25  C   UNL     1      24.000  45.486  50.429  1.00  0.00     0.030 A 
BRANCH  22  26
HETATM   26  O   UNL     1      25.906  42.048  51.782  1.00  0.00    -0.360 OA
HETATM   27  H   UNL     1      25.489  41.764  52.612  1.00  0.00     0.217 HD
ENDBRANCH  22  26
BRANCH  23  28
HETATM   28  C   UNL     1      26.772  44.639  52.839  1.00  0.00     0.183 A 
HETATM   29  O   UNL     1      27.703  43.642  52.992  1.00  0.00    -0.289 OA
HETATM   30  C   UNL     1      28.507  44.085  53.998  1.00  0.00     0.107 A 
HETATM   31  C   UNL     1      28.044  45.328  54.394  1.00  0.00     0.093 A 
HETATM   32  C   UNL     1      29.599  43.429  54.555  1.00  0.00     0.046 A 
HETATM   33  N   UNL     1      26.952  45.679  53.641  1.00  0.00    -0.221 NA
HETATM   34  C   UNL     1      28.701  45.993  55.434  1.00  0.00     0.035 A 
HETATM   35  C   UNL     1      29.808  45.365  56.029  1.00  0.00     0.009 A 
HETATM   36  C   UNL     1      30.263  44.107  55.593  1.00  0.00    -0.059 A 
HETATM   37  C   UNL     1      31.432  43.458  56.283  1.00  0.00     0.048 C 
ENDBRANCH  23  28
ENDBRANCH   1  20
TORSDOF 10
ENDMDL
MODEL 7
REMARK VINA RESULT:      -8.6      1.667      2.246
REMARK  10 active torsions:
REMARK  status: ('A' for Active; 'I' for Inactive)
REMARK    1  A    between atoms: C_2  and  C_3 
REMARK    2  A    between atoms: C_3  and  C_4 
REMARK    3  A    between atoms: C_4  and  O_5 
REMARK    4  A    between atoms: O_5  and  C_6 
REMARK    5  A    between atoms: C_9  and  C_10 
REMARK       I    between atoms: C_10  and  N_11 
REMARK    6  A    between atoms: N_11  and  C_12 
REMARK    7  A    between atoms: C_12  and  N_13 
REMARK    8  A    between atoms: N_13  and  C_14 
REMARK    9  A    between atoms: C_16  and  O_17 
REMARK   10  A    between atoms: C_18  and  C_19 
ROOT
HETATM    1  N   UNL     1      23.110  44.591  49.971  1.00  0.00    -0.333 N 
HETATM    2  H   UNL     1      22.229  44.566  50.472  1.00  0.00     0.168 HD
ENDROOT
BRANCH   1   3
HETATM    3  C   UNL     1      22.968  44.911  48.666  1.00  0.00     0.179 C 
HETATM    4  S   UNL     1      23.594  43.876  47.508  1.00  0.00    -0.040 SA
BRANCH   3   5
HETATM    5  N   UNL     1      22.376  46.058  48.240  1.00  0.00    -0.299 N 
HETATM    6  C   UNL     1      21.055  46.229  47.829  1.00  0.00     0.257 C 
HETATM    7  O   UNL     1      20.292  45.339  47.477  1.00  0.00    -0.267 OA
HETATM    8  H   UNL     1      22.833  46.871  48.622  1.00  0.00     0.171 HD
BRANCH   6   9
HETATM    9  C   UNL     1      20.575  47.645  47.787  1.00  0.00     0.032 A 
HETATM   10  C   UNL     1      21.426  48.644  48.280  1.00  0.00     0.020 A 
HETATM   11  C   UNL     1      21.019  49.982  48.292  1.00  0.00     0.038 A 
HETATM   12  C   UNL     1      19.765  50.328  47.791  1.00  0.00     0.068 A 
HETATM   13  C   UNL     1      18.914  49.344  47.295  1.00  0.00     0.038 A 
HETATM   14  C   UNL     1      19.321  48.005  47.273  1.00  0.00     0.020 A 
BRANCH  12  15
HETATM   15  O   UNL     1      19.272  51.601  47.846  1.00  0.00    -0.351 OA
BRANCH  15  16
HETATM   16  C   UNL     1      19.226  52.132  49.175  1.00  0.00     0.175 C 
BRANCH  16  17
HETATM   17  C   UNL     1      17.801  51.982  49.709  1.00  0.00     0.026 C 
BRANCH  17  18
HETATM   18  C   UNL     1      16.754  52.239  48.621  1.00  0.00    -0.002 C 
HETATM   19  C   UNL     1      15.377  52.484  49.217  1.00  0.00     0.005 C 
ENDBRANCH  17  18
ENDBRANCH  16  17
ENDBRANCH  15  16
ENDBRANCH  12  15
ENDBRANCH   6   9
ENDBRANCH   3   5
ENDBRANCH   1   3
BRANCH   1  20
HETATM   20  C   UNL     1      24.248  44.701  50.805  1.00  0.00     0.036 A 
HETATM   21  C   UNL     1      24.856  43.506  51.208  1.00  0.00     0.067 A 
HETATM   22  C   UNL     1      25.917  43.513  52.125  1.00  0.00     0.082 A 
HETATM   23  C   UNL     1      26.400  44.713  52.664  1.00  0.00     0.050 A 
HETATM   24  C   UNL     1      25.785  45.905  52.242  1.00  0.00     0.021 A 
HETATM   25  C   UNL     1      24.721  45.901  51.328  1.00  0.00     0.030 A 
BRANCH  22  26
HETATM   26  O   UNL     1      26.446  42.310  52.516  1.00  0.00    -0.360 OA
HETATM   27  H   UNL     1      25.748  41.636  52.543  1.00  0.00     0.217 HD
ENDBRANCH  22  26
BRANCH  23  28
HETATM   28  C   UNL     1      27.466  44.804  53.666  1.00  0.00     0.183 A 
HETATM   29  O   UNL     1      28.365  43.769  53.740  1.00  0.00    -0.289 OA
HETATM   30  C   UNL     1      29.197  44.119  54.760  1.00  0.00     0.107 A 
HETATM   31  C   UNL     1      28.782  45.348  55.241  1.00  0.00     0.093 A 
HETATM   32  C   UNL     1      30.273  43.393  55.256  1.00  0.00     0.046 A 
HETATM   33  N   UNL     1      27.692  45.783  54.530  1.00  0.00    -0.221 NA
HETATM   34  C   UNL     1      29.476  45.923  56.312  1.00  0.00     0.035 A 
HETATM   35  C   UNL     1      30.568  45.221  56.848  1.00  0.00     0.009 A 
HETATM   36  C   UNL     1      30.975  43.979  56.325  1.00  0.00    -0.059 A 
HETATM   37  C   UNL     1      32.130  43.250  56.953  1.00  0.00     0.048 C 
ENDBRANCH  23  28
ENDBRANCH   1  20
TORSDOF 10
ENDMDL
MODEL 8
REMARK VINA RESULT:      -8.5      2.185     11.989
REMARK  10 active torsions:
REMARK  status: ('A' for Active; 'I' for Inactive)
REMARK    1  A    between atoms: C_2  and  C_3 
REMARK    2  A    between atoms: C_3  and  C_4 
REMARK    3  A    between atoms: C_4  and  O_5 
REMARK    4  A    between atoms: O_5  and  C_6 
REMARK    5  A    between atoms: C_9  and  C_10 
REMARK       I    between atoms: C_10  and  N_11 
REMARK    6  A    between atoms: N_11  and  C_12 
REMARK    7  A    between atoms: C_12  and  N_13 
REMARK    8  A    between atoms: N_13  and  C_14 
REMARK    9  A    between atoms: C_16  and  O_17 
REMARK   10  A    between atoms: C_18  and  C_19 
ROOT
HETATM    1  N   UNL     1      24.632  48.190  48.691  1.00  0.00    -0.333 N 
HETATM    2  H   UNL     1      24.774  47.640  47.851  1.00  0.00     0.168 HD
ENDROOT
BRANCH   1   3
HETATM    3  C   UNL     1      25.780  48.444  49.358  1.00  0.00     0.179 C 
HETATM    4  S   UNL     1      26.866  49.539  48.708  1.00  0.00    -0.040 SA
BRANCH   3   5
HETATM    5  N   UNL     1      26.121  47.822  50.517  1.00  0.00    -0.299 N 
HETATM    6  C   UNL     1      25.569  46.659  51.052  1.00  0.00     0.257 C 
HETATM    7  O   UNL     1      24.487  46.173  50.748  1.00  0.00    -0.267 OA
HETATM    8  H   UNL     1      27.075  48.022  50.775  1.00  0.00     0.171 HD
BRANCH   6   9
HETATM    9  C   UNL     1      26.380  45.995  52.118  1.00  0.00     0.032 A 
HETATM   10  C   UNL     1      26.501  46.645  53.354  1.00  0.00     0.020 A 
HETATM   11  C   UNL     1      27.270  46.085  54.379  1.00  0.00     0.038 A 
HETATM   12  C   UNL     1      27.905  44.861  54.177  1.00  0.00     0.068 A 
HETATM   13  C   UNL     1      27.788  44.204  52.955  1.00  0.00     0.038 A 
HETATM   14  C   UNL     1      27.012  44.757  51.931  1.00  0.00     0.020 A 
BRANCH  12  15
HETATM   15  O   UNL     1      28.736  44.297  55.105  1.00  0.00    -0.351 OA
BRANCH  15  16
HETATM   16  C   UNL     1      29.886  45.099  55.394  1.00  0.00     0.175 C 
BRANCH  16  17
HETATM   17  C   UNL     1      30.433  44.688  56.761  1.00  0.00     0.026 C 
BRANCH  17  18
HETATM   18  C   UNL     1      30.239  45.789  57.808  1.00  0.00    -0.002 C 
HETATM   19  C   UNL     1      28.778  46.192  57.933  1.00  0.00     0.005 C 
ENDBRANCH  17  18
ENDBRANCH  16  17
ENDBRANCH  15  16
ENDBRANCH  12  15
ENDBRANCH   6   9
ENDBRANCH   3   5
ENDBRANCH   1   3
BRANCH   1  20
HETATM   20  C   UNL     1      23.398  48.881  48.730  1.00  0.00     0.036 A 
HETATM   21  C   UNL     1      22.278  48.156  49.152  1.00  0.00     0.067 A 
HETATM   22  C   UNL     1      20.997  48.725  49.113  1.00  0.00     0.082 A 
HETATM   23  C   UNL     1      20.800  50.033  48.653  1.00  0.00     0.050 A 
HETATM   24  C   UNL     1      21.936  50.752  48.242  1.00  0.00     0.021 A 
HETATM   25  C   UNL     1      23.218  50.185  48.275  1.00  0.00     0.030 A 
BRANCH  22  26
HETATM   26  O   UNL     1      19.931  47.953  49.499  1.00  0.00    -0.360 OA
HETATM   27  H   UNL     1      19.509  48.341  50.282  1.00  0.00     0.217 HD
ENDBRANCH  22  26
BRANCH  23  28
HETATM   28  C   UNL     1      19.491  50.682  48.530  1.00  0.00     0.183 A 
HETATM   29  O   UNL     1      18.936  51.225  49.662  1.00  0.00    -0.289 OA
HETATM   30  C   UNL     1      17.736  51.717  49.245  1.00  0.00     0.107 A 
HETATM   31  C   UNL     1      17.627  51.471  47.888  1.00  0.00     0.093 A 
HETATM   32  C   UNL     1      16.771  52.352  50.019  1.00  0.00     0.046 A 
HETATM   33  N   UNL     1      18.752  50.828  47.439  1.00  0.00    -0.221 NA
HETATM   34  C   UNL     1      16.465  51.874  47.221  1.00  0.00     0.035 A 
HETATM   35  C   UNL     1      15.461  52.516  47.965  1.00  0.00     0.009 A 
HETATM   36  C   UNL     1      15.610  52.765  49.342  1.00  0.00    -0.059 A 
HETATM   37  C   UNL     1      14.494  53.425  50.103  1.00  0.00     0.048 C 
ENDBRANCH  23  28
ENDBRANCH   1  20
TORSDOF 10
ENDMDL
MODEL 9
REMARK VINA RESULT:      -8.3      2.416     12.522
REMARK  10 active torsions:
REMARK  status: ('A' for Active; 'I' for Inactive)
REMARK    1  A    between atoms: C_2  and  C_3 
REMARK    2  A    between atoms: C_3  and  C_4 
REMARK    3  A    between atoms: C_4  and  O_5 
REMARK    4  A    between atoms: O_5  and  C_6 
REMARK    5  A    between atoms: C_9  and  C_10 
REMARK       I    between atoms: C_10  and  N_11 
REMARK    6  A    between atoms: N_11  and  C_12 
REMARK    7  A    between atoms: C_12  and  N_13 
REMARK    8  A    between atoms: N_13  and  C_14 
REMARK    9  A    between atoms: C_16  and  O_17 
REMARK   10  A    between atoms: C_18  and  C_19 
ROOT
HETATM    1  N   UNL     1      22.150  47.905  49.007  1.00  0.00    -0.333 N 
HETATM    2  H   UNL     1      22.105  47.205  48.275  1.00  0.00     0.168 HD
ENDROOT
BRANCH   1   3
HETATM    3  C   UNL     1      23.411  48.151  49.427  1.00  0.00     0.179 C 
HETATM    4  S   UNL     1      24.299  49.346  48.659  1.00  0.00    -0.040 SA
BRANCH   3   5
HETATM    5  N   UNL     1      24.016  47.448  50.419  1.00  0.00    -0.299 N 
HETATM    6  C   UNL     1      24.874  46.357  50.287  1.00  0.00     0.257 C 
HETATM    7  O   UNL     1      24.983  45.647  49.296  1.00  0.00    -0.267 OA
HETATM    8  H   UNL     1      24.134  48.010  51.248  1.00  0.00     0.171 HD
BRANCH   6   9
HETATM    9  C   UNL     1      25.687  46.029  51.499  1.00  0.00     0.032 A 
HETATM   10  C   UNL     1      26.313  44.776  51.552  1.00  0.00     0.020 A 
HETATM   11  C   UNL     1      27.062  44.404  52.673  1.00  0.00     0.038 A 
HETATM   12  C   UNL     1      27.206  45.293  53.736  1.00  0.00     0.068 A 
HETATM   13  C   UNL     1      26.592  46.542  53.691  1.00  0.00     0.038 A 
HETATM   14  C   UNL     1      25.849  46.922  52.568  1.00  0.00     0.020 A 
BRANCH  12  15
HETATM   15  O   UNL     1      27.855  44.965  54.893  1.00  0.00    -0.351 OA
BRANCH  15  16
HETATM   16  C   UNL     1      28.323  46.104  55.621  1.00  0.00     0.175 C 
BRANCH  16  17
HETATM   17  C   UNL     1      29.768  45.848  56.047  1.00  0.00     0.026 C 
BRANCH  17  18
HETATM   18  C   UNL     1      30.240  44.446  55.653  1.00  0.00    -0.002 C 
HETATM   19  C   UNL     1      31.180  43.858  56.694  1.00  0.00     0.005 C 
ENDBRANCH  17  18
ENDBRANCH  16  17
ENDBRANCH  15  16
ENDBRANCH  12  15
ENDBRANCH   6   9
ENDBRANCH   3   5
ENDBRANCH   1   3
BRANCH   1  20
HETATM   20  C   UNL     1      20.995  48.716  49.106  1.00  0.00     0.036 A 
HETATM   21  C   UNL     1      19.904  48.367  48.301  1.00  0.00     0.067 A 
HETATM   22  C   UNL     1      18.762  49.178  48.247  1.00  0.00     0.082 A 
HETATM   23  C   UNL     1      18.677  50.359  48.996  1.00  0.00     0.050 A 
HETATM   24  C   UNL     1      19.777  50.691  49.807  1.00  0.00     0.021 A 
HETATM   25  C   UNL     1      20.923  49.885  49.859  1.00  0.00     0.030 A 
BRANCH  22  26
HETATM   26  O   UNL     1      17.742  48.810  47.409  1.00  0.00    -0.360 OA
HETATM   27  H   UNL     1      17.987  48.004  46.926  1.00  0.00     0.217 HD
ENDBRANCH  22  26
BRANCH  23  28
HETATM   28  C   UNL     1      17.545  51.289  48.956  1.00  0.00     0.183 A 
HETATM   29  O   UNL     1      17.104  51.815  50.145  1.00  0.00    -0.289 OA
HETATM   30  C   UNL     1      16.049  52.601  49.795  1.00  0.00     0.107 A 
HETATM   31  C   UNL     1      15.909  52.534  48.420  1.00  0.00     0.093 A 
HETATM   32  C   UNL     1      15.234  53.344  50.642  1.00  0.00     0.046 A 
HETATM   33  N   UNL     1      16.873  51.712  47.894  1.00  0.00    -0.221 NA
HETATM   34  C   UNL     1      14.875  53.252  47.811  1.00  0.00     0.035 A 
HETATM   35  C   UNL     1      14.025  54.014  48.629  1.00  0.00     0.009 A 
HETATM   36  C   UNL     1      14.203  54.074  50.024  1.00  0.00    -0.059 A 
HETATM   37  C   UNL     1      13.247  54.876  50.863  1.00  0.00     0.048 C 
ENDBRANCH  23  28
ENDBRANCH   1  20
TORSDOF 10
ENDMDL
MODEL 10
REMARK VINA RESULT:      -8.3      2.201      3.158
REMARK  10 active torsions:
REMARK  status: ('A' for Active; 'I' for Inactive)
REMARK    1  A    between atoms: C_2  and  C_3 
REMARK    2  A    between atoms: C_3  and  C_4 
REMARK    3  A    between atoms: C_4  and  O_5 
REMARK    4  A    between atoms: O_5  and  C_6 
REMARK    5  A    between atoms: C_9  and  C_10 
REMARK       I    between atoms: C_10  and  N_11 
REMARK    6  A    between atoms: N_11  and  C_12 
REMARK    7  A    between atoms: C_12  and  N_13 
REMARK    8  A    between atoms: N_13  and  C_14 
REMARK    9  A    between atoms: C_16  and  O_17 
REMARK   10  A    between atoms: C_18  and  C_19 
ROOT
HETATM    1  N   UNL     1      24.944  43.068  48.384  1.00  0.00    -0.333 N 
HETATM    2  H   UNL     1      25.393  42.738  47.537  1.00  0.00     0.168 HD
ENDROOT
BRANCH   1   3
HETATM    3  C   UNL     1      23.616  42.818  48.411  1.00  0.00     0.179 C 
HETATM    4  S   UNL     1      23.079  41.268  48.072  1.00  0.00    -0.040 SA
BRANCH   3   5
HETATM    5  N   UNL     1      22.683  43.773  48.662  1.00  0.00    -0.299 N 
HETATM    6  C   UNL     1      22.791  45.145  48.440  1.00  0.00     0.257 C 
HETATM    7  O   UNL     1      23.835  45.766  48.285  1.00  0.00    -0.267 OA
HETATM    8  H   UNL     1      21.751  43.390  48.641  1.00  0.00     0.171 HD
BRANCH   6   9
HETATM    9  C   UNL     1      21.500  45.898  48.441  1.00  0.00     0.032 A 
HETATM   10  C   UNL     1      21.555  47.299  48.456  1.00  0.00     0.020 A 
HETATM   11  C   UNL     1      20.379  48.056  48.486  1.00  0.00     0.038 A 
HETATM   12  C   UNL     1      19.142  47.413  48.479  1.00  0.00     0.068 A 
HETATM   13  C   UNL     1      19.076  46.023  48.459  1.00  0.00     0.038 A 
HETATM   14  C   UNL     1      20.250  45.263  48.420  1.00  0.00     0.020 A 
BRANCH  12  15
HETATM   15  O   UNL     1      17.958  48.087  48.589  1.00  0.00    -0.351 OA
BRANCH  15  16
HETATM   16  C   UNL     1      17.943  49.323  47.866  1.00  0.00     0.175 C 
BRANCH  16  17
HETATM   17  C   UNL     1      17.296  50.392  48.747  1.00  0.00     0.026 C 
BRANCH  17  18
HETATM   18  C   UNL     1      18.211  50.813  49.900  1.00  0.00    -0.002 C 
HETATM   19  C   UNL     1      19.403  51.616  49.405  1.00  0.00     0.005 C 
ENDBRANCH  17  18
ENDBRANCH  16  17
ENDBRANCH  15  16
ENDBRANCH  12  15
ENDBRANCH   6   9
ENDBRANCH   3   5
ENDBRANCH   1   3
BRANCH   1  20
HETATM   20  C   UNL     1      25.835  43.312  49.455  1.00  0.00     0.036 A 
HETATM   21  C   UNL     1      26.023  42.272  50.373  1.00  0.00     0.067 A 
HETATM   22  C   UNL     1      26.797  42.462  51.526  1.00  0.00     0.082 A 
HETATM   23  C   UNL     1      27.406  43.696  51.794  1.00  0.00     0.050 A 
HETATM   24  C   UNL     1      27.215  44.727  50.858  1.00  0.00     0.021 A 
HETATM   25  C   UNL     1      26.438  44.542  49.706  1.00  0.00     0.030 A 
BRANCH  22  26
HETATM   26  O   UNL     1      26.912  41.421  52.411  1.00  0.00    -0.360 OA
HETATM   27  H   UNL     1      27.754  40.960  52.270  1.00  0.00     0.217 HD
ENDBRANCH  22  26
BRANCH  23  28
HETATM   28  C   UNL     1      28.184  43.993  53.000  1.00  0.00     0.183 A 
HETATM   29  O   UNL     1      29.185  43.120  53.348  1.00  0.00    -0.289 OA
HETATM   30  C   UNL     1      29.696  43.636  54.501  1.00  0.00     0.107 A 
HETATM   31  C   UNL     1      29.002  44.799  54.787  1.00  0.00     0.093 A 
HETATM   32  C   UNL     1      30.723  43.112  55.276  1.00  0.00     0.046 A 
HETATM   33  N   UNL     1      28.055  45.026  53.820  1.00  0.00    -0.221 NA
HETATM   34  C   UNL     1      29.334  45.516  55.941  1.00  0.00     0.035 A 
HETATM   35  C   UNL     1      30.364  45.020  56.757  1.00  0.00     0.009 A 
HETATM   36  C   UNL     1      31.061  43.842  56.430  1.00  0.00    -0.059 A 
HETATM   37  C   UNL     1      32.134  43.331  57.351  1.00  0.00     0.048 C 
ENDBRANCH  23  28
ENDBRANCH   1  20
TORSDOF 10
ENDMDL
