MODEL 1
REMARK VINA RESULT:     -10.7      0.000      0.000
REMARK  5 active torsions:
REMARK  status: ('A' for Active; 'I' for Inactive)
REMARK    1  A    between atoms: C_4  and  C_5 
REMARK    2  A    between atoms: C_5  and  C_6 
REMARK    3  A    between atoms: N_15  and  N_16 
REMARK       I    between atoms: N_16  and  C_17 
REMARK    4  A    between atoms: C_17  and  C_18 
REMARK    5  A    between atoms: C_18  and  C_19 
ROOT
HETATM    1  C   UNL     1      27.009  43.170  51.295  1.00  0.00     0.173 A 
HETATM    2  N   UNL     1      25.648  43.010  51.791  1.00  0.00    -0.315 N 
HETATM    3  C   UNL     1      24.792  43.978  51.324  1.00  0.00     0.346 A 
HETATM    4  O   UNL     1      23.595  44.013  51.566  1.00  0.00    -0.245 OA
HETATM    5  N   UNL     1      25.502  44.823  50.521  1.00  0.00    -0.167 N 
HETATM    6  C   UNL     1      26.800  44.400  50.349  1.00  0.00     0.285 A 
HETATM    7  O   UNL     1      27.630  44.879  49.585  1.00  0.00    -0.267 OA
HETATM    8  H   UNL     1      25.359  42.326  52.474  1.00  0.00     0.166 HD
ENDROOT
BRANCH   5   9
HETATM    9  N   UNL     1      24.910  45.835  49.775  1.00  0.00    -0.256 N 
HETATM   10  C   UNL     1      24.741  47.065  50.388  1.00  0.00     0.242 C 
HETATM   11  O   UNL     1      25.128  47.333  51.524  1.00  0.00    -0.271 OA
HETATM   12  H   UNL     1      24.140  45.521  49.183  1.00  0.00     0.191 HD
BRANCH  10  13
HETATM   13  C   UNL     1      24.153  48.115  49.473  1.00  0.00     0.166 C 
BRANCH  13  14
HETATM   14  C   UNL     1      22.709  47.910  49.065  1.00  0.00     0.074 A 
HETATM   15  N   UNL     1      22.273  46.692  48.949  1.00  0.00    -0.175 NA
HETATM   16  N   UNL     1      20.972  46.497  48.608  1.00  0.00    -0.243 N 
HETATM   17  C   UNL     1      20.039  47.478  48.376  1.00  0.00     0.272 A 
HETATM   18  H   UNL     1      20.653  45.532  48.560  1.00  0.00     0.192 HD
HETATM   19  O   UNL     1      18.872  47.227  48.100  1.00  0.00    -0.266 OA
HETATM   20  C   UNL     1      20.525  48.865  48.469  1.00  0.00     0.046 A 
HETATM   21  C   UNL     1      21.854  49.098  48.819  1.00  0.00     0.006 A 
HETATM   22  C   UNL     1      19.660  49.933  48.201  1.00  0.00     0.018 A 
HETATM   23  C   UNL     1      22.323  50.414  48.904  1.00  0.00     0.014 A 
HETATM   24  C   UNL     1      21.461  51.482  48.629  1.00  0.00     0.001 A 
HETATM   25  C   UNL     1      20.133  51.242  48.278  1.00  0.00     0.001 A 
ENDBRANCH  13  14
ENDBRANCH  10  13
ENDBRANCH   5   9
BRANCH   1  26
HETATM   26  C   UNL     1      27.906  43.447  52.510  1.00  0.00    -0.016 A 
HETATM   27  C   UNL     1      27.421  44.051  53.683  1.00  0.00     0.010 A 
HETATM   28  C   UNL     1      28.255  44.241  54.790  1.00  0.00     0.001 A 
HETATM   29  C   UNL     1      29.584  43.826  54.750  1.00  0.00     0.000 A 
HETATM   30  C   UNL     1      30.082  43.216  53.605  1.00  0.00     0.001 A 
HETATM   31  C   UNL     1      29.251  43.021  52.499  1.00  0.00     0.010 A 
ENDBRANCH   1  26
BRANCH   1  32
HETATM   32  C   UNL     1      27.472  41.972  50.447  1.00  0.00    -0.016 A 
HETATM   33  C   UNL     1      28.085  40.835  51.006  1.00  0.00     0.010 A 
HETATM   34  C   UNL     1      28.473  39.761  50.201  1.00  0.00     0.001 A 
HETATM   35  C   UNL     1      28.252  39.798  48.826  1.00  0.00     0.000 A 
HETATM   36  C   UNL     1      27.643  40.909  48.253  1.00  0.00     0.001 A 
HETATM   37  C   UNL     1      27.257  41.984  49.054  1.00  0.00     0.010 A 
ENDBRANCH   1  32
TORSDOF 5
ENDMDL
MODEL 2
REMARK VINA RESULT:     -10.4      2.850      8.935
REMARK  5 active torsions:
REMARK  status: ('A' for Active; 'I' for Inactive)
REMARK    1  A    between atoms: C_4  and  C_5 
REMARK    2  A    between atoms: C_5  and  C_6 
REMARK    3  A    between atoms: N_15  and  N_16 
REMARK       I    between atoms: N_16  and  C_17 
REMARK    4  A    between atoms: C_17  and  C_18 
REMARK    5  A    between atoms: C_18  and  C_19 
ROOT
HETATM    1  C   UNL     1      25.546  46.184  50.529  1.00  0.00     0.173 A 
HETATM    2  N   UNL     1      24.149  45.789  50.401  1.00  0.00    -0.315 N 
HETATM    3  C   UNL     1      23.984  44.629  49.684  1.00  0.00     0.346 A 
HETATM    4  O   UNL     1      22.908  44.084  49.494  1.00  0.00    -0.245 OA
HETATM    5  N   UNL     1      25.217  44.192  49.292  1.00  0.00    -0.167 N 
HETATM    6  C   UNL     1      26.226  44.973  49.807  1.00  0.00     0.285 A 
HETATM    7  O   UNL     1      27.431  44.752  49.735  1.00  0.00    -0.267 OA
HETATM    8  H   UNL     1      23.363  46.337  50.718  1.00  0.00     0.166 HD
ENDROOT
BRANCH   5   9
HETATM    9  N   UNL     1      25.423  42.970  48.665  1.00  0.00    -0.256 N 
HETATM   10  C   UNL     1      25.483  41.842  49.466  1.00  0.00     0.242 C 
HETATM   11  O   UNL     1      25.311  41.846  50.683  1.00  0.00    -0.271 OA
HETATM   12  H   UNL     1      26.090  43.005  47.893  1.00  0.00     0.191 HD
BRANCH  10  13
HETATM   13  C   UNL     1      25.642  40.559  48.684  1.00  0.00     0.166 C 
BRANCH  13  14
HETATM   14  C   UNL     1      26.992  39.880  48.783  1.00  0.00     0.074 A 
HETATM   15  N   UNL     1      27.757  40.183  49.788  1.00  0.00    -0.175 NA
HETATM   16  N   UNL     1      28.960  39.562  49.900  1.00  0.00    -0.243 N 
HETATM   17  C   UNL     1      29.464  38.612  49.045  1.00  0.00     0.272 A 
HETATM   18  H   UNL     1      29.519  39.795  50.717  1.00  0.00     0.192 HD
HETATM   19  O   UNL     1      30.548  38.070  49.227  1.00  0.00    -0.266 OA
HETATM   20  C   UNL     1      28.626  38.281  47.882  1.00  0.00     0.046 A 
HETATM   21  C   UNL     1      27.385  38.900  47.739  1.00  0.00     0.006 A 
HETATM   22  C   UNL     1      29.076  37.361  46.928  1.00  0.00     0.018 A 
HETATM   23  C   UNL     1      26.585  38.594  46.632  1.00  0.00     0.014 A 
HETATM   24  C   UNL     1      27.039  37.679  45.675  1.00  0.00     0.001 A 
HETATM   25  C   UNL     1      28.281  37.064  45.822  1.00  0.00     0.001 A 
ENDBRANCH  13  14
ENDBRANCH  10  13
ENDBRANCH   5   9
BRANCH   1  26
HETATM   26  C   UNL     1      25.707  47.528  49.805  1.00  0.00    -0.016 A 
HETATM   27  C   UNL     1      26.967  48.065  49.484  1.00  0.00     0.010 A 
HETATM   28  C   UNL     1      27.074  49.267  48.777  1.00  0.00     0.001 A 
HETATM   29  C   UNL     1      25.931  49.952  48.373  1.00  0.00     0.000 A 
HETATM   30  C   UNL     1      24.675  49.434  48.669  1.00  0.00     0.001 A 
HETATM   31  C   UNL     1      24.564  48.232  49.371  1.00  0.00     0.010 A 
ENDBRANCH   1  26
BRANCH   1  32
HETATM   32  C   UNL     1      26.019  46.211  51.993  1.00  0.00    -0.016 A 
HETATM   33  C   UNL     1      26.754  45.162  52.576  1.00  0.00     0.010 A 
HETATM   34  C   UNL     1      27.181  45.238  53.905  1.00  0.00     0.001 A 
HETATM   35  C   UNL     1      26.887  46.361  54.674  1.00  0.00     0.000 A 
HETATM   36  C   UNL     1      26.166  47.412  54.117  1.00  0.00     0.001 A 
HETATM   37  C   UNL     1      25.737  47.339  52.791  1.00  0.00     0.010 A 
ENDBRANCH   1  32
TORSDOF 5
ENDMDL
MODEL 3
REMARK VINA RESULT:     -10.0      3.193      8.305
REMARK  5 active torsions:
REMARK  status: ('A' for Active; 'I' for Inactive)
REMARK    1  A    between atoms: C_4  and  C_5 
REMARK    2  A    between atoms: C_5  and  C_6 
REMARK    3  A    between atoms: N_15  and  N_16 
REMARK       I    between atoms: N_16  and  C_17 
REMARK    4  A    between atoms: C_17  and  C_18 
REMARK    5  A    between atoms: C_18  and  C_19 
ROOT
HETATM    1  C   UNL     1      25.177  46.360  50.228  1.00  0.00     0.173 A 
HETATM    2  N   UNL     1      23.747  46.331  49.949  1.00  0.00    -0.315 N 
HETATM    3  C   UNL     1      23.382  45.288  49.132  1.00  0.00     0.346 A 
HETATM    4  O   UNL     1      22.232  45.037  48.808  1.00  0.00    -0.245 OA
HETATM    5  N   UNL     1      24.506  44.581  48.816  1.00  0.00    -0.167 N 
HETATM    6  C   UNL     1      25.616  45.058  49.476  1.00  0.00     0.285 A 
HETATM    7  O   UNL     1      26.732  44.550  49.492  1.00  0.00    -0.267 OA
HETATM    8  H   UNL     1      23.088  47.038  50.237  1.00  0.00     0.166 HD
ENDROOT
BRANCH   5   9
HETATM    9  N   UNL     1      24.476  43.381  48.117  1.00  0.00    -0.256 N 
HETATM   10  C   UNL     1      24.284  42.220  48.847  1.00  0.00     0.242 C 
HETATM   11  O   UNL     1      24.085  42.188  50.059  1.00  0.00    -0.271 OA
HETATM   12  H   UNL     1      25.155  43.324  47.357  1.00  0.00     0.191 HD
BRANCH  10  13
HETATM   13  C   UNL     1      24.198  40.980  47.988  1.00  0.00     0.166 C 
BRANCH  13  14
HETATM   14  C   UNL     1      25.382  40.712  47.083  1.00  0.00     0.074 A 
HETATM   15  N   UNL     1      25.445  41.351  45.953  1.00  0.00    -0.175 NA
HETATM   16  N   UNL     1      26.516  41.137  45.145  1.00  0.00    -0.243 N 
HETATM   17  C   UNL     1      27.575  40.302  45.406  1.00  0.00     0.272 A 
HETATM   18  H   UNL     1      26.553  41.679  44.284  1.00  0.00     0.192 HD
HETATM   19  O   UNL     1      28.525  40.182  44.642  1.00  0.00    -0.266 OA
HETATM   20  C   UNL     1      27.504  39.544  46.666  1.00  0.00     0.046 A 
HETATM   21  C   UNL     1      26.418  39.743  47.518  1.00  0.00     0.006 A 
HETATM   22  C   UNL     1      28.512  38.631  46.997  1.00  0.00     0.018 A 
HETATM   23  C   UNL     1      26.341  39.021  48.716  1.00  0.00     0.014 A 
HETATM   24  C   UNL     1      27.345  38.103  49.043  1.00  0.00     0.001 A 
HETATM   25  C   UNL     1      28.428  37.907  48.186  1.00  0.00     0.001 A 
ENDBRANCH  13  14
ENDBRANCH  10  13
ENDBRANCH   5   9
BRANCH   1  26
HETATM   26  C   UNL     1      25.731  47.659  49.627  1.00  0.00    -0.016 A 
HETATM   27  C   UNL     1      27.111  47.907  49.510  1.00  0.00     0.010 A 
HETATM   28  C   UNL     1      27.580  49.080  48.909  1.00  0.00     0.001 A 
HETATM   29  C   UNL     1      26.685  50.022  48.409  1.00  0.00     0.000 A 
HETATM   30  C   UNL     1      25.316  49.793  48.504  1.00  0.00     0.001 A 
HETATM   31  C   UNL     1      24.845  48.621  49.099  1.00  0.00     0.010 A 
ENDBRANCH   1  26
BRANCH   1  32
HETATM   32  C   UNL     1      25.489  46.191  51.725  1.00  0.00    -0.016 A 
HETATM   33  C   UNL     1      26.084  47.205  52.498  1.00  0.00     0.010 A 
HETATM   34  C   UNL     1      26.331  47.015  53.861  1.00  0.00     0.001 A 
HETATM   35  C   UNL     1      25.987  45.815  54.477  1.00  0.00     0.000 A 
HETATM   36  C   UNL     1      25.394  44.800  53.734  1.00  0.00     0.001 A 
HETATM   37  C   UNL     1      25.146  44.986  52.372  1.00  0.00     0.010 A 
ENDBRANCH   1  32
TORSDOF 5
ENDMDL
MODEL 4
REMARK VINA RESULT:      -9.9      5.475      8.661
REMARK  5 active torsions:
REMARK  status: ('A' for Active; 'I' for Inactive)
REMARK    1  A    between atoms: C_4  and  C_5 
REMARK    2  A    between atoms: C_5  and  C_6 
REMARK    3  A    between atoms: N_15  and  N_16 
REMARK       I    between atoms: N_16  and  C_17 
REMARK    4  A    between atoms: C_17  and  C_18 
REMARK    5  A    between atoms: C_18  and  C_19 
ROOT
HETATM    1  C   UNL     1      26.925  39.853  47.529  1.00  0.00     0.173 A 
HETATM    2  N   UNL     1      27.264  38.614  48.217  1.00  0.00    -0.315 N 
HETATM    3  C   UNL     1      28.030  38.817  49.340  1.00  0.00     0.346 A 
HETATM    4  O   UNL     1      28.387  37.931  50.099  1.00  0.00    -0.245 OA
HETATM    5  N   UNL     1      28.251  40.158  49.466  1.00  0.00    -0.167 N 
HETATM    6  C   UNL     1      27.575  40.883  48.512  1.00  0.00     0.285 A 
HETATM    7  O   UNL     1      27.478  42.105  48.454  1.00  0.00    -0.267 OA
HETATM    8  H   UNL     1      27.049  37.688  47.879  1.00  0.00     0.166 HD
ENDROOT
BRANCH   5   9
HETATM    9  N   UNL     1      28.876  40.722  50.572  1.00  0.00    -0.256 N 
HETATM   10  C   UNL     1      28.081  41.048  51.658  1.00  0.00     0.242 C 
HETATM   11  O   UNL     1      26.875  40.821  51.728  1.00  0.00    -0.271 OA
HETATM   12  H   UNL     1      29.611  41.391  50.339  1.00  0.00     0.191 HD
BRANCH  10  13
HETATM   13  C   UNL     1      28.864  41.590  52.832  1.00  0.00     0.166 C 
BRANCH  13  14
HETATM   14  C   UNL     1      28.475  42.973  53.310  1.00  0.00     0.074 A 
HETATM   15  N   UNL     1      27.480  43.567  52.723  1.00  0.00    -0.175 NA
HETATM   16  N   UNL     1      27.108  44.797  53.161  1.00  0.00    -0.243 N 
HETATM   17  C   UNL     1      27.680  45.498  54.195  1.00  0.00     0.272 A 
HETATM   18  H   UNL     1      26.302  45.220  52.704  1.00  0.00     0.192 HD
HETATM   19  O   UNL     1      27.269  46.595  54.556  1.00  0.00    -0.266 OA
HETATM   20  C   UNL     1      28.830  44.855  54.850  1.00  0.00     0.046 A 
HETATM   21  C   UNL     1      29.237  43.591  54.425  1.00  0.00     0.006 A 
HETATM   22  C   UNL     1      29.511  45.512  55.882  1.00  0.00     0.018 A 
HETATM   23  C   UNL     1      30.334  42.977  55.040  1.00  0.00     0.014 A 
HETATM   24  C   UNL     1      31.019  43.637  56.066  1.00  0.00     0.001 A 
HETATM   25  C   UNL     1      30.609  44.902  56.486  1.00  0.00     0.001 A 
ENDBRANCH  13  14
ENDBRANCH  10  13
ENDBRANCH   5   9
BRANCH   1  26
HETATM   26  C   UNL     1      27.581  39.797  46.142  1.00  0.00    -0.016 A 
HETATM   27  C   UNL     1      27.838  40.952  45.382  1.00  0.00     0.010 A 
HETATM   28  C   UNL     1      28.484  40.867  44.145  1.00  0.00     0.001 A 
HETATM   29  C   UNL     1      28.891  39.632  43.646  1.00  0.00     0.000 A 
HETATM   30  C   UNL     1      28.658  38.478  44.384  1.00  0.00     0.001 A 
HETATM   31  C   UNL     1      28.017  38.559  45.622  1.00  0.00     0.010 A 
ENDBRANCH   1  26
BRANCH   1  32
HETATM   32  C   UNL     1      25.408  40.106  47.484  1.00  0.00    -0.016 A 
HETATM   33  C   UNL     1      24.754  40.973  48.379  1.00  0.00     0.010 A 
HETATM   34  C   UNL     1      23.376  41.189  48.289  1.00  0.00     0.001 A 
HETATM   35  C   UNL     1      22.627  40.549  47.305  1.00  0.00     0.000 A 
HETATM   36  C   UNL     1      23.253  39.692  46.407  1.00  0.00     0.001 A 
HETATM   37  C   UNL     1      24.629  39.473  46.494  1.00  0.00     0.010 A 
ENDBRANCH   1  32
TORSDOF 5
ENDMDL
MODEL 5
REMARK VINA RESULT:      -9.9      6.399      9.161
REMARK  5 active torsions:
REMARK  status: ('A' for Active; 'I' for Inactive)
REMARK    1  A    between atoms: C_4  and  C_5 
REMARK    2  A    between atoms: C_5  and  C_6 
REMARK    3  A    between atoms: N_15  and  N_16 
REMARK       I    between atoms: N_16  and  C_17 
REMARK    4  A    between atoms: C_17  and  C_18 
REMARK    5  A    between atoms: C_18  and  C_19 
ROOT
HETATM    1  C   UNL     1      20.281  48.359  48.568  1.00  0.00     0.173 A 
HETATM    2  N   UNL     1      20.024  48.143  49.986  1.00  0.00    -0.315 N 
HETATM    3  C   UNL     1      18.972  48.890  50.459  1.00  0.00     0.346 A 
HETATM    4  O   UNL     1      18.546  48.833  51.602  1.00  0.00    -0.245 OA
HETATM    5  N   UNL     1      18.480  49.634  49.426  1.00  0.00    -0.167 N 
HETATM    6  C   UNL     1      19.108  49.341  48.237  1.00  0.00     0.285 A 
HETATM    7  O   UNL     1      18.795  49.751  47.124  1.00  0.00    -0.267 OA
HETATM    8  H   UNL     1      20.596  47.581  50.598  1.00  0.00     0.166 HD
ENDROOT
BRANCH   5   9
HETATM    9  N   UNL     1      17.325  50.400  49.526  1.00  0.00    -0.256 N 
HETATM   10  C   UNL     1      17.471  51.737  49.856  1.00  0.00     0.242 C 
HETATM   11  O   UNL     1      18.553  52.299  50.012  1.00  0.00    -0.271 OA
HETATM   12  H   UNL     1      16.540  49.915  49.962  1.00  0.00     0.191 HD
BRANCH  10  13
HETATM   13  C   UNL     1      16.164  52.496  49.873  1.00  0.00     0.166 C 
BRANCH  13  14
HETATM   14  C   UNL     1      15.619  52.915  48.523  1.00  0.00     0.074 A 
HETATM   15  N   UNL     1      16.239  52.502  47.459  1.00  0.00    -0.175 NA
HETATM   16  N   UNL     1      15.744  52.853  46.243  1.00  0.00    -0.243 N 
HETATM   17  C   UNL     1      14.621  53.609  46.011  1.00  0.00     0.272 A 
HETATM   18  H   UNL     1      16.232  52.484  45.429  1.00  0.00     0.192 HD
HETATM   19  O   UNL     1      14.216  53.860  44.882  1.00  0.00    -0.266 OA
HETATM   20  C   UNL     1      13.926  54.114  47.206  1.00  0.00     0.046 A 
HETATM   21  C   UNL     1      14.408  53.771  48.469  1.00  0.00     0.006 A 
HETATM   22  C   UNL     1      12.800  54.934  47.072  1.00  0.00     0.018 A 
HETATM   23  C   UNL     1      13.754  54.252  49.610  1.00  0.00     0.014 A 
HETATM   24  C   UNL     1      12.633  55.078  49.476  1.00  0.00     0.001 A 
HETATM   25  C   UNL     1      12.156  55.419  48.210  1.00  0.00     0.001 A 
ENDBRANCH  13  14
ENDBRANCH  10  13
ENDBRANCH   5   9
BRANCH   1  26
HETATM   26  C   UNL     1      21.681  48.977  48.448  1.00  0.00    -0.016 A 
HETATM   27  C   UNL     1      21.901  50.236  47.862  1.00  0.00     0.010 A 
HETATM   28  C   UNL     1      23.184  50.792  47.818  1.00  0.00     0.001 A 
HETATM   29  C   UNL     1      24.268  50.107  48.361  1.00  0.00     0.000 A 
HETATM   30  C   UNL     1      24.072  48.866  48.956  1.00  0.00     0.001 A 
HETATM   31  C   UNL     1      22.792  48.310  49.007  1.00  0.00     0.010 A 
ENDBRANCH   1  26
BRANCH   1  32
HETATM   32  C   UNL     1      20.100  47.078  47.735  1.00  0.00    -0.016 A 
HETATM   33  C   UNL     1      20.740  46.878  46.498  1.00  0.00     0.010 A 
HETATM   34  C   UNL     1      20.563  45.689  45.783  1.00  0.00     0.001 A 
HETATM   35  C   UNL     1      19.748  44.680  46.290  1.00  0.00     0.000 A 
HETATM   36  C   UNL     1      19.109  44.855  47.512  1.00  0.00     0.001 A 
HETATM   37  C   UNL     1      19.283  46.040  48.228  1.00  0.00     0.010 A 
ENDBRANCH   1  32
TORSDOF 5
ENDMDL
MODEL 6
REMARK VINA RESULT:      -9.8      1.261      3.666
REMARK  5 active torsions:
REMARK  status: ('A' for Active; 'I' for Inactive)
REMARK    1  A    between atoms: C_4  and  C_5 
REMARK    2  A    between atoms: C_5  and  C_6 
REMARK    3  A    between atoms: N_15  and  N_16 
REMARK       I    between atoms: N_16  and  C_17 
REMARK    4  A    between atoms: C_17  and  C_18 
REMARK    5  A    between atoms: C_18  and  C_19 
ROOT
HETATM    1  C   UNL     1      26.482  43.900  51.205  1.00  0.00     0.173 A 
HETATM    2  N   UNL     1      27.496  44.634  50.459  1.00  0.00    -0.315 N 
HETATM    3  C   UNL     1      26.964  45.607  49.647  1.00  0.00     0.346 A 
HETATM    4  O   UNL     1      27.627  46.378  48.971  1.00  0.00    -0.245 OA
HETATM    5  N   UNL     1      25.607  45.581  49.787  1.00  0.00    -0.167 N 
HETATM    6  C   UNL     1      25.205  44.681  50.747  1.00  0.00     0.285 A 
HETATM    7  O   UNL     1      24.067  44.532  51.180  1.00  0.00    -0.267 OA
HETATM    8  H   UNL     1      28.481  44.414  50.453  1.00  0.00     0.166 HD
ENDROOT
BRANCH   5   9
HETATM    9  N   UNL     1      24.768  46.527  49.210  1.00  0.00    -0.256 N 
HETATM   10  C   UNL     1      24.480  47.662  49.949  1.00  0.00     0.242 C 
HETATM   11  O   UNL     1      24.960  47.911  51.053  1.00  0.00    -0.271 OA
HETATM   12  H   UNL     1      23.990  46.128  48.683  1.00  0.00     0.191 HD
BRANCH  10  13
HETATM   13  C   UNL     1      23.617  48.657  49.208  1.00  0.00     0.166 C 
BRANCH  13  14
HETATM   14  C   UNL     1      22.163  48.275  49.028  1.00  0.00     0.074 A 
HETATM   15  N   UNL     1      21.857  47.012  49.036  1.00  0.00    -0.175 NA
HETATM   16  N   UNL     1      20.552  46.659  48.900  1.00  0.00    -0.243 N 
HETATM   17  C   UNL     1      19.490  47.519  48.763  1.00  0.00     0.272 A 
HETATM   18  H   UNL     1      20.342  45.665  48.946  1.00  0.00     0.192 HD
HETATM   19  O   UNL     1      18.331  47.128  48.676  1.00  0.00    -0.266 OA
HETATM   20  C   UNL     1      19.821  48.952  48.717  1.00  0.00     0.046 A 
HETATM   21  C   UNL     1      21.151  49.347  48.855  1.00  0.00     0.006 A 
HETATM   22  C   UNL     1      18.812  49.903  48.530  1.00  0.00     0.018 A 
HETATM   23  C   UNL     1      21.474  50.709  48.808  1.00  0.00     0.014 A 
HETATM   24  C   UNL     1      20.466  51.659  48.613  1.00  0.00     0.001 A 
HETATM   25  C   UNL     1      19.137  51.258  48.474  1.00  0.00     0.001 A 
ENDBRANCH  13  14
ENDBRANCH  10  13
ENDBRANCH   5   9
BRANCH   1  26
HETATM   26  C   UNL     1      26.538  42.440  50.734  1.00  0.00    -0.016 A 
HETATM   27  C   UNL     1      25.559  41.881  49.894  1.00  0.00     0.010 A 
HETATM   28  C   UNL     1      25.670  40.562  49.442  1.00  0.00     0.001 A 
HETATM   29  C   UNL     1      26.761  39.780  49.812  1.00  0.00     0.000 A 
HETATM   30  C   UNL     1      27.748  40.315  50.633  1.00  0.00     0.001 A 
HETATM   31  C   UNL     1      27.642  41.633  51.083  1.00  0.00     0.010 A 
ENDBRANCH   1  26
BRANCH   1  32
HETATM   32  C   UNL     1      26.637  44.063  52.727  1.00  0.00    -0.016 A 
HETATM   33  C   UNL     1      25.618  43.725  53.637  1.00  0.00     0.010 A 
HETATM   34  C   UNL     1      25.809  43.870  55.014  1.00  0.00     0.001 A 
HETATM   35  C   UNL     1      27.019  44.350  55.508  1.00  0.00     0.000 A 
HETATM   36  C   UNL     1      28.042  44.686  54.628  1.00  0.00     0.001 A 
HETATM   37  C   UNL     1      27.854  44.544  53.252  1.00  0.00     0.010 A 
ENDBRANCH   1  32
TORSDOF 5
ENDMDL
MODEL 7
REMARK VINA RESULT:      -9.7      3.272      7.978
REMARK  5 active torsions:
REMARK  status: ('A' for Active; 'I' for Inactive)
REMARK    1  A    between atoms: C_4  and  C_5 
REMARK    2  A    between atoms: C_5  and  C_6 
REMARK    3  A    between atoms: N_15  and  N_16 
REMARK       I    between atoms: N_16  and  C_17 
REMARK    4  A    between atoms: C_17  and  C_18 
REMARK    5  A    between atoms: C_18  and  C_19 
ROOT
HETATM    1  C   UNL     1      25.537  46.304  50.449  1.00  0.00     0.173 A 
HETATM    2  N   UNL     1      24.121  45.998  50.293  1.00  0.00    -0.315 N 
HETATM    3  C   UNL     1      23.897  44.866  49.547  1.00  0.00     0.346 A 
HETATM    4  O   UNL     1      22.793  44.390  49.331  1.00  0.00    -0.245 OA
HETATM    5  N   UNL     1      25.107  44.364  49.163  1.00  0.00    -0.167 N 
HETATM    6  C   UNL     1      26.154  45.070  49.709  1.00  0.00     0.285 A 
HETATM    7  O   UNL     1      27.344  44.779  49.648  1.00  0.00    -0.267 OA
HETATM    8  H   UNL     1      23.365  46.585  50.611  1.00  0.00     0.166 HD
ENDROOT
BRANCH   5   9
HETATM    9  N   UNL     1      25.249  43.145  48.511  1.00  0.00    -0.256 N 
HETATM   10  C   UNL     1      25.323  42.006  49.294  1.00  0.00     0.242 C 
HETATM   11  O   UNL     1      25.217  41.998  50.519  1.00  0.00    -0.271 OA
HETATM   12  H   UNL     1      25.874  43.174  47.704  1.00  0.00     0.191 HD
BRANCH  10  13
HETATM   13  C   UNL     1      25.408  40.729  48.489  1.00  0.00     0.166 C 
BRANCH  13  14
HETATM   14  C   UNL     1      26.273  40.780  47.248  1.00  0.00     0.074 A 
HETATM   15  N   UNL     1      27.492  41.212  47.368  1.00  0.00    -0.175 NA
HETATM   16  N   UNL     1      28.284  41.239  46.265  1.00  0.00    -0.243 N 
HETATM   17  C   UNL     1      27.927  40.836  45.001  1.00  0.00     0.272 A 
HETATM   18  H   UNL     1      29.244  41.549  46.400  1.00  0.00     0.192 HD
HETATM   19  O   UNL     1      28.708  40.859  44.056  1.00  0.00    -0.266 OA
HETATM   20  C   UNL     1      26.539  40.375  44.839  1.00  0.00     0.046 A 
HETATM   21  C   UNL     1      25.701  40.334  45.952  1.00  0.00     0.006 A 
HETATM   22  C   UNL     1      26.068  39.990  43.578  1.00  0.00     0.018 A 
HETATM   23  C   UNL     1      24.378  39.902  45.804  1.00  0.00     0.014 A 
HETATM   24  C   UNL     1      23.905  39.524  44.542  1.00  0.00     0.001 A 
HETATM   25  C   UNL     1      24.747  39.568  43.431  1.00  0.00     0.001 A 
ENDBRANCH  13  14
ENDBRANCH  10  13
ENDBRANCH   5   9
BRANCH   1  26
HETATM   26  C   UNL     1      25.789  47.652  49.757  1.00  0.00    -0.016 A 
HETATM   27  C   UNL     1      27.084  48.144  49.516  1.00  0.00     0.010 A 
HETATM   28  C   UNL     1      27.277  49.352  48.836  1.00  0.00     0.001 A 
HETATM   29  C   UNL     1      26.185  50.086  48.381  1.00  0.00     0.000 A 
HETATM   30  C   UNL     1      24.896  49.613  48.598  1.00  0.00     0.001 A 
HETATM   31  C   UNL     1      24.700  48.406  49.272  1.00  0.00     0.010 A 
ENDBRANCH   1  26
BRANCH   1  32
HETATM   32  C   UNL     1      25.989  46.272  51.919  1.00  0.00    -0.016 A 
HETATM   33  C   UNL     1      26.703  45.192  52.472  1.00  0.00     0.010 A 
HETATM   34  C   UNL     1      27.111  45.213  53.809  1.00  0.00     0.001 A 
HETATM   35  C   UNL     1      26.820  46.310  54.616  1.00  0.00     0.000 A 
HETATM   36  C   UNL     1      26.120  47.390  54.088  1.00  0.00     0.001 A 
HETATM   37  C   UNL     1      25.709  47.372  52.755  1.00  0.00     0.010 A 
ENDBRANCH   1  32
TORSDOF 5
ENDMDL
MODEL 8
REMARK VINA RESULT:      -9.7      3.278      7.574
REMARK  5 active torsions:
REMARK  status: ('A' for Active; 'I' for Inactive)
REMARK    1  A    between atoms: C_4  and  C_5 
REMARK    2  A    between atoms: C_5  and  C_6 
REMARK    3  A    between atoms: N_15  and  N_16 
REMARK       I    between atoms: N_16  and  C_17 
REMARK    4  A    between atoms: C_17  and  C_18 
REMARK    5  A    between atoms: C_18  and  C_19 
ROOT
HETATM    1  C   UNL     1      25.512  46.181  50.481  1.00  0.00     0.173 A 
HETATM    2  N   UNL     1      24.091  45.870  50.384  1.00  0.00    -0.315 N 
HETATM    3  C   UNL     1      23.839  44.741  49.642  1.00  0.00     0.346 A 
HETATM    4  O   UNL     1      22.729  44.263  49.472  1.00  0.00    -0.245 OA
HETATM    5  N   UNL     1      25.033  44.246  49.203  1.00  0.00    -0.167 N 
HETATM    6  C   UNL     1      26.100  44.954  49.707  1.00  0.00     0.285 A 
HETATM    7  O   UNL     1      27.287  44.667  49.594  1.00  0.00    -0.267 OA
HETATM    8  H   UNL     1      23.347  46.453  50.739  1.00  0.00     0.166 HD
ENDROOT
BRANCH   5   9
HETATM    9  N   UNL     1      25.151  43.032  48.538  1.00  0.00    -0.256 N 
HETATM   10  C   UNL     1      25.290  41.891  49.311  1.00  0.00     0.242 C 
HETATM   11  O   UNL     1      25.261  41.878  50.540  1.00  0.00    -0.271 OA
HETATM   12  H   UNL     1      25.723  43.072  47.694  1.00  0.00     0.191 HD
BRANCH  10  13
HETATM   13  C   UNL     1      25.342  40.619  48.497  1.00  0.00     0.166 C 
BRANCH  13  14
HETATM   14  C   UNL     1      24.966  40.746  47.036  1.00  0.00     0.074 A 
HETATM   15  N   UNL     1      23.704  40.788  46.730  1.00  0.00    -0.175 NA
HETATM   16  N   UNL     1      23.356  40.927  45.424  1.00  0.00    -0.243 N 
HETATM   17  C   UNL     1      24.220  41.044  44.363  1.00  0.00     0.272 A 
HETATM   18  H   UNL     1      22.360  40.991  45.222  1.00  0.00     0.192 HD
HETATM   19  O   UNL     1      23.832  41.199  43.210  1.00  0.00    -0.266 OA
HETATM   20  C   UNL     1      25.653  40.966  44.687  1.00  0.00     0.046 A 
HETATM   21  C   UNL     1      26.043  40.824  46.018  1.00  0.00     0.006 A 
HETATM   22  C   UNL     1      26.610  41.025  43.667  1.00  0.00     0.018 A 
HETATM   23  C   UNL     1      27.405  40.743  46.332  1.00  0.00     0.014 A 
HETATM   24  C   UNL     1      28.361  40.795  45.311  1.00  0.00     0.001 A 
HETATM   25  C   UNL     1      27.965  40.935  43.982  1.00  0.00     0.001 A 
ENDBRANCH  13  14
ENDBRANCH  10  13
ENDBRANCH   5   9
BRANCH   1  26
HETATM   26  C   UNL     1      25.729  47.533  49.787  1.00  0.00    -0.016 A 
HETATM   27  C   UNL     1      27.011  48.030  49.490  1.00  0.00     0.010 A 
HETATM   28  C   UNL     1      27.169  49.243  48.810  1.00  0.00     0.001 A 
HETATM   29  C   UNL     1      26.056  49.977  48.410  1.00  0.00     0.000 A 
HETATM   30  C   UNL     1      24.779  49.499  48.683  1.00  0.00     0.001 A 
HETATM   31  C   UNL     1      24.617  48.287  49.357  1.00  0.00     0.010 A 
ENDBRANCH   1  26
BRANCH   1  32
HETATM   32  C   UNL     1      26.027  46.141  51.930  1.00  0.00    -0.016 A 
HETATM   33  C   UNL     1      26.676  45.019  52.477  1.00  0.00     0.010 A 
HETATM   34  C   UNL     1      27.146  45.033  53.793  1.00  0.00     0.001 A 
HETATM   35  C   UNL     1      26.982  46.167  54.585  1.00  0.00     0.000 A 
HETATM   36  C   UNL     1      26.348  47.290  54.064  1.00  0.00     0.001 A 
HETATM   37  C   UNL     1      25.876  47.278  52.750  1.00  0.00     0.010 A 
ENDBRANCH   1  32
TORSDOF 5
ENDMDL
MODEL 9
REMARK VINA RESULT:      -9.7      1.988      3.936
REMARK  5 active torsions:
REMARK  status: ('A' for Active; 'I' for Inactive)
REMARK    1  A    between atoms: C_4  and  C_5 
REMARK    2  A    between atoms: C_5  and  C_6 
REMARK    3  A    between atoms: N_15  and  N_16 
REMARK       I    between atoms: N_16  and  C_17 
REMARK    4  A    between atoms: C_17  and  C_18 
REMARK    5  A    between atoms: C_18  and  C_19 
ROOT
HETATM    1  C   UNL     1      26.906  44.927  52.376  1.00  0.00     0.173 A 
HETATM    2  N   UNL     1      27.655  45.396  51.218  1.00  0.00    -0.315 N 
HETATM    3  C   UNL     1      26.887  45.477  50.081  1.00  0.00     0.346 A 
HETATM    4  O   UNL     1      27.289  45.893  49.006  1.00  0.00    -0.245 OA
HETATM    5  N   UNL     1      25.622  45.072  50.393  1.00  0.00    -0.167 N 
HETATM    6  C   UNL     1      25.482  44.811  51.737  1.00  0.00     0.285 A 
HETATM    7  O   UNL     1      24.438  44.557  52.329  1.00  0.00    -0.267 OA
HETATM    8  H   UNL     1      28.650  45.566  51.203  1.00  0.00     0.166 HD
ENDROOT
BRANCH   5   9
HETATM    9  N   UNL     1      24.557  45.161  49.505  1.00  0.00    -0.256 N 
HETATM   10  C   UNL     1      23.916  46.385  49.396  1.00  0.00     0.242 C 
HETATM   11  O   UNL     1      24.263  47.404  49.988  1.00  0.00    -0.271 OA
HETATM   12  H   UNL     1      23.953  44.339  49.495  1.00  0.00     0.191 HD
BRANCH  10  13
HETATM   13  C   UNL     1      22.819  46.395  48.356  1.00  0.00     0.166 C 
BRANCH  13  14
HETATM   14  C   UNL     1      21.519  47.056  48.766  1.00  0.00     0.074 A 
HETATM   15  N   UNL     1      20.557  46.297  49.197  1.00  0.00    -0.175 NA
HETATM   16  N   UNL     1      19.396  46.882  49.591  1.00  0.00    -0.243 N 
HETATM   17  C   UNL     1      19.126  48.229  49.592  1.00  0.00     0.272 A 
HETATM   18  H   UNL     1      18.675  46.264  49.957  1.00  0.00     0.192 HD
HETATM   19  O   UNL     1      18.062  48.689  49.992  1.00  0.00    -0.266 OA
HETATM   20  C   UNL     1      20.193  49.101  49.074  1.00  0.00     0.046 A 
HETATM   21  C   UNL     1      21.397  48.532  48.664  1.00  0.00     0.006 A 
HETATM   22  C   UNL     1      19.993  50.484  48.990  1.00  0.00     0.018 A 
HETATM   23  C   UNL     1      22.414  49.355  48.166  1.00  0.00     0.014 A 
HETATM   24  C   UNL     1      22.211  50.737  48.074  1.00  0.00     0.001 A 
HETATM   25  C   UNL     1      21.004  51.300  48.484  1.00  0.00     0.001 A 
ENDBRANCH  13  14
ENDBRANCH  10  13
ENDBRANCH   5   9
BRANCH   1  26
HETATM   26  C   UNL     1      27.523  43.588  52.804  1.00  0.00    -0.016 A 
HETATM   27  C   UNL     1      26.905  42.738  53.739  1.00  0.00     0.010 A 
HETATM   28  C   UNL     1      27.470  41.500  54.065  1.00  0.00     0.001 A 
HETATM   29  C   UNL     1      28.655  41.086  53.463  1.00  0.00     0.000 A 
HETATM   30  C   UNL     1      29.278  41.905  52.528  1.00  0.00     0.001 A 
HETATM   31  C   UNL     1      28.715  43.139  52.196  1.00  0.00     0.010 A 
ENDBRANCH   1  26
BRANCH   1  32
HETATM   32  C   UNL     1      26.854  45.970  53.507  1.00  0.00    -0.016 A 
HETATM   33  C   UNL     1      27.747  45.960  54.594  1.00  0.00     0.010 A 
HETATM   34  C   UNL     1      27.675  46.940  55.589  1.00  0.00     0.001 A 
HETATM   35  C   UNL     1      26.717  47.948  55.515  1.00  0.00     0.000 A 
HETATM   36  C   UNL     1      25.827  47.980  54.447  1.00  0.00     0.001 A 
HETATM   37  C   UNL     1      25.895  47.002  53.453  1.00  0.00     0.010 A 
ENDBRANCH   1  32
TORSDOF 5
ENDMDL
MODEL 10
REMARK VINA RESULT:      -9.6      5.470      8.751
REMARK  5 active torsions:
REMARK  status: ('A' for Active; 'I' for Inactive)
REMARK    1  A    between atoms: C_4  and  C_5 
REMARK    2  A    between atoms: C_5  and  C_6 
REMARK    3  A    between atoms: N_15  and  N_16 
REMARK       I    between atoms: N_16  and  C_17 
REMARK    4  A    between atoms: C_17  and  C_18 
REMARK    5  A    between atoms: C_18  and  C_19 
ROOT
HETATM    1  C   UNL     1      27.838  38.077  47.723  1.00  0.00     0.173 A 
HETATM    2  N   UNL     1      29.163  37.610  48.109  1.00  0.00    -0.315 N 
HETATM    3  C   UNL     1      29.540  38.039  49.359  1.00  0.00     0.346 A 
HETATM    4  O   UNL     1      30.584  37.727  49.907  1.00  0.00    -0.245 OA
HETATM    5  N   UNL     1      28.529  38.801  49.869  1.00  0.00    -0.167 N 
HETATM    6  C   UNL     1      27.432  38.823  49.039  1.00  0.00     0.285 A 
HETATM    7  O   UNL     1      26.335  39.313  49.288  1.00  0.00    -0.267 OA
HETATM    8  H   UNL     1      29.793  37.100  47.507  1.00  0.00     0.166 HD
ENDROOT
BRANCH   5   9
HETATM    9  N   UNL     1      28.525  39.279  51.173  1.00  0.00    -0.256 N 
HETATM   10  C   UNL     1      28.513  40.653  51.351  1.00  0.00     0.242 C 
HETATM   11  O   UNL     1      28.450  41.470  50.435  1.00  0.00    -0.271 OA
HETATM   12  H   UNL     1      29.120  38.752  51.813  1.00  0.00     0.191 HD
BRANCH  10  13
HETATM   13  C   UNL     1      28.441  41.068  52.802  1.00  0.00     0.166 C 
BRANCH  13  14
HETATM   14  C   UNL     1      27.970  42.483  53.068  1.00  0.00     0.074 A 
HETATM   15  N   UNL     1      26.917  42.906  52.436  1.00  0.00    -0.175 NA
HETATM   16  N   UNL     1      26.471  44.165  52.686  1.00  0.00    -0.243 N 
HETATM   17  C   UNL     1      27.025  45.061  53.568  1.00  0.00     0.272 A 
HETATM   18  H   UNL     1      25.624  44.453  52.201  1.00  0.00     0.192 HD
HETATM   19  O   UNL     1      26.549  46.173  53.764  1.00  0.00    -0.266 OA
HETATM   20  C   UNL     1      28.239  44.611  54.267  1.00  0.00     0.046 A 
HETATM   21  C   UNL     1      28.721  43.323  54.034  1.00  0.00     0.006 A 
HETATM   22  C   UNL     1      28.903  45.471  55.150  1.00  0.00     0.018 A 
HETATM   23  C   UNL     1      29.878  42.891  54.692  1.00  0.00     0.014 A 
HETATM   24  C   UNL     1      30.546  43.753  55.569  1.00  0.00     0.001 A 
HETATM   25  C   UNL     1      30.061  45.041  55.797  1.00  0.00     0.001 A 
ENDBRANCH  13  14
ENDBRANCH  10  13
ENDBRANCH   5   9
BRANCH   1  26
HETATM   26  C   UNL     1      28.015  38.992  46.503  1.00  0.00    -0.016 A 
HETATM   27  C   UNL     1      28.065  40.393  46.611  1.00  0.00     0.010 A 
HETATM   28  C   UNL     1      28.280  41.192  45.484  1.00  0.00     0.001 A 
HETATM   29  C   UNL     1      28.456  40.610  44.231  1.00  0.00     0.000 A 
HETATM   30  C   UNL     1      28.422  39.226  44.101  1.00  0.00     0.001 A 
HETATM   31  C   UNL     1      28.212  38.425  45.225  1.00  0.00     0.010 A 
ENDBRANCH   1  26
BRANCH   1  32
HETATM   32  C   UNL     1      26.849  36.921  47.489  1.00  0.00    -0.016 A 
HETATM   33  C   UNL     1      25.458  37.114  47.405  1.00  0.00     0.010 A 
HETATM   34  C   UNL     1      24.598  36.037  47.171  1.00  0.00     0.001 A 
HETATM   35  C   UNL     1      25.109  34.752  47.013  1.00  0.00     0.000 A 
HETATM   36  C   UNL     1      26.481  34.538  47.088  1.00  0.00     0.001 A 
HETATM   37  C   UNL     1      27.343  35.611  47.322  1.00  0.00     0.010 A 
ENDBRANCH   1  32
TORSDOF 5
ENDMDL
