MODEL 1
REMARK VINA RESULT:      -8.1      0.000      0.000
REMARK  4 active torsions:
REMARK  status: ('A' for Active; 'I' for Inactive)
REMARK    1  A    between atoms: C_2  and  N_3 
REMARK    2  A    between atoms: C_2  and  C_13 
REMARK       I    between atoms: N_3  and  C_4 
REMARK    3  A    between atoms: C_4  and  C_5 
REMARK    4  A    between atoms: C_6  and  C_7 
ROOT
HETATM    1  C   UNL     1      24.291  43.833  50.798  1.00  0.00     0.040 C 
HETATM    2  C   UNL     1      24.657  45.025  51.676  1.00  0.00     0.150 C 
ENDROOT
BRANCH   2   3
HETATM    3  N   UNL     1      25.737  44.675  52.583  1.00  0.00    -0.346 N 
HETATM    4  C   UNL     1      25.490  44.378  53.899  1.00  0.00     0.241 C 
HETATM    5  O   UNL     1      24.366  44.329  54.386  1.00  0.00    -0.269 OA
HETATM    6  H   UNL     1      26.670  44.945  52.300  1.00  0.00     0.163 HD
BRANCH   4   7
HETATM    7  C   UNL     1      26.726  44.151  54.686  1.00  0.00     0.075 C 
HETATM    8  C   UNL     1      27.646  45.125  54.779  1.00  0.00     0.017 C 
BRANCH   8   9
HETATM    9  C   UNL     1      28.871  45.057  55.520  1.00  0.00    -0.029 A 
HETATM   10  C   UNL     1      29.082  45.835  56.641  1.00  0.00     0.061 A 
HETATM   11  S   UNL     1      30.617  45.564  57.351  1.00  0.00    -0.113 SA
HETATM   12  C   UNL     1      31.015  44.399  56.167  1.00  0.00     0.050 A 
HETATM   13  C   UNL     1      30.000  44.222  55.250  1.00  0.00     0.019 A 
ENDBRANCH   8   9
ENDBRANCH   4   7
ENDBRANCH   2   3
BRANCH   2  14
HETATM   14  C   UNL     1      25.093  46.208  50.866  1.00  0.00     0.127 A 
HETATM   15  N   UNL     1      26.320  46.646  50.662  1.00  0.00    -0.231 NA
HETATM   16  C   UNL     1      26.186  47.754  49.861  1.00  0.00     0.085 A 
HETATM   17  C   UNL     1      24.848  48.009  49.581  1.00  0.00     0.062 A 
HETATM   18  C   UNL     1      27.169  48.604  49.332  1.00  0.00     0.034 A 
HETATM   19  N   UNL     1      24.172  47.018  50.241  1.00  0.00    -0.341 N 
HETATM   20  C   UNL     1      24.419  49.078  48.793  1.00  0.00     0.032 A 
HETATM   21  H   UNL     1      23.167  46.908  50.308  1.00  0.00     0.167 HD
HETATM   22  C   UNL     1      25.414  49.913  48.272  1.00  0.00     0.002 A 
HETATM   23  C   UNL     1      26.768  49.683  48.535  1.00  0.00     0.002 A 
ENDBRANCH   2  14
TORSDOF 4
ENDMDL
MODEL 2
REMARK VINA RESULT:      -7.7      4.031      7.528
REMARK  4 active torsions:
REMARK  status: ('A' for Active; 'I' for Inactive)
REMARK    1  A    between atoms: C_2  and  N_3 
REMARK    2  A    between atoms: C_2  and  C_13 
REMARK       I    between atoms: N_3  and  C_4 
REMARK    3  A    between atoms: C_4  and  C_5 
REMARK    4  A    between atoms: C_6  and  C_7 
ROOT
HETATM    1  C   UNL     1      27.012  47.492  54.077  1.00  0.00     0.040 C 
HETATM    2  C   UNL     1      26.913  46.010  54.426  1.00  0.00     0.150 C 
ENDROOT
BRANCH   2   3
HETATM    3  N   UNL     1      26.804  45.210  53.218  1.00  0.00    -0.346 N 
HETATM    4  C   UNL     1      25.751  44.352  53.029  1.00  0.00     0.241 C 
HETATM    5  O   UNL     1      24.816  44.239  53.814  1.00  0.00    -0.269 OA
HETATM    6  H   UNL     1      27.652  45.084  52.680  1.00  0.00     0.163 HD
BRANCH   4   7
HETATM    7  C   UNL     1      25.870  43.548  51.789  1.00  0.00     0.075 C 
HETATM    8  C   UNL     1      27.015  42.897  51.523  1.00  0.00     0.017 C 
BRANCH   8   9
HETATM    9  C   UNL     1      27.265  42.068  50.381  1.00  0.00    -0.029 A 
HETATM   10  C   UNL     1      28.060  40.942  50.466  1.00  0.00     0.061 A 
HETATM   11  S   UNL     1      28.197  40.120  48.970  1.00  0.00    -0.113 SA
HETATM   12  C   UNL     1      27.190  41.259  48.193  1.00  0.00     0.050 A 
HETATM   13  C   UNL     1      26.761  42.246  49.055  1.00  0.00     0.019 A 
ENDBRANCH   8   9
ENDBRANCH   4   7
ENDBRANCH   2   3
BRANCH   2  14
HETATM   14  C   UNL     1      28.108  45.533  55.194  1.00  0.00     0.127 A 
HETATM   15  N   UNL     1      28.943  44.560  54.880  1.00  0.00    -0.231 NA
HETATM   16  C   UNL     1      29.856  44.515  55.905  1.00  0.00     0.085 A 
HETATM   17  C   UNL     1      29.566  45.468  56.875  1.00  0.00     0.062 A 
HETATM   18  C   UNL     1      30.966  43.676  56.081  1.00  0.00     0.034 A 
HETATM   19  N   UNL     1      28.443  46.094  56.406  1.00  0.00    -0.341 N 
HETATM   20  C   UNL     1      30.327  45.641  58.033  1.00  0.00     0.032 A 
HETATM   21  H   UNL     1      27.910  46.818  56.873  1.00  0.00     0.167 HD
HETATM   22  C   UNL     1      31.432  44.797  58.189  1.00  0.00     0.002 A 
HETATM   23  C   UNL     1      31.750  43.829  57.232  1.00  0.00     0.002 A 
ENDBRANCH   2  14
TORSDOF 4
ENDMDL
MODEL 3
REMARK VINA RESULT:      -7.6      3.405      7.753
REMARK  4 active torsions:
REMARK  status: ('A' for Active; 'I' for Inactive)
REMARK    1  A    between atoms: C_2  and  N_3 
REMARK    2  A    between atoms: C_2  and  C_13 
REMARK       I    between atoms: N_3  and  C_4 
REMARK    3  A    between atoms: C_4  and  C_5 
REMARK    4  A    between atoms: C_6  and  C_7 
ROOT
HETATM    1  C   UNL     1      27.624  41.750  52.295  1.00  0.00     0.040 C 
HETATM    2  C   UNL     1      28.305  43.104  52.121  1.00  0.00     0.150 C 
ENDROOT
BRANCH   2   3
HETATM    3  N   UNL     1      27.365  44.083  51.600  1.00  0.00    -0.346 N 
HETATM    4  C   UNL     1      26.989  44.073  50.282  1.00  0.00     0.241 C 
HETATM    5  O   UNL     1      27.360  43.228  49.475  1.00  0.00    -0.269 OA
HETATM    6  H   UNL     1      27.238  44.924  52.149  1.00  0.00     0.163 HD
BRANCH   4   7
HETATM    7  C   UNL     1      26.109  45.210  49.919  1.00  0.00     0.075 C 
HETATM    8  C   UNL     1      26.627  46.444  49.804  1.00  0.00     0.017 C 
BRANCH   8   9
HETATM    9  C   UNL     1      25.905  47.628  49.439  1.00  0.00    -0.029 A 
HETATM   10  C   UNL     1      24.533  47.707  49.572  1.00  0.00     0.061 A 
HETATM   11  S   UNL     1      23.911  49.224  49.078  1.00  0.00    -0.113 SA
HETATM   12  C   UNL     1      25.473  49.793  48.684  1.00  0.00     0.050 A 
HETATM   13  C   UNL     1      26.446  48.846  48.922  1.00  0.00     0.019 A 
ENDBRANCH   8   9
ENDBRANCH   4   7
ENDBRANCH   2   3
BRANCH   2  14
HETATM   14  C   UNL     1      28.854  43.627  53.414  1.00  0.00     0.127 A 
HETATM   15  N   UNL     1      28.501  44.718  54.066  1.00  0.00    -0.231 NA
HETATM   16  C   UNL     1      29.301  44.754  55.182  1.00  0.00     0.085 A 
HETATM   17  C   UNL     1      30.173  43.671  55.207  1.00  0.00     0.062 A 
HETATM   18  C   UNL     1      29.343  45.691  56.225  1.00  0.00     0.034 A 
HETATM   19  N   UNL     1      29.877  42.976  54.065  1.00  0.00    -0.341 N 
HETATM   20  C   UNL     1      31.103  43.459  56.225  1.00  0.00     0.032 A 
HETATM   21  H   UNL     1      30.347  42.147  53.719  1.00  0.00     0.167 HD
HETATM   22  C   UNL     1      31.129  44.402  57.259  1.00  0.00     0.002 A 
HETATM   23  C   UNL     1      30.265  45.501  57.263  1.00  0.00     0.002 A 
ENDBRANCH   2  14
TORSDOF 4
ENDMDL
MODEL 4
REMARK VINA RESULT:      -7.3      4.934      8.774
REMARK  4 active torsions:
REMARK  status: ('A' for Active; 'I' for Inactive)
REMARK    1  A    between atoms: C_2  and  N_3 
REMARK    2  A    between atoms: C_2  and  C_13 
REMARK       I    between atoms: N_3  and  C_4 
REMARK    3  A    between atoms: C_4  and  C_5 
REMARK    4  A    between atoms: C_6  and  C_7 
ROOT
HETATM    1  C   UNL     1      23.541  45.362  49.249  1.00  0.00     0.040 C 
HETATM    2  C   UNL     1      24.209  46.688  49.599  1.00  0.00     0.150 C 
ENDROOT
BRANCH   2   3
HETATM    3  N   UNL     1      23.221  47.751  49.673  1.00  0.00    -0.346 N 
HETATM    4  C   UNL     1      23.314  48.862  48.874  1.00  0.00     0.241 C 
HETATM    5  O   UNL     1      24.179  49.015  48.019  1.00  0.00    -0.269 OA
HETATM    6  H   UNL     1      22.657  47.787  50.512  1.00  0.00     0.163 HD
BRANCH   4   7
HETATM    7  C   UNL     1      22.277  49.879  49.169  1.00  0.00     0.075 C 
HETATM    8  C   UNL     1      21.017  49.691  48.744  1.00  0.00     0.017 C 
BRANCH   8   9
HETATM    9  C   UNL     1      19.911  50.573  48.974  1.00  0.00    -0.029 A 
HETATM   10  C   UNL     1      18.781  50.155  49.649  1.00  0.00     0.061 A 
HETATM   11  S   UNL     1      17.609  51.394  49.800  1.00  0.00    -0.113 SA
HETATM   12  C   UNL     1      18.603  52.506  48.967  1.00  0.00     0.050 A 
HETATM   13  C   UNL     1      19.801  51.943  48.580  1.00  0.00     0.019 A 
ENDBRANCH   8   9
ENDBRANCH   4   7
ENDBRANCH   2   3
BRANCH   2  14
HETATM   14  C   UNL     1      24.927  46.626  50.913  1.00  0.00     0.127 A 
HETATM   15  N   UNL     1      25.006  47.560  51.842  1.00  0.00    -0.231 NA
HETATM   16  C   UNL     1      25.777  47.019  52.842  1.00  0.00     0.085 A 
HETATM   17  C   UNL     1      26.191  45.733  52.513  1.00  0.00     0.062 A 
HETATM   18  C   UNL     1      26.172  47.572  54.069  1.00  0.00     0.034 A 
HETATM   19  N   UNL     1      25.648  45.511  51.276  1.00  0.00    -0.341 N 
HETATM   20  C   UNL     1      26.992  44.949  53.345  1.00  0.00     0.032 A 
HETATM   21  H   UNL     1      25.777  44.693  50.693  1.00  0.00     0.167 HD
HETATM   22  C   UNL     1      27.374  45.516  54.566  1.00  0.00     0.002 A 
HETATM   23  C   UNL     1      26.973  46.806  54.926  1.00  0.00     0.002 A 
ENDBRANCH   2  14
TORSDOF 4
ENDMDL
MODEL 5
REMARK VINA RESULT:      -7.3      3.891      7.252
REMARK  4 active torsions:
REMARK  status: ('A' for Active; 'I' for Inactive)
REMARK    1  A    between atoms: C_2  and  N_3 
REMARK    2  A    between atoms: C_2  and  C_13 
REMARK       I    between atoms: N_3  and  C_4 
REMARK    3  A    between atoms: C_4  and  C_5 
REMARK    4  A    between atoms: C_6  and  C_7 
ROOT
HETATM    1  C   UNL     1      26.076  46.082  52.000  1.00  0.00     0.040 C 
HETATM    2  C   UNL     1      26.178  44.787  52.798  1.00  0.00     0.150 C 
ENDROOT
BRANCH   2   3
HETATM    3  N   UNL     1      26.374  43.655  51.907  1.00  0.00    -0.346 N 
HETATM    4  C   UNL     1      25.309  43.025  51.317  1.00  0.00     0.241 C 
HETATM    5  O   UNL     1      24.146  43.390  51.445  1.00  0.00    -0.269 OA
HETATM    6  H   UNL     1      27.262  43.175  51.973  1.00  0.00     0.163 HD
BRANCH   4   7
HETATM    7  C   UNL     1      25.702  41.831  50.530  1.00  0.00     0.075 C 
HETATM    8  C   UNL     1      26.791  41.128  50.882  1.00  0.00     0.017 C 
BRANCH   8   9
HETATM    9  C   UNL     1      27.276  39.947  50.232  1.00  0.00    -0.029 A 
HETATM   10  C   UNL     1      28.604  39.574  50.307  1.00  0.00     0.061 A 
HETATM   11  S   UNL     1      28.929  38.124  49.455  1.00  0.00    -0.113 SA
HETATM   12  C   UNL     1      27.295  37.978  48.979  1.00  0.00     0.050 A 
HETATM   13  C   UNL     1      26.520  39.013  49.458  1.00  0.00     0.019 A 
ENDBRANCH   8   9
ENDBRANCH   4   7
ENDBRANCH   2   3
BRANCH   2  14
HETATM   14  C   UNL     1      27.316  44.814  53.772  1.00  0.00     0.127 A 
HETATM   15  N   UNL     1      27.581  45.726  54.689  1.00  0.00    -0.231 NA
HETATM   16  C   UNL     1      28.727  45.296  55.314  1.00  0.00     0.085 A 
HETATM   17  C   UNL     1      29.183  44.106  54.758  1.00  0.00     0.062 A 
HETATM   18  C   UNL     1      29.445  45.878  56.368  1.00  0.00     0.034 A 
HETATM   19  N   UNL     1      28.275  43.826  53.772  1.00  0.00    -0.341 N 
HETATM   20  C   UNL     1      30.332  43.446  55.194  1.00  0.00     0.032 A 
HETATM   21  H   UNL     1      28.308  43.055  53.116  1.00  0.00     0.167 HD
HETATM   22  C   UNL     1      31.034  44.040  56.250  1.00  0.00     0.002 A 
HETATM   23  C   UNL     1      30.602  45.236  56.830  1.00  0.00     0.002 A 
ENDBRANCH   2  14
TORSDOF 4
ENDMDL
MODEL 6
REMARK VINA RESULT:      -7.3      3.660      5.489
REMARK  4 active torsions:
REMARK  status: ('A' for Active; 'I' for Inactive)
REMARK    1  A    between atoms: C_2  and  N_3 
REMARK    2  A    between atoms: C_2  and  C_13 
REMARK       I    between atoms: N_3  and  C_4 
REMARK    3  A    between atoms: C_4  and  C_5 
REMARK    4  A    between atoms: C_6  and  C_7 
ROOT
HETATM    1  C   UNL     1      24.822  50.054  48.095  1.00  0.00     0.040 C 
HETATM    2  C   UNL     1      23.887  48.929  48.524  1.00  0.00     0.150 C 
ENDROOT
BRANCH   2   3
HETATM    3  N   UNL     1      24.428  48.231  49.679  1.00  0.00    -0.346 N 
HETATM    4  C   UNL     1      24.245  46.882  49.842  1.00  0.00     0.241 C 
HETATM    5  O   UNL     1      23.677  46.168  49.022  1.00  0.00    -0.269 OA
HETATM    6  H   UNL     1      24.671  48.801  50.479  1.00  0.00     0.163 HD
BRANCH   4   7
HETATM    7  C   UNL     1      24.777  46.373  51.129  1.00  0.00     0.075 C 
HETATM    8  C   UNL     1      25.734  47.061  51.774  1.00  0.00     0.017 C 
BRANCH   8   9
HETATM    9  C   UNL     1      26.324  46.704  53.031  1.00  0.00    -0.029 A 
HETATM   10  C   UNL     1      26.836  45.442  53.256  1.00  0.00     0.061 A 
HETATM   11  S   UNL     1      27.491  45.269  54.829  1.00  0.00    -0.113 SA
HETATM   12  C   UNL     1      27.099  46.884  55.225  1.00  0.00     0.050 A 
HETATM   13  C   UNL     1      26.481  47.539  54.180  1.00  0.00     0.019 A 
ENDBRANCH   8   9
ENDBRANCH   4   7
ENDBRANCH   2   3
BRANCH   2  14
HETATM   14  C   UNL     1      22.524  49.437  48.884  1.00  0.00     0.127 A 
HETATM   15  N   UNL     1      22.066  50.671  48.797  1.00  0.00    -0.231 NA
HETATM   16  C   UNL     1      20.770  50.615  49.250  1.00  0.00     0.085 A 
HETATM   17  C   UNL     1      20.432  49.323  49.637  1.00  0.00     0.062 A 
HETATM   18  C   UNL     1      19.815  51.635  49.365  1.00  0.00     0.034 A 
HETATM   19  N   UNL     1      21.568  48.594  49.406  1.00  0.00    -0.341 N 
HETATM   20  C   UNL     1      19.178  48.977  50.143  1.00  0.00     0.032 A 
HETATM   21  H   UNL     1      21.715  47.614  49.616  1.00  0.00     0.167 HD
HETATM   22  C   UNL     1      18.237  50.008  50.248  1.00  0.00     0.002 A 
HETATM   23  C   UNL     1      18.547  51.317  49.867  1.00  0.00     0.002 A 
ENDBRANCH   2  14
TORSDOF 4
ENDMDL
MODEL 7
REMARK VINA RESULT:      -7.1      3.648      7.478
REMARK  4 active torsions:
REMARK  status: ('A' for Active; 'I' for Inactive)
REMARK    1  A    between atoms: C_2  and  N_3 
REMARK    2  A    between atoms: C_2  and  C_13 
REMARK       I    between atoms: N_3  and  C_4 
REMARK    3  A    between atoms: C_4  and  C_5 
REMARK    4  A    between atoms: C_6  and  C_7 
ROOT
HETATM    1  C   UNL     1      27.660  40.796  51.798  1.00  0.00     0.040 C 
HETATM    2  C   UNL     1      28.122  42.213  51.475  1.00  0.00     0.150 C 
ENDROOT
BRANCH   2   3
HETATM    3  N   UNL     1      27.016  43.005  50.966  1.00  0.00    -0.346 N 
HETATM    4  C   UNL     1      26.708  43.016  49.630  1.00  0.00     0.241 C 
HETATM    5  O   UNL     1      27.288  42.334  48.792  1.00  0.00    -0.269 OA
HETATM    6  H   UNL     1      26.685  43.755  51.559  1.00  0.00     0.163 HD
BRANCH   4   7
HETATM    7  C   UNL     1      25.619  43.963  49.291  1.00  0.00     0.075 C 
HETATM    8  C   UNL     1      25.637  45.209  49.794  1.00  0.00     0.017 C 
BRANCH   8   9
HETATM    9  C   UNL     1      24.668  46.234  49.537  1.00  0.00    -0.029 A 
HETATM   10  C   UNL     1      24.943  47.565  49.782  1.00  0.00     0.061 A 
HETATM   11  S   UNL     1      23.630  48.591  49.386  1.00  0.00    -0.113 SA
HETATM   12  C   UNL     1      22.681  47.264  48.878  1.00  0.00     0.050 A 
HETATM   13  C   UNL     1      23.350  46.066  49.010  1.00  0.00     0.019 A 
ENDBRANCH   8   9
ENDBRANCH   4   7
ENDBRANCH   2   3
BRANCH   2  14
HETATM   14  C   UNL     1      28.679  42.910  52.679  1.00  0.00     0.127 A 
HETATM   15  N   UNL     1      29.692  42.540  53.439  1.00  0.00    -0.231 NA
HETATM   16  C   UNL     1      29.799  43.508  54.407  1.00  0.00     0.085 A 
HETATM   17  C   UNL     1      28.821  44.484  54.247  1.00  0.00     0.062 A 
HETATM   18  C   UNL     1      30.710  43.620  55.468  1.00  0.00     0.034 A 
HETATM   19  N   UNL     1      28.114  44.075  53.149  1.00  0.00    -0.341 N 
HETATM   20  C   UNL     1      28.690  45.585  55.095  1.00  0.00     0.032 A 
HETATM   21  H   UNL     1      27.289  44.514  52.758  1.00  0.00     0.167 HD
HETATM   22  C   UNL     1      29.610  45.681  56.146  1.00  0.00     0.002 A 
HETATM   23  C   UNL     1      30.604  44.717  56.333  1.00  0.00     0.002 A 
ENDBRANCH   2  14
TORSDOF 4
ENDMDL
MODEL 8
REMARK VINA RESULT:      -7.0      4.346      6.270
REMARK  4 active torsions:
REMARK  status: ('A' for Active; 'I' for Inactive)
REMARK    1  A    between atoms: C_2  and  N_3 
REMARK    2  A    between atoms: C_2  and  C_13 
REMARK       I    between atoms: N_3  and  C_4 
REMARK    3  A    between atoms: C_4  and  C_5 
REMARK    4  A    between atoms: C_6  and  C_7 
ROOT
HETATM    1  C   UNL     1      25.089  42.676  50.886  1.00  0.00     0.040 C 
HETATM    2  C   UNL     1      26.598  42.863  50.780  1.00  0.00     0.150 C 
ENDROOT
BRANCH   2   3
HETATM    3  N   UNL     1      27.157  43.233  52.069  1.00  0.00    -0.346 N 
HETATM    4  C   UNL     1      27.123  44.530  52.511  1.00  0.00     0.241 C 
HETATM    5  O   UNL     1      26.582  45.444  51.898  1.00  0.00    -0.269 OA
HETATM    6  H   UNL     1      27.818  42.584  52.479  1.00  0.00     0.163 HD
BRANCH   4   7
HETATM    7  C   UNL     1      27.835  44.726  53.797  1.00  0.00     0.075 C 
HETATM    8  C   UNL     1      28.979  44.065  54.034  1.00  0.00     0.017 C 
BRANCH   8   9
HETATM    9  C   UNL     1      29.784  44.172  55.215  1.00  0.00    -0.029 A 
HETATM   10  C   UNL     1      30.644  43.162  55.598  1.00  0.00     0.061 A 
HETATM   11  S   UNL     1      31.496  43.533  57.036  1.00  0.00    -0.113 SA
HETATM   12  C   UNL     1      30.725  45.053  57.161  1.00  0.00     0.050 A 
HETATM   13  C   UNL     1      29.836  45.271  56.129  1.00  0.00     0.019 A 
ENDBRANCH   8   9
ENDBRANCH   4   7
ENDBRANCH   2   3
BRANCH   2  14
HETATM   14  C   UNL     1      27.287  41.616  50.314  1.00  0.00     0.127 A 
HETATM   15  N   UNL     1      28.034  40.787  51.018  1.00  0.00    -0.231 NA
HETATM   16  C   UNL     1      28.433  39.812  50.136  1.00  0.00     0.085 A 
HETATM   17  C   UNL     1      27.932  40.056  48.862  1.00  0.00     0.062 A 
HETATM   18  C   UNL     1      29.233  38.680  50.351  1.00  0.00     0.034 A 
HETATM   19  N   UNL     1      27.217  41.216  48.998  1.00  0.00    -0.341 N 
HETATM   20  C   UNL     1      28.184  39.229  47.766  1.00  0.00     0.032 A 
HETATM   21  H   UNL     1      26.746  41.730  48.263  1.00  0.00     0.167 HD
HETATM   22  C   UNL     1      28.982  38.103  48.001  1.00  0.00     0.002 A 
HETATM   23  C   UNL     1      29.500  37.830  49.270  1.00  0.00     0.002 A 
ENDBRANCH   2  14
TORSDOF 4
ENDMDL
MODEL 9
REMARK VINA RESULT:      -7.0      5.420      9.509
REMARK  4 active torsions:
REMARK  status: ('A' for Active; 'I' for Inactive)
REMARK    1  A    between atoms: C_2  and  N_3 
REMARK    2  A    between atoms: C_2  and  C_13 
REMARK       I    between atoms: N_3  and  C_4 
REMARK    3  A    between atoms: C_4  and  C_5 
REMARK    4  A    between atoms: C_6  and  C_7 
ROOT
HETATM    1  C   UNL     1      26.453  49.774  48.123  1.00  0.00     0.040 C 
HETATM    2  C   UNL     1      25.360  49.350  49.098  1.00  0.00     0.150 C 
ENDROOT
BRANCH   2   3
HETATM    3  N   UNL     1      24.050  49.479  48.481  1.00  0.00    -0.346 N 
HETATM    4  C   UNL     1      23.139  50.397  48.937  1.00  0.00     0.241 C 
HETATM    5  O   UNL     1      23.371  51.197  49.836  1.00  0.00    -0.269 OA
HETATM    6  H   UNL     1      23.732  48.695  47.926  1.00  0.00     0.163 HD
BRANCH   4   7
HETATM    7  C   UNL     1      21.827  50.305  48.251  1.00  0.00     0.075 C 
HETATM    8  C   UNL     1      20.898  51.252  48.459  1.00  0.00     0.017 C 
BRANCH   8   9
HETATM    9  C   UNL     1      19.601  51.305  47.851  1.00  0.00    -0.029 A 
HETATM   10  C   UNL     1      19.243  50.441  46.835  1.00  0.00     0.061 A 
HETATM   11  S   UNL     1      17.643  50.701  46.284  1.00  0.00    -0.113 SA
HETATM   12  C   UNL     1      17.410  51.971  47.401  1.00  0.00     0.050 A 
HETATM   13  C   UNL     1      18.529  52.194  48.176  1.00  0.00     0.019 A 
ENDBRANCH   8   9
ENDBRANCH   4   7
ENDBRANCH   2   3
BRANCH   2  14
HETATM   14  C   UNL     1      25.525  47.930  49.546  1.00  0.00     0.127 A 
HETATM   15  N   UNL     1      26.533  47.113  49.306  1.00  0.00    -0.231 NA
HETATM   16  C   UNL     1      26.204  45.932  49.927  1.00  0.00     0.085 A 
HETATM   17  C   UNL     1      24.963  46.022  50.547  1.00  0.00     0.062 A 
HETATM   18  C   UNL     1      26.920  44.728  50.000  1.00  0.00     0.034 A 
HETATM   19  N   UNL     1      24.546  47.299  50.280  1.00  0.00    -0.341 N 
HETATM   20  C   UNL     1      24.377  44.968  51.249  1.00  0.00     0.032 A 
HETATM   21  H   UNL     1      23.657  47.713  50.533  1.00  0.00     0.167 HD
HETATM   22  C   UNL     1      25.107  43.775  51.314  1.00  0.00     0.002 A 
HETATM   23  C   UNL     1      26.358  43.653  50.701  1.00  0.00     0.002 A 
ENDBRANCH   2  14
TORSDOF 4
ENDMDL
MODEL 10
REMARK VINA RESULT:      -6.9      4.872      7.712
REMARK  4 active torsions:
REMARK  status: ('A' for Active; 'I' for Inactive)
REMARK    1  A    between atoms: C_2  and  N_3 
REMARK    2  A    between atoms: C_2  and  C_13 
REMARK       I    between atoms: N_3  and  C_4 
REMARK    3  A    between atoms: C_4  and  C_5 
REMARK    4  A    between atoms: C_6  and  C_7 
ROOT
HETATM    1  C   UNL     1      29.853  42.611  53.047  1.00  0.00     0.040 C 
HETATM    2  C   UNL     1      28.428  42.262  52.629  1.00  0.00     0.150 C 
ENDROOT
BRANCH   2   3
HETATM    3  N   UNL     1      27.707  43.459  52.232  1.00  0.00    -0.346 N 
HETATM    4  C   UNL     1      26.820  44.068  53.083  1.00  0.00     0.241 C 
HETATM    5  O   UNL     1      26.615  43.694  54.232  1.00  0.00    -0.269 OA
HETATM    6  H   UNL     1      27.653  43.647  51.239  1.00  0.00     0.163 HD
BRANCH   4   7
HETATM    7  C   UNL     1      26.107  45.209  52.461  1.00  0.00     0.075 C 
HETATM    8  C   UNL     1      26.437  45.606  51.221  1.00  0.00     0.017 C 
BRANCH   8   9
HETATM    9  C   UNL     1      25.821  46.674  50.488  1.00  0.00    -0.029 A 
HETATM   10  C   UNL     1      24.456  46.719  50.287  1.00  0.00     0.061 A 
HETATM   11  S   UNL     1      23.968  48.095  49.391  1.00  0.00    -0.113 SA
HETATM   12  C   UNL     1      25.580  48.648  49.267  1.00  0.00     0.050 A 
HETATM   13  C   UNL     1      26.470  47.800  49.893  1.00  0.00     0.019 A 
ENDBRANCH   8   9
ENDBRANCH   4   7
ENDBRANCH   2   3
BRANCH   2  14
HETATM   14  C   UNL     1      28.399  41.298  51.482  1.00  0.00     0.127 A 
HETATM   15  N   UNL     1      27.839  41.458  50.299  1.00  0.00    -0.231 NA
HETATM   16  C   UNL     1      28.086  40.293  49.614  1.00  0.00     0.085 A 
HETATM   17  C   UNL     1      28.800  39.394  50.399  1.00  0.00     0.062 A 
HETATM   18  C   UNL     1      27.725  39.925  48.310  1.00  0.00     0.034 A 
HETATM   19  N   UNL     1      28.977  40.053  51.587  1.00  0.00    -0.341 N 
HETATM   20  C   UNL     1      29.184  38.127  49.959  1.00  0.00     0.032 A 
HETATM   21  H   UNL     1      29.415  39.688  52.425  1.00  0.00     0.167 HD
HETATM   22  C   UNL     1      28.818  37.779  48.654  1.00  0.00     0.002 A 
HETATM   23  C   UNL     1      28.100  38.660  47.839  1.00  0.00     0.002 A 
ENDBRANCH   2  14
TORSDOF 4
ENDMDL
