MODEL 1
REMARK VINA RESULT:      -8.7      0.000      0.000
REMARK  3 active torsions:
REMARK  status: ('A' for Active; 'I' for Inactive)
REMARK    1  A    between atoms: C_3  and  N_4 
REMARK    2  A    between atoms: C_14  and  N_15 
REMARK       I    between atoms: N_15  and  C_16 
REMARK    3  A    between atoms: C_16  and  C_17 
ROOT
HETATM    1  N   UNL     1      30.847  51.565  41.282  1.00  0.00    -0.237 N 
HETATM    2  N   UNL     1      30.229  52.691  40.827  1.00  0.00    -0.179 NA
HETATM    3  C   UNL     1      29.364  52.277  39.906  1.00  0.00     0.150 A 
HETATM    4  C   UNL     1      29.392  50.889  39.737  1.00  0.00     0.008 A 
HETATM    5  C   UNL     1      30.332  50.440  40.649  1.00  0.00     0.047 A 
HETATM    6  C   UNL     1      30.838  49.033  40.716  1.00  0.00     0.069 C 
HETATM    7  C   UNL     1      29.856  48.044  40.011  1.00  0.00    -0.040 C 
HETATM    8  C   UNL     1      28.686  47.700  40.957  1.00  0.00     0.015 C 
HETATM    9  C   UNL     1      30.612  46.735  39.709  1.00  0.00     0.015 C 
HETATM   10  C   UNL     1      29.336  48.634  38.663  1.00  0.00     0.039 C 
HETATM   11  C   UNL     1      28.673  50.030  38.759  1.00  0.00     0.122 C 
ENDROOT
BRANCH  11  12
HETATM   12  N   UNL     1      27.280  49.966  39.152  1.00  0.00    -0.347 N 
HETATM   13  C   UNL     1      26.301  49.710  38.227  1.00  0.00     0.270 C 
HETATM   14  O   UNL     1      26.525  49.509  37.037  1.00  0.00    -0.266 OA
HETATM   15  H   UNL     1      27.052  50.104  40.126  1.00  0.00     0.163 HD
BRANCH  13  16
HETATM   16  C   UNL     1      24.906  49.699  38.736  1.00  0.00     0.120 A 
HETATM   17  N   UNL     1      23.994  50.634  38.294  1.00  0.00    -0.303 N 
HETATM   18  C   UNL     1      22.767  50.426  38.925  1.00  0.00     0.324 A 
HETATM   19  H   UNL     1      24.195  51.361  37.623  1.00  0.00     0.171 HD
HETATM   20  O   UNL     1      21.737  51.056  38.789  1.00  0.00    -0.247 OA
HETATM   21  N   UNL     1      22.988  49.320  39.758  1.00  0.00    -0.316 N 
HETATM   22  C   UNL     1      24.290  48.902  39.625  1.00  0.00     0.128 A 
HETATM   23  H   UNL     1      22.273  48.930  40.354  1.00  0.00     0.170 HD
ENDBRANCH  13  16
ENDBRANCH  11  12
BRANCH   1  24
HETATM   24  C   UNL     1      31.867  51.662  42.274  1.00  0.00     0.064 A 
HETATM   25  C   UNL     1      33.237  51.545  41.940  1.00  0.00    -0.033 A 
HETATM   26  C   UNL     1      33.740  51.262  40.547  1.00  0.00     0.050 C 
HETATM   27  C   UNL     1      34.197  51.671  42.962  1.00  0.00     0.009 A 
HETATM   28  C   UNL     1      33.817  51.899  44.285  1.00  0.00     0.001 A 
HETATM   29  C   UNL     1      32.472  52.026  44.606  1.00  0.00     0.002 A 
HETATM   30  C   UNL     1      31.502  51.915  43.607  1.00  0.00     0.032 A 
ENDBRANCH   1  24
TORSDOF 3
ENDMDL
MODEL 2
REMARK VINA RESULT:      -8.5      2.802      4.197
REMARK  3 active torsions:
REMARK  status: ('A' for Active; 'I' for Inactive)
REMARK    1  A    between atoms: C_3  and  N_4 
REMARK    2  A    between atoms: C_14  and  N_15 
REMARK       I    between atoms: N_15  and  C_16 
REMARK    3  A    between atoms: C_16  and  C_17 
ROOT
HETATM    1  N   UNL     1      31.942  50.218  42.346  1.00  0.00    -0.237 N 
HETATM    2  N   UNL     1      31.583  48.996  42.829  1.00  0.00    -0.179 NA
HETATM    3  C   UNL     1      30.330  48.806  42.426  1.00  0.00     0.150 A 
HETATM    4  C   UNL     1      29.844  49.882  41.677  1.00  0.00     0.008 A 
HETATM    5  C   UNL     1      30.900  50.774  41.610  1.00  0.00     0.047 A 
HETATM    6  C   UNL     1      30.802  52.161  41.057  1.00  0.00     0.069 C 
HETATM    7  C   UNL     1      29.553  52.313  40.131  1.00  0.00    -0.040 C 
HETATM    8  C   UNL     1      29.864  51.745  38.730  1.00  0.00     0.015 C 
HETATM    9  C   UNL     1      29.245  53.815  39.968  1.00  0.00     0.015 C 
HETATM   10  C   UNL     1      28.302  51.619  40.756  1.00  0.00     0.039 C 
HETATM   11  C   UNL     1      28.485  50.127  41.126  1.00  0.00     0.122 C 
ENDROOT
BRANCH  11  12
HETATM   12  N   UNL     1      28.288  49.239  39.998  1.00  0.00    -0.347 N 
HETATM   13  C   UNL     1      27.228  48.371  39.964  1.00  0.00     0.270 C 
HETATM   14  O   UNL     1      26.384  48.293  40.852  1.00  0.00    -0.266 OA
HETATM   15  H   UNL     1      28.947  49.285  39.234  1.00  0.00     0.163 HD
BRANCH  13  16
HETATM   16  C   UNL     1      27.142  47.486  38.774  1.00  0.00     0.120 A 
HETATM   17  N   UNL     1      28.253  46.796  38.336  1.00  0.00    -0.303 N 
HETATM   18  C   UNL     1      27.925  46.052  37.202  1.00  0.00     0.324 A 
HETATM   19  H   UNL     1      29.163  46.836  38.771  1.00  0.00     0.171 HD
HETATM   20  O   UNL     1      28.647  45.330  36.544  1.00  0.00    -0.247 OA
HETATM   21  N   UNL     1      26.567  46.326  36.988  1.00  0.00    -0.316 N 
HETATM   22  C   UNL     1      26.120  47.198  37.952  1.00  0.00     0.128 A 
HETATM   23  H   UNL     1      26.040  45.930  36.224  1.00  0.00     0.170 HD
ENDBRANCH  13  16
ENDBRANCH  11  12
BRANCH   1  24
HETATM   24  C   UNL     1      33.238  50.744  42.626  1.00  0.00     0.064 A 
HETATM   25  C   UNL     1      33.468  51.589  43.737  1.00  0.00    -0.033 A 
HETATM   26  C   UNL     1      32.386  52.047  44.682  1.00  0.00     0.050 C 
HETATM   27  C   UNL     1      34.774  52.059  43.972  1.00  0.00     0.009 A 
HETATM   28  C   UNL     1      35.828  51.712  43.128  1.00  0.00     0.001 A 
HETATM   29  C   UNL     1      35.600  50.872  42.045  1.00  0.00     0.002 A 
HETATM   30  C   UNL     1      34.314  50.385  41.798  1.00  0.00     0.032 A 
ENDBRANCH   1  24
TORSDOF 3
ENDMDL
MODEL 3
REMARK VINA RESULT:      -8.1     11.369     12.663
REMARK  3 active torsions:
REMARK  status: ('A' for Active; 'I' for Inactive)
REMARK    1  A    between atoms: C_3  and  N_4 
REMARK    2  A    between atoms: C_14  and  N_15 
REMARK       I    between atoms: N_15  and  C_16 
REMARK    3  A    between atoms: C_16  and  C_17 
ROOT
HETATM    1  N   UNL     1      26.314  45.164  51.479  1.00  0.00    -0.237 N 
HETATM    2  N   UNL     1      26.602  46.496  51.481  1.00  0.00    -0.179 NA
HETATM    3  C   UNL     1      25.809  47.035  50.561  1.00  0.00     0.150 A 
HETATM    4  C   UNL     1      24.991  46.084  49.942  1.00  0.00     0.008 A 
HETATM    5  C   UNL     1      25.307  44.888  50.562  1.00  0.00     0.047 A 
HETATM    6  C   UNL     1      24.811  43.548  50.114  1.00  0.00     0.069 C 
HETATM    7  C   UNL     1      23.540  43.686  49.218  1.00  0.00    -0.040 C 
HETATM    8  C   UNL     1      22.291  43.884  50.102  1.00  0.00     0.015 C 
HETATM    9  C   UNL     1      23.351  42.373  48.432  1.00  0.00     0.015 C 
HETATM   10  C   UNL     1      23.697  44.855  48.195  1.00  0.00     0.039 C 
HETATM   11  C   UNL     1      24.041  46.233  48.808  1.00  0.00     0.122 C 
ENDROOT
BRANCH  11  12
HETATM   12  N   UNL     1      22.873  46.945  49.286  1.00  0.00    -0.347 N 
HETATM   13  C   UNL     1      22.308  47.948  48.542  1.00  0.00     0.270 C 
HETATM   14  O   UNL     1      22.727  48.298  47.443  1.00  0.00    -0.266 OA
HETATM   15  H   UNL     1      22.481  46.674  50.177  1.00  0.00     0.163 HD
BRANCH  13  16
HETATM   16  C   UNL     1      21.133  48.628  49.144  1.00  0.00     0.120 A 
HETATM   17  N   UNL     1      20.171  47.900  49.812  1.00  0.00    -0.303 N 
HETATM   18  C   UNL     1      19.170  48.756  50.270  1.00  0.00     0.324 A 
HETATM   19  H   UNL     1      20.193  46.899  49.938  1.00  0.00     0.171 HD
HETATM   20  O   UNL     1      18.165  48.471  50.892  1.00  0.00    -0.247 OA
HETATM   21  N   UNL     1      19.581  50.029  49.848  1.00  0.00    -0.316 N 
HETATM   22  C   UNL     1      20.770  49.921  49.169  1.00  0.00     0.128 A 
HETATM   23  H   UNL     1      19.048  50.866  50.031  1.00  0.00     0.170 HD
ENDBRANCH  13  16
ENDBRANCH  11  12
BRANCH   1  24
HETATM   24  C   UNL     1      27.019  44.280  52.348  1.00  0.00     0.064 A 
HETATM   25  C   UNL     1      26.569  44.022  53.664  1.00  0.00    -0.033 A 
HETATM   26  C   UNL     1      25.359  44.677  54.280  1.00  0.00     0.050 C 
HETATM   27  C   UNL     1      27.297  43.122  54.466  1.00  0.00     0.009 A 
HETATM   28  C   UNL     1      28.448  42.497  53.986  1.00  0.00     0.001 A 
HETATM   29  C   UNL     1      28.880  42.745  52.690  1.00  0.00     0.002 A 
HETATM   30  C   UNL     1      28.167  43.625  51.872  1.00  0.00     0.032 A 
ENDBRANCH   1  24
TORSDOF 3
ENDMDL
MODEL 4
REMARK VINA RESULT:      -8.0      5.553     10.055
REMARK  3 active torsions:
REMARK  status: ('A' for Active; 'I' for Inactive)
REMARK    1  A    between atoms: C_3  and  N_4 
REMARK    2  A    between atoms: C_14  and  N_15 
REMARK       I    between atoms: N_15  and  C_16 
REMARK    3  A    between atoms: C_16  and  C_17 
ROOT
HETATM    1  N   UNL     1      32.137  51.574  41.890  1.00  0.00    -0.237 N 
HETATM    2  N   UNL     1      31.927  51.695  43.231  1.00  0.00    -0.179 NA
HETATM    3  C   UNL     1      33.136  51.697  43.784  1.00  0.00     0.150 A 
HETATM    4  C   UNL     1      34.155  51.580  42.833  1.00  0.00     0.008 A 
HETATM    5  C   UNL     1      33.499  51.529  41.615  1.00  0.00     0.047 A 
HETATM    6  C   UNL     1      34.166  51.228  40.309  1.00  0.00     0.069 C 
HETATM    7  C   UNL     1      35.706  51.471  40.391  1.00  0.00    -0.040 C 
HETATM    8  C   UNL     1      36.011  52.975  40.232  1.00  0.00     0.015 C 
HETATM    9  C   UNL     1      36.381  50.732  39.218  1.00  0.00     0.015 C 
HETATM   10  C   UNL     1      36.293  50.914  41.726  1.00  0.00     0.039 C 
HETATM   11  C   UNL     1      35.624  51.442  43.018  1.00  0.00     0.122 C 
ENDROOT
BRANCH  11  12
HETATM   12  N   UNL     1      36.149  52.726  43.440  1.00  0.00    -0.347 N 
HETATM   13  C   UNL     1      37.146  52.802  44.378  1.00  0.00     0.270 C 
HETATM   14  O   UNL     1      37.663  51.820  44.903  1.00  0.00    -0.266 OA
HETATM   15  H   UNL     1      35.768  53.559  43.017  1.00  0.00     0.163 HD
BRANCH  13  16
HETATM   16  C   UNL     1      37.585  54.169  44.757  1.00  0.00     0.120 A 
HETATM   17  N   UNL     1      38.035  55.050  43.796  1.00  0.00    -0.303 N 
HETATM   18  C   UNL     1      38.401  56.253  44.398  1.00  0.00     0.324 A 
HETATM   19  H   UNL     1      38.096  54.842  42.810  1.00  0.00     0.171 HD
HETATM   20  O   UNL     1      38.845  57.253  43.869  1.00  0.00    -0.247 OA
HETATM   21  N   UNL     1      38.144  56.052  45.762  1.00  0.00    -0.316 N 
HETATM   22  C   UNL     1      37.653  54.783  45.950  1.00  0.00     0.128 A 
HETATM   23  H   UNL     1      38.317  56.757  46.463  1.00  0.00     0.170 HD
ENDBRANCH  13  16
ENDBRANCH  11  12
BRANCH   1  24
HETATM   24  C   UNL     1      31.027  51.513  40.997  1.00  0.00     0.064 A 
HETATM   25  C   UNL     1      30.472  52.684  40.428  1.00  0.00    -0.033 A 
HETATM   26  C   UNL     1      30.953  54.078  40.741  1.00  0.00     0.050 C 
HETATM   27  C   UNL     1      29.390  52.557  39.536  1.00  0.00     0.009 A 
HETATM   28  C   UNL     1      28.862  51.307  39.217  1.00  0.00     0.001 A 
HETATM   29  C   UNL     1      29.418  50.159  39.768  1.00  0.00     0.002 A 
HETATM   30  C   UNL     1      30.498  50.260  40.647  1.00  0.00     0.032 A 
ENDBRANCH   1  24
TORSDOF 3
ENDMDL
MODEL 5
REMARK VINA RESULT:      -8.0     12.219     13.807
REMARK  3 active torsions:
REMARK  status: ('A' for Active; 'I' for Inactive)
REMARK    1  A    between atoms: C_3  and  N_4 
REMARK    2  A    between atoms: C_14  and  N_15 
REMARK       I    between atoms: N_15  and  C_16 
REMARK    3  A    between atoms: C_16  and  C_17 
ROOT
HETATM    1  N   UNL     1      27.759  43.668  53.589  1.00  0.00    -0.237 N 
HETATM    2  N   UNL     1      27.806  42.307  53.541  1.00  0.00    -0.179 NA
HETATM    3  C   UNL     1      27.052  41.959  52.503  1.00  0.00     0.150 A 
HETATM    4  C   UNL     1      26.500  43.067  51.852  1.00  0.00     0.008 A 
HETATM    5  C   UNL     1      26.985  44.163  52.545  1.00  0.00     0.047 A 
HETATM    6  C   UNL     1      26.528  45.571  52.324  1.00  0.00     0.069 C 
HETATM    7  C   UNL     1      25.843  45.731  50.931  1.00  0.00    -0.040 C 
HETATM    8  C   UNL     1      26.914  45.877  49.830  1.00  0.00     0.015 C 
HETATM    9  C   UNL     1      25.008  47.028  50.942  1.00  0.00     0.015 C 
HETATM   10  C   UNL     1      24.887  44.533  50.633  1.00  0.00     0.039 C 
HETATM   11  C   UNL     1      25.532  43.129  50.726  1.00  0.00     0.122 C 
ENDROOT
BRANCH  11  12
HETATM   12  N   UNL     1      26.225  42.747  49.512  1.00  0.00    -0.347 N 
HETATM   13  C   UNL     1      26.084  41.487  48.990  1.00  0.00     0.270 C 
HETATM   14  O   UNL     1      25.371  40.621  49.487  1.00  0.00    -0.266 OA
HETATM   15  H   UNL     1      26.806  43.436  49.057  1.00  0.00     0.163 HD
BRANCH  13  16
HETATM   16  C   UNL     1      26.865  41.196  47.761  1.00  0.00     0.120 A 
HETATM   17  N   UNL     1      26.265  41.260  46.521  1.00  0.00    -0.303 N 
HETATM   18  C   UNL     1      27.194  40.932  45.533  1.00  0.00     0.324 A 
HETATM   19  H   UNL     1      25.297  41.498  46.362  1.00  0.00     0.171 HD
HETATM   20  O   UNL     1      27.024  40.878  44.332  1.00  0.00    -0.247 OA
HETATM   21  N   UNL     1      28.377  40.675  46.241  1.00  0.00    -0.316 N 
HETATM   22  C   UNL     1      28.149  40.841  47.586  1.00  0.00     0.128 A 
HETATM   23  H   UNL     1      29.239  40.404  45.791  1.00  0.00     0.170 HD
ENDBRANCH  13  16
ENDBRANCH  11  12
BRANCH   1  24
HETATM   24  C   UNL     1      28.452  44.371  54.618  1.00  0.00     0.064 A 
HETATM   25  C   UNL     1      29.799  44.075  54.937  1.00  0.00    -0.033 A 
HETATM   26  C   UNL     1      30.597  42.982  54.273  1.00  0.00     0.050 C 
HETATM   27  C   UNL     1      30.435  44.819  55.949  1.00  0.00     0.009 A 
HETATM   28  C   UNL     1      29.759  45.826  56.637  1.00  0.00     0.001 A 
HETATM   29  C   UNL     1      28.441  46.121  56.313  1.00  0.00     0.002 A 
HETATM   30  C   UNL     1      27.793  45.403  55.305  1.00  0.00     0.032 A 
ENDBRANCH   1  24
TORSDOF 3
ENDMDL
MODEL 6
REMARK VINA RESULT:      -7.8     12.630     14.072
REMARK  3 active torsions:
REMARK  status: ('A' for Active; 'I' for Inactive)
REMARK    1  A    between atoms: C_3  and  N_4 
REMARK    2  A    between atoms: C_14  and  N_15 
REMARK       I    between atoms: N_15  and  C_16 
REMARK    3  A    between atoms: C_16  and  C_17 
ROOT
HETATM    1  N   UNL     1      27.035  44.470  54.272  1.00  0.00    -0.237 N 
HETATM    2  N   UNL     1      26.219  43.468  54.702  1.00  0.00    -0.179 NA
HETATM    3  C   UNL     1      25.235  43.400  53.811  1.00  0.00     0.150 A 
HETATM    4  C   UNL     1      25.379  44.342  52.788  1.00  0.00     0.008 A 
HETATM    5  C   UNL     1      26.557  45.007  53.082  1.00  0.00     0.047 A 
HETATM    6  C   UNL     1      27.040  46.227  52.362  1.00  0.00     0.069 C 
HETATM    7  C   UNL     1      26.357  46.368  50.965  1.00  0.00    -0.040 C 
HETATM    8  C   UNL     1      27.058  45.451  49.941  1.00  0.00     0.015 C 
HETATM    9  C   UNL     1      26.526  47.822  50.482  1.00  0.00     0.015 C 
HETATM   10  C   UNL     1      24.830  46.052  51.051  1.00  0.00     0.039 C 
HETATM   11  C   UNL     1      24.470  44.675  51.660  1.00  0.00     0.122 C 
ENDROOT
BRANCH  11  12
HETATM   12  N   UNL     1      24.535  43.598  50.693  1.00  0.00    -0.347 N 
HETATM   13  C   UNL     1      23.398  43.130  50.086  1.00  0.00     0.270 C 
HETATM   14  O   UNL     1      22.278  43.584  50.297  1.00  0.00    -0.266 OA
HETATM   15  H   UNL     1      25.440  43.209  50.473  1.00  0.00     0.163 HD
BRANCH  13  16
HETATM   16  C   UNL     1      23.580  42.003  49.135  1.00  0.00     0.120 A 
HETATM   17  N   UNL     1      24.828  41.452  48.936  1.00  0.00    -0.303 N 
HETATM   18  C   UNL     1      24.742  40.427  47.994  1.00  0.00     0.324 A 
HETATM   19  H   UNL     1      25.671  41.757  49.399  1.00  0.00     0.171 HD
HETATM   20  O   UNL     1      25.636  39.724  47.567  1.00  0.00    -0.247 OA
HETATM   21  N   UNL     1      23.385  40.389  47.644  1.00  0.00    -0.316 N 
HETATM   22  C   UNL     1      22.706  41.354  48.348  1.00  0.00     0.128 A 
HETATM   23  H   UNL     1      23.010  39.741  46.967  1.00  0.00     0.170 HD
ENDBRANCH  13  16
ENDBRANCH  11  12
BRANCH   1  24
HETATM   24  C   UNL     1      28.192  44.824  55.028  1.00  0.00     0.064 A 
HETATM   25  C   UNL     1      29.417  44.135  54.870  1.00  0.00    -0.033 A 
HETATM   26  C   UNL     1      29.604  42.957  53.949  1.00  0.00     0.050 C 
HETATM   27  C   UNL     1      30.529  44.546  55.631  1.00  0.00     0.009 A 
HETATM   28  C   UNL     1      30.434  45.606  56.532  1.00  0.00     0.001 A 
HETATM   29  C   UNL     1      29.232  46.287  56.675  1.00  0.00     0.002 A 
HETATM   30  C   UNL     1      28.119  45.904  55.923  1.00  0.00     0.032 A 
ENDBRANCH   1  24
TORSDOF 3
ENDMDL
MODEL 7
REMARK VINA RESULT:      -7.7      3.582      8.196
REMARK  3 active torsions:
REMARK  status: ('A' for Active; 'I' for Inactive)
REMARK    1  A    between atoms: C_3  and  N_4 
REMARK    2  A    between atoms: C_14  and  N_15 
REMARK       I    between atoms: N_15  and  C_16 
REMARK    3  A    between atoms: C_16  and  C_17 
ROOT
HETATM    1  N   UNL     1      28.155  48.188  39.149  1.00  0.00    -0.237 N 
HETATM    2  N   UNL     1      29.041  47.153  39.111  1.00  0.00    -0.179 NA
HETATM    3  C   UNL     1      30.235  47.710  38.933  1.00  0.00     0.150 A 
HETATM    4  C   UNL     1      30.164  49.104  38.854  1.00  0.00     0.008 A 
HETATM    5  C   UNL     1      28.822  49.401  39.021  1.00  0.00     0.047 A 
HETATM    6  C   UNL     1      28.229  50.763  38.838  1.00  0.00     0.069 C 
HETATM    7  C   UNL     1      29.323  51.874  38.931  1.00  0.00    -0.040 C 
HETATM    8  C   UNL     1      29.637  52.180  40.411  1.00  0.00     0.015 C 
HETATM    9  C   UNL     1      28.766  53.164  38.297  1.00  0.00     0.015 C 
HETATM   10  C   UNL     1      30.612  51.460  38.154  1.00  0.00     0.039 C 
HETATM   11  C   UNL     1      31.229  50.101  38.564  1.00  0.00     0.122 C 
ENDROOT
BRANCH  11  12
HETATM   12  N   UNL     1      32.084  50.200  39.730  1.00  0.00    -0.347 N 
HETATM   13  C   UNL     1      33.270  50.885  39.674  1.00  0.00     0.270 C 
HETATM   14  O   UNL     1      33.677  51.460  38.669  1.00  0.00    -0.266 OA
HETATM   15  H   UNL     1      31.778  49.759  40.585  1.00  0.00     0.163 HD
BRANCH  13  16
HETATM   16  C   UNL     1      34.081  50.894  40.918  1.00  0.00     0.120 A 
HETATM   17  N   UNL     1      33.844  51.835  41.899  1.00  0.00    -0.303 N 
HETATM   18  C   UNL     1      34.738  51.647  42.953  1.00  0.00     0.324 A 
HETATM   19  H   UNL     1      33.135  52.552  41.848  1.00  0.00     0.171 HD
HETATM   20  O   UNL     1      34.829  52.287  43.982  1.00  0.00    -0.247 OA
HETATM   21  N   UNL     1      35.515  50.549  42.559  1.00  0.00    -0.316 N 
HETATM   22  C   UNL     1      35.097  50.115  41.324  1.00  0.00     0.128 A 
HETATM   23  H   UNL     1      36.262  50.174  43.124  1.00  0.00     0.170 HD
ENDBRANCH  13  16
ENDBRANCH  11  12
BRANCH   1  24
HETATM   24  C   UNL     1      26.761  47.929  39.305  1.00  0.00     0.064 A 
HETATM   25  C   UNL     1      25.881  47.932  38.196  1.00  0.00    -0.033 A 
HETATM   26  C   UNL     1      26.309  48.249  36.786  1.00  0.00     0.050 C 
HETATM   27  C   UNL     1      24.519  47.649  38.412  1.00  0.00     0.009 A 
HETATM   28  C   UNL     1      24.032  47.377  39.690  1.00  0.00     0.001 A 
HETATM   29  C   UNL     1      24.902  47.364  40.773  1.00  0.00     0.002 A 
HETATM   30  C   UNL     1      26.259  47.631  40.582  1.00  0.00     0.032 A 
ENDBRANCH   1  24
TORSDOF 3
ENDMDL
MODEL 8
REMARK VINA RESULT:      -7.5      9.713     11.998
REMARK  3 active torsions:
REMARK  status: ('A' for Active; 'I' for Inactive)
REMARK    1  A    between atoms: C_3  and  N_4 
REMARK    2  A    between atoms: C_14  and  N_15 
REMARK       I    between atoms: N_15  and  C_16 
REMARK    3  A    between atoms: C_16  and  C_17 
ROOT
HETATM    1  N   UNL     1      22.904  47.997  48.716  1.00  0.00    -0.237 N 
HETATM    2  N   UNL     1      22.707  46.673  48.464  1.00  0.00    -0.179 NA
HETATM    3  C   UNL     1      21.389  46.496  48.490  1.00  0.00     0.150 A 
HETATM    4  C   UNL     1      20.699  47.684  48.753  1.00  0.00     0.008 A 
HETATM    5  C   UNL     1      21.685  48.648  48.870  1.00  0.00     0.047 A 
HETATM    6  C   UNL     1      21.443  50.053  49.326  1.00  0.00     0.069 C 
HETATM    7  C   UNL     1      19.939  50.446  49.174  1.00  0.00    -0.040 C 
HETATM    8  C   UNL     1      19.643  50.839  47.712  1.00  0.00     0.015 C 
HETATM    9  C   UNL     1      19.665  51.682  50.054  1.00  0.00     0.015 C 
HETATM   10  C   UNL     1      19.005  49.288  49.647  1.00  0.00     0.039 C 
HETATM   11  C   UNL     1      19.247  47.919  48.966  1.00  0.00     0.122 C 
ENDROOT
BRANCH  11  12
HETATM   12  N   UNL     1      18.577  47.800  47.686  1.00  0.00    -0.347 N 
HETATM   13  C   UNL     1      17.356  47.184  47.587  1.00  0.00     0.270 C 
HETATM   14  O   UNL     1      16.751  46.714  48.546  1.00  0.00    -0.266 OA
HETATM   15  H   UNL     1      19.029  48.193  46.874  1.00  0.00     0.163 HD
BRANCH  13  16
HETATM   16  C   UNL     1      16.778  47.092  46.223  1.00  0.00     0.120 A 
HETATM   17  N   UNL     1      15.434  47.326  46.017  1.00  0.00    -0.303 N 
HETATM   18  C   UNL     1      15.133  47.165  44.664  1.00  0.00     0.324 A 
HETATM   19  H   UNL     1      14.775  47.566  46.742  1.00  0.00     0.171 HD
HETATM   20  O   UNL     1      14.055  47.285  44.116  1.00  0.00    -0.247 OA
HETATM   21  N   UNL     1      16.359  46.831  44.072  1.00  0.00    -0.316 N 
HETATM   22  C   UNL     1      17.336  46.792  45.038  1.00  0.00     0.128 A 
HETATM   23  H   UNL     1      16.461  46.647  43.085  1.00  0.00     0.170 HD
ENDBRANCH  13  16
ENDBRANCH  11  12
BRANCH   1  24
HETATM   24  C   UNL     1      24.229  48.521  48.785  1.00  0.00     0.064 A 
HETATM   25  C   UNL     1      25.201  47.961  49.647  1.00  0.00    -0.033 A 
HETATM   26  C   UNL     1      24.926  46.818  50.591  1.00  0.00     0.050 C 
HETATM   27  C   UNL     1      26.497  48.509  49.654  1.00  0.00     0.009 A 
HETATM   28  C   UNL     1      26.828  49.590  48.837  1.00  0.00     0.001 A 
HETATM   29  C   UNL     1      25.874  50.129  47.983  1.00  0.00     0.002 A 
HETATM   30  C   UNL     1      24.584  49.594  47.951  1.00  0.00     0.032 A 
ENDBRANCH   1  24
TORSDOF 3
ENDMDL
MODEL 9
REMARK VINA RESULT:      -7.5     13.275     16.319
REMARK  3 active torsions:
REMARK  status: ('A' for Active; 'I' for Inactive)
REMARK    1  A    between atoms: C_3  and  N_4 
REMARK    2  A    between atoms: C_14  and  N_15 
REMARK       I    between atoms: N_15  and  C_16 
REMARK    3  A    between atoms: C_16  and  C_17 
ROOT
HETATM    1  N   UNL     1      15.880  52.714  45.202  1.00  0.00    -0.237 N 
HETATM    2  N   UNL     1      14.659  53.303  45.343  1.00  0.00    -0.179 NA
HETATM    3  C   UNL     1      14.368  53.216  46.638  1.00  0.00     0.150 A 
HETATM    4  C   UNL     1      15.377  52.580  47.367  1.00  0.00     0.008 A 
HETATM    5  C   UNL     1      16.357  52.285  46.435  1.00  0.00     0.047 A 
HETATM    6  C   UNL     1      17.561  51.442  46.714  1.00  0.00     0.069 C 
HETATM    7  C   UNL     1      17.848  51.354  48.247  1.00  0.00    -0.040 C 
HETATM    8  C   UNL     1      18.591  52.622  48.718  1.00  0.00     0.015 C 
HETATM    9  C   UNL     1      18.774  50.148  48.503  1.00  0.00     0.015 C 
HETATM   10  C   UNL     1      16.529  51.142  49.054  1.00  0.00     0.039 C 
HETATM   11  C   UNL     1      15.418  52.190  48.802  1.00  0.00     0.122 C 
ENDROOT
BRANCH  11  12
HETATM   12  N   UNL     1      15.589  53.393  49.592  1.00  0.00    -0.347 N 
HETATM   13  C   UNL     1      14.715  53.698  50.603  1.00  0.00     0.270 C 
HETATM   14  O   UNL     1      13.760  52.992  50.913  1.00  0.00    -0.266 OA
HETATM   15  H   UNL     1      16.375  53.992  49.385  1.00  0.00     0.163 HD
BRANCH  13  16
HETATM   16  C   UNL     1      14.968  54.970  51.326  1.00  0.00     0.120 A 
HETATM   17  N   UNL     1      15.161  54.970  52.692  1.00  0.00    -0.303 N 
HETATM   18  C   UNL     1      15.364  56.277  53.136  1.00  0.00     0.324 A 
HETATM   19  H   UNL     1      15.147  54.146  53.274  1.00  0.00     0.171 HD
HETATM   20  O   UNL     1      15.560  56.661  54.272  1.00  0.00    -0.247 OA
HETATM   21  N   UNL     1      15.288  57.055  51.972  1.00  0.00    -0.316 N 
HETATM   22  C   UNL     1      15.047  56.239  50.893  1.00  0.00     0.128 A 
HETATM   23  H   UNL     1      15.393  58.059  51.975  1.00  0.00     0.170 HD
ENDBRANCH  13  16
ENDBRANCH  11  12
BRANCH   1  24
HETATM   24  C   UNL     1      16.479  52.615  43.911  1.00  0.00     0.064 A 
HETATM   25  C   UNL     1      16.495  51.394  43.196  1.00  0.00    -0.033 A 
HETATM   26  C   UNL     1      15.939  50.100  43.733  1.00  0.00     0.050 C 
HETATM   27  C   UNL     1      17.083  51.366  41.917  1.00  0.00     0.009 A 
HETATM   28  C   UNL     1      17.651  52.510  41.359  1.00  0.00     0.001 A 
HETATM   29  C   UNL     1      17.623  53.709  42.060  1.00  0.00     0.002 A 
HETATM   30  C   UNL     1      17.035  53.764  43.325  1.00  0.00     0.032 A 
ENDBRANCH   1  24
TORSDOF 3
ENDMDL
MODEL 10
REMARK VINA RESULT:      -7.2      1.294      1.944
REMARK  3 active torsions:
REMARK  status: ('A' for Active; 'I' for Inactive)
REMARK    1  A    between atoms: C_3  and  N_4 
REMARK    2  A    between atoms: C_14  and  N_15 
REMARK       I    between atoms: N_15  and  C_16 
REMARK    3  A    between atoms: C_16  and  C_17 
ROOT
HETATM    1  N   UNL     1      30.233  50.810  40.052  1.00  0.00    -0.237 N 
HETATM    2  N   UNL     1      29.707  51.907  39.440  1.00  0.00    -0.179 NA
HETATM    3  C   UNL     1      28.644  51.469  38.773  1.00  0.00     0.150 A 
HETATM    4  C   UNL     1      28.448  50.094  38.929  1.00  0.00     0.008 A 
HETATM    5  C   UNL     1      29.463  49.685  39.777  1.00  0.00     0.047 A 
HETATM    6  C   UNL     1      29.771  48.256  40.098  1.00  0.00     0.069 C 
HETATM    7  C   UNL     1      28.552  47.331  39.789  1.00  0.00    -0.040 C 
HETATM    8  C   UNL     1      27.532  47.399  40.944  1.00  0.00     0.015 C 
HETATM    9  C   UNL     1      29.054  45.876  39.695  1.00  0.00     0.015 C 
HETATM   10  C   UNL     1      27.889  47.711  38.427  1.00  0.00     0.039 C 
HETATM   11  C   UNL     1      27.455  49.190  38.289  1.00  0.00     0.122 C 
ENDROOT
BRANCH  11  12
HETATM   12  N   UNL     1      26.158  49.454  38.879  1.00  0.00    -0.347 N 
HETATM   13  C   UNL     1      25.005  49.140  38.208  1.00  0.00     0.270 C 
HETATM   14  O   UNL     1      24.984  48.615  37.099  1.00  0.00    -0.266 OA
HETATM   15  H   UNL     1      26.128  49.865  39.801  1.00  0.00     0.163 HD
BRANCH  13  16
HETATM   16  C   UNL     1      23.733  49.482  38.894  1.00  0.00     0.120 A 
HETATM   17  N   UNL     1      23.209  50.755  38.801  1.00  0.00    -0.303 N 
HETATM   18  C   UNL     1      22.028  50.830  39.538  1.00  0.00     0.324 A 
HETATM   19  H   UNL     1      23.630  51.512  38.283  1.00  0.00     0.171 HD
HETATM   20  O   UNL     1      21.298  51.790  39.690  1.00  0.00    -0.247 OA
HETATM   21  N   UNL     1      21.868  49.543  40.072  1.00  0.00    -0.316 N 
HETATM   22  C   UNL     1      22.914  48.749  39.668  1.00  0.00     0.128 A 
HETATM   23  H   UNL     1      21.092  49.287  40.664  1.00  0.00     0.170 HD
ENDBRANCH  13  16
ENDBRANCH  11  12
BRANCH   1  24
HETATM   24  C   UNL     1      31.416  50.930  40.840  1.00  0.00     0.064 A 
HETATM   25  C   UNL     1      31.437  51.699  42.028  1.00  0.00    -0.033 A 
HETATM   26  C   UNL     1      30.258  52.487  42.538  1.00  0.00     0.050 C 
HETATM   27  C   UNL     1      32.629  51.761  42.774  1.00  0.00     0.009 A 
HETATM   28  C   UNL     1      33.778  51.089  42.356  1.00  0.00     0.001 A 
HETATM   29  C   UNL     1      33.749  50.326  41.195  1.00  0.00     0.002 A 
HETATM   30  C   UNL     1      32.574  50.240  40.445  1.00  0.00     0.032 A 
ENDBRANCH   1  24
TORSDOF 3
ENDMDL
