MODEL 1
REMARK VINA RESULT:     -10.6      0.000      0.000
REMARK  11 active torsions:
REMARK  status: ('A' for Active; 'I' for Inactive)
REMARK    1  A    between atoms: C_2  and  C_3 
REMARK    2  A    between atoms: C_3  and  C_4 
REMARK       I    between atoms: C_4  and  N_6 
REMARK    3  A    between atoms: N_6  and  C_7 
REMARK    4  A    between atoms: C_11  and  C_13 
REMARK    5  A    between atoms: C_15  and  N_16 
REMARK    6  A    between atoms: N_16  and  C_17 
REMARK    7  A    between atoms: C_29  and  O_30 
REMARK    8  A    between atoms: O_30  and  C_31 
REMARK    9  A    between atoms: C_31  and  C_32 
REMARK   10  A    between atoms: C_32  and  N_33 
REMARK   11  A    between atoms: C_41  and  O_42 
ROOT
HETATM    1  C   UNL     1      25.470  46.597  52.045  1.00  0.00     0.162 A 
HETATM    2  N   UNL     1      24.861  45.422  51.835  1.00  0.00    -0.215 NA
HETATM    3  C   UNL     1      24.034  45.320  50.788  1.00  0.00     0.122 A 
HETATM    4  C   UNL     1      23.804  46.396  49.920  1.00  0.00     0.036 A 
HETATM    5  C   UNL     1      22.920  46.358  48.812  1.00  0.00     0.057 A 
HETATM    6  C   UNL     1      22.738  47.478  48.002  1.00  0.00     0.103 A 
HETATM    7  C   UNL     1      23.503  48.618  48.258  1.00  0.00     0.103 A 
HETATM    8  C   UNL     1      24.359  48.657  49.363  1.00  0.00     0.072 A 
HETATM    9  C   UNL     1      24.524  47.563  50.202  1.00  0.00     0.075 A 
HETATM   10  N   UNL     1      25.351  47.669  51.245  1.00  0.00    -0.228 NA
ENDROOT
BRANCH   1  11
HETATM   11  C   UNL     1      26.249  46.731  53.288  1.00  0.00     0.014 A 
HETATM   12  C   UNL     1      25.973  47.724  54.240  1.00  0.00     0.015 A 
HETATM   13  C   UNL     1      26.730  47.827  55.409  1.00  0.00     0.003 A 
HETATM   14  C   UNL     1      27.767  46.924  55.655  1.00  0.00     0.029 A 
HETATM   15  C   UNL     1      28.050  45.905  54.742  1.00  0.00     0.035 A 
HETATM   16  C   UNL     1      27.301  45.831  53.566  1.00  0.00     0.044 A 
BRANCH  15  17
HETATM   17  N   UNL     1      29.095  45.009  55.057  1.00  0.00    -0.327 N 
HETATM   18  C   UNL     1      29.155  43.658  54.745  1.00  0.00     0.222 C 
HETATM   19  O   UNL     1      28.268  42.991  54.223  1.00  0.00    -0.273 OA
HETATM   20  H   UNL     1      29.845  45.379  55.625  1.00  0.00     0.169 HD
BRANCH  18  21
HETATM   21  C   UNL     1      30.484  43.044  55.155  1.00  0.00     0.103 C 
BRANCH  21  22
HETATM   22  C   UNL     1      31.303  43.988  56.035  1.00  0.00     0.005 C 
HETATM   23  C   UNL     1      31.784  43.302  57.301  1.00  0.00     0.005 C 
ENDBRANCH  21  22
ENDBRANCH  18  21
ENDBRANCH  15  17
ENDBRANCH   1  11
BRANCH   3  24
HETATM   24  N   UNL     1      23.305  44.110  50.611  1.00  0.00    -0.243 NA
HETATM   25  H   UNL     1      22.857  43.896  51.498  1.00  0.00     0.135 HD
BRANCH  24  26
HETATM   26  C   UNL     1      23.794  42.925  50.001  1.00  0.00     0.015 A 
HETATM   27  C   UNL     1      23.222  42.490  48.794  1.00  0.00     0.026 A 
HETATM   28  C   UNL     1      23.703  41.369  48.101  1.00  0.00     0.034 A 
HETATM   29  C   UNL     1      24.808  40.715  48.647  1.00  0.00     0.061 A 
HETATM   30  N   UNL     1      25.513  39.612  48.239  1.00  0.00    -0.278 N 
HETATM   31  C   UNL     1      25.429  41.133  49.816  1.00  0.00     0.013 A 
HETATM   32  H   UNL     1      25.339  39.032  47.426  1.00  0.00     0.189 HD
HETATM   33  N   UNL     1      26.553  39.300  49.031  1.00  0.00    -0.186 NA
HETATM   34  C   UNL     1      26.493  40.222  49.997  1.00  0.00     0.152 A 
HETATM   35  C   UNL     1      24.928  42.257  50.497  1.00  0.00     0.039 A 
ENDBRANCH  24  26
ENDBRANCH   3  24
BRANCH   7  36
HETATM   36  O   UNL     1      23.412  49.780  47.535  1.00  0.00    -0.353 OA
HETATM   37  C   UNL     1      23.087  50.914  48.338  1.00  0.00     0.210 C 
ENDBRANCH   7  36
BRANCH   6  38
HETATM   38  O   UNL     1      21.862  47.508  46.951  1.00  0.00    -0.347 OA
BRANCH  38  39
HETATM   39  C   UNL     1      20.488  47.289  47.290  1.00  0.00     0.206 C 
BRANCH  39  40
HETATM   40  C   UNL     1      19.933  48.622  47.819  1.00  0.00     0.299 C 
BRANCH  40  41
HETATM   41  N   UNL     1      19.336  48.551  49.168  1.00  0.00     0.093 N 
HETATM   42  C   UNL     1      17.866  48.688  49.171  1.00  0.00     0.300 C 
HETATM   43  C   UNL     1      17.340  50.112  48.893  1.00  0.00     0.264 C 
HETATM   44  N   UNL     1      17.982  51.103  49.851  1.00  0.00    -0.072 N 
HETATM   45  H   UNL     1      17.688  50.829  50.799  1.00  0.00     0.279 HD
HETATM   46  C   UNL     1      17.499  52.503  49.620  1.00  0.00     0.269 C 
HETATM   47  C   UNL     1      19.499  51.007  49.823  1.00  0.00     0.264 C 
HETATM   48  C   UNL     1      19.942  49.551  50.074  1.00  0.00     0.300 C 
ENDBRANCH  40  41
ENDBRANCH  39  40
ENDBRANCH  38  39
ENDBRANCH   6  38
TORSDOF 11
ENDMDL
MODEL 2
REMARK VINA RESULT:     -10.3      2.185      5.791
REMARK  11 active torsions:
REMARK  status: ('A' for Active; 'I' for Inactive)
REMARK    1  A    between atoms: C_2  and  C_3 
REMARK    2  A    between atoms: C_3  and  C_4 
REMARK       I    between atoms: C_4  and  N_6 
REMARK    3  A    between atoms: N_6  and  C_7 
REMARK    4  A    between atoms: C_11  and  C_13 
REMARK    5  A    between atoms: C_15  and  N_16 
REMARK    6  A    between atoms: N_16  and  C_17 
REMARK    7  A    between atoms: C_29  and  O_30 
REMARK    8  A    between atoms: O_30  and  C_31 
REMARK    9  A    between atoms: C_31  and  C_32 
REMARK   10  A    between atoms: C_32  and  N_33 
REMARK   11  A    between atoms: C_41  and  O_42 
ROOT
HETATM    1  C   UNL     1      25.187  46.355  51.914  1.00  0.00     0.162 A 
HETATM    2  N   UNL     1      25.037  47.387  51.072  1.00  0.00    -0.215 NA
HETATM    3  C   UNL     1      24.407  47.168  49.911  1.00  0.00     0.122 A 
HETATM    4  C   UNL     1      23.905  45.904  49.570  1.00  0.00     0.036 A 
HETATM    5  C   UNL     1      23.255  45.603  48.347  1.00  0.00     0.057 A 
HETATM    6  C   UNL     1      22.793  44.316  48.079  1.00  0.00     0.103 A 
HETATM    7  C   UNL     1      22.916  43.342  49.073  1.00  0.00     0.103 A 
HETATM    8  C   UNL     1      23.575  43.640  50.270  1.00  0.00     0.072 A 
HETATM    9  C   UNL     1      24.074  44.906  50.538  1.00  0.00     0.075 A 
HETATM   10  N   UNL     1      24.701  45.122  51.698  1.00  0.00    -0.228 NA
ENDROOT
BRANCH   1  11
HETATM   11  C   UNL     1      26.017  46.584  53.108  1.00  0.00     0.014 A 
HETATM   12  C   UNL     1      25.776  47.646  53.993  1.00  0.00     0.015 A 
HETATM   13  C   UNL     1      26.581  47.840  55.117  1.00  0.00     0.003 A 
HETATM   14  C   UNL     1      27.633  46.961  55.387  1.00  0.00     0.029 A 
HETATM   15  C   UNL     1      27.882  45.876  54.543  1.00  0.00     0.035 A 
HETATM   16  C   UNL     1      27.084  45.710  53.409  1.00  0.00     0.044 A 
BRANCH  15  17
HETATM   17  N   UNL     1      28.944  45.008  54.880  1.00  0.00    -0.327 N 
HETATM   18  C   UNL     1      28.971  43.629  54.731  1.00  0.00     0.222 C 
HETATM   19  O   UNL     1      28.041  42.917  54.366  1.00  0.00    -0.273 OA
HETATM   20  H   UNL     1      29.740  45.433  55.338  1.00  0.00     0.169 HD
BRANCH  18  21
HETATM   21  C   UNL     1      30.326  43.049  55.105  1.00  0.00     0.103 C 
BRANCH  21  22
HETATM   22  C   UNL     1      31.100  43.968  56.050  1.00  0.00     0.005 C 
HETATM   23  C   UNL     1      31.751  43.193  57.182  1.00  0.00     0.005 C 
ENDBRANCH  21  22
ENDBRANCH  18  21
ENDBRANCH  15  17
ENDBRANCH   1  11
BRANCH   3  24
HETATM   24  N   UNL     1      24.330  48.230  48.968  1.00  0.00    -0.243 NA
HETATM   25  H   UNL     1      25.254  48.649  48.908  1.00  0.00     0.135 HD
BRANCH  24  26
HETATM   26  C   UNL     1      23.324  49.232  48.923  1.00  0.00     0.015 A 
HETATM   27  C   UNL     1      23.504  50.345  48.085  1.00  0.00     0.026 A 
HETATM   28  C   UNL     1      22.521  51.335  47.939  1.00  0.00     0.034 A 
HETATM   29  C   UNL     1      21.329  51.152  48.641  1.00  0.00     0.061 A 
HETATM   30  N   UNL     1      20.189  51.909  48.724  1.00  0.00    -0.278 N 
HETATM   31  C   UNL     1      21.093  50.047  49.449  1.00  0.00     0.013 A 
HETATM   32  H   UNL     1      20.003  52.797  48.274  1.00  0.00     0.189 HD
HETATM   33  N   UNL     1      19.228  51.372  49.495  1.00  0.00    -0.186 NA
HETATM   34  C   UNL     1      19.786  50.244  49.944  1.00  0.00     0.152 A 
HETATM   35  C   UNL     1      22.094  49.068  49.584  1.00  0.00     0.039 A 
ENDBRANCH  24  26
ENDBRANCH   3  24
BRANCH   7  36
HETATM   36  O   UNL     1      22.503  42.042  48.928  1.00  0.00    -0.353 OA
HETATM   37  C   UNL     1      23.511  41.194  48.381  1.00  0.00     0.210 C 
ENDBRANCH   7  36
BRANCH   6  38
HETATM   38  O   UNL     1      22.203  43.963  46.896  1.00  0.00    -0.347 OA
BRANCH  38  39
HETATM   39  C   UNL     1      21.951  45.043  45.989  1.00  0.00     0.206 C 
BRANCH  39  40
HETATM   40  C   UNL     1      20.424  45.195  45.879  1.00  0.00     0.299 C 
BRANCH  40  41
HETATM   41  N   UNL     1      19.956  46.580  45.671  1.00  0.00     0.093 N 
HETATM   42  C   UNL     1      20.153  47.453  46.847  1.00  0.00     0.300 C 
HETATM   43  C   UNL     1      19.195  47.189  48.027  1.00  0.00     0.264 C 
HETATM   44  N   UNL     1      17.752  47.235  47.550  1.00  0.00    -0.072 N 
HETATM   45  H   UNL     1      17.586  48.190  47.206  1.00  0.00     0.279 HD
HETATM   46  C   UNL     1      16.782  46.984  48.665  1.00  0.00     0.269 C 
HETATM   47  C   UNL     1      17.522  46.303  46.370  1.00  0.00     0.264 C 
HETATM   48  C   UNL     1      18.539  46.608  45.249  1.00  0.00     0.300 C 
ENDBRANCH  40  41
ENDBRANCH  39  40
ENDBRANCH  38  39
ENDBRANCH   6  38
TORSDOF 11
ENDMDL
MODEL 3
REMARK VINA RESULT:      -9.7      2.769      5.656
REMARK  11 active torsions:
REMARK  status: ('A' for Active; 'I' for Inactive)
REMARK    1  A    between atoms: C_2  and  C_3 
REMARK    2  A    between atoms: C_3  and  C_4 
REMARK       I    between atoms: C_4  and  N_6 
REMARK    3  A    between atoms: N_6  and  C_7 
REMARK    4  A    between atoms: C_11  and  C_13 
REMARK    5  A    between atoms: C_15  and  N_16 
REMARK    6  A    between atoms: N_16  and  C_17 
REMARK    7  A    between atoms: C_29  and  O_30 
REMARK    8  A    between atoms: O_30  and  C_31 
REMARK    9  A    between atoms: C_31  and  C_32 
REMARK   10  A    between atoms: C_32  and  N_33 
REMARK   11  A    between atoms: C_41  and  O_42 
ROOT
HETATM    1  C   UNL     1      26.649  43.307  51.826  1.00  0.00     0.162 A 
HETATM    2  N   UNL     1      25.951  44.450  51.883  1.00  0.00    -0.215 NA
HETATM    3  C   UNL     1      24.897  44.586  51.070  1.00  0.00     0.122 A 
HETATM    4  C   UNL     1      24.512  43.571  50.183  1.00  0.00     0.036 A 
HETATM    5  C   UNL     1      23.424  43.666  49.280  1.00  0.00     0.057 A 
HETATM    6  C   UNL     1      23.113  42.613  48.420  1.00  0.00     0.103 A 
HETATM    7  C   UNL     1      23.849  41.431  48.519  1.00  0.00     0.103 A 
HETATM    8  C   UNL     1      24.933  41.349  49.399  1.00  0.00     0.072 A 
HETATM    9  C   UNL     1      25.280  42.401  50.235  1.00  0.00     0.075 A 
HETATM   10  N   UNL     1      26.332  42.262  51.046  1.00  0.00    -0.228 NA
ENDROOT
BRANCH   1  11
HETATM   11  C   UNL     1      27.892  43.246  52.614  1.00  0.00     0.014 A 
HETATM   12  C   UNL     1      29.040  42.587  52.148  1.00  0.00     0.015 A 
HETATM   13  C   UNL     1      30.204  42.544  52.918  1.00  0.00     0.003 A 
HETATM   14  C   UNL     1      30.246  43.177  54.163  1.00  0.00     0.029 A 
HETATM   15  C   UNL     1      29.130  43.867  54.644  1.00  0.00     0.035 A 
HETATM   16  C   UNL     1      27.966  43.879  53.874  1.00  0.00     0.044 A 
BRANCH  15  17
HETATM   17  N   UNL     1      29.240  44.506  55.898  1.00  0.00    -0.327 N 
HETATM   18  C   UNL     1      29.005  45.845  56.173  1.00  0.00     0.222 C 
HETATM   19  O   UNL     1      28.750  46.723  55.355  1.00  0.00    -0.273 OA
HETATM   20  H   UNL     1      29.590  43.939  56.660  1.00  0.00     0.169 HD
BRANCH  18  21
HETATM   21  C   UNL     1      29.122  46.144  57.659  1.00  0.00     0.103 C 
BRANCH  21  22
HETATM   22  C   UNL     1      30.579  46.211  58.116  1.00  0.00     0.005 C 
HETATM   23  C   UNL     1      31.121  44.838  58.474  1.00  0.00     0.005 C 
ENDBRANCH  21  22
ENDBRANCH  18  21
ENDBRANCH  15  17
ENDBRANCH   1  11
BRANCH   3  24
HETATM   24  N   UNL     1      24.208  45.832  51.051  1.00  0.00    -0.243 NA
HETATM   25  H   UNL     1      23.213  45.626  51.077  1.00  0.00     0.135 HD
BRANCH  24  26
HETATM   26  C   UNL     1      24.471  46.915  50.172  1.00  0.00     0.015 A 
HETATM   27  C   UNL     1      23.397  47.556  49.534  1.00  0.00     0.026 A 
HETATM   28  C   UNL     1      23.579  48.676  48.710  1.00  0.00     0.034 A 
HETATM   29  C   UNL     1      24.882  49.155  48.573  1.00  0.00     0.061 A 
HETATM   30  N   UNL     1      25.403  50.203  47.859  1.00  0.00    -0.278 N 
HETATM   31  C   UNL     1      25.969  48.576  49.215  1.00  0.00     0.013 A 
HETATM   32  H   UNL     1      24.905  50.848  47.256  1.00  0.00     0.189 HD
HETATM   33  N   UNL     1      26.729  50.366  48.008  1.00  0.00    -0.186 NA
HETATM   34  C   UNL     1      27.072  49.367  48.826  1.00  0.00     0.152 A 
HETATM   35  C   UNL     1      25.764  47.452  50.034  1.00  0.00     0.039 A 
ENDBRANCH  24  26
ENDBRANCH   3  24
BRANCH   7  36
HETATM   36  O   UNL     1      23.640  40.329  47.729  1.00  0.00    -0.353 OA
HETATM   37  C   UNL     1      24.852  39.692  47.328  1.00  0.00     0.210 C 
ENDBRANCH   7  36
BRANCH   6  38
HETATM   38  O   UNL     1      22.104  42.673  47.498  1.00  0.00    -0.347 OA
BRANCH  38  39
HETATM   39  C   UNL     1      22.157  43.789  46.601  1.00  0.00     0.206 C 
BRANCH  39  40
HETATM   40  C   UNL     1      20.824  44.544  46.739  1.00  0.00     0.299 C 
BRANCH  40  41
HETATM   41  N   UNL     1      20.923  45.851  47.420  1.00  0.00     0.093 N 
HETATM   42  C   UNL     1      20.015  45.984  48.577  1.00  0.00     0.300 C 
HETATM   43  C   UNL     1      18.523  46.158  48.223  1.00  0.00     0.264 C 
HETATM   44  N   UNL     1      18.348  47.318  47.255  1.00  0.00    -0.072 N 
HETATM   45  H   UNL     1      18.664  48.164  47.749  1.00  0.00     0.279 HD
HETATM   46  C   UNL     1      16.911  47.527  46.882  1.00  0.00     0.269 C 
HETATM   47  C   UNL     1      19.241  47.169  46.034  1.00  0.00     0.264 C 
HETATM   48  C   UNL     1      20.707  46.966  46.473  1.00  0.00     0.300 C 
ENDBRANCH  40  41
ENDBRANCH  39  40
ENDBRANCH  38  39
ENDBRANCH   6  38
TORSDOF 11
ENDMDL
MODEL 4
REMARK VINA RESULT:      -9.5      2.829      4.583
REMARK  11 active torsions:
REMARK  status: ('A' for Active; 'I' for Inactive)
REMARK    1  A    between atoms: C_2  and  C_3 
REMARK    2  A    between atoms: C_3  and  C_4 
REMARK       I    between atoms: C_4  and  N_6 
REMARK    3  A    between atoms: N_6  and  C_7 
REMARK    4  A    between atoms: C_11  and  C_13 
REMARK    5  A    between atoms: C_15  and  N_16 
REMARK    6  A    between atoms: N_16  and  C_17 
REMARK    7  A    between atoms: C_29  and  O_30 
REMARK    8  A    between atoms: O_30  and  C_31 
REMARK    9  A    between atoms: C_31  and  C_32 
REMARK   10  A    between atoms: C_32  and  N_33 
REMARK   11  A    between atoms: C_41  and  O_42 
ROOT
HETATM    1  C   UNL     1      26.032  44.226  51.105  1.00  0.00     0.162 A 
HETATM    2  N   UNL     1      24.742  43.929  50.896  1.00  0.00    -0.215 NA
HETATM    3  C   UNL     1      23.961  44.864  50.342  1.00  0.00     0.122 A 
HETATM    4  C   UNL     1      24.460  46.121  49.975  1.00  0.00     0.036 A 
HETATM    5  C   UNL     1      23.679  47.160  49.410  1.00  0.00     0.057 A 
HETATM    6  C   UNL     1      24.251  48.389  49.082  1.00  0.00     0.103 A 
HETATM    7  C   UNL     1      25.627  48.551  49.252  1.00  0.00     0.103 A 
HETATM    8  C   UNL     1      26.390  47.529  49.827  1.00  0.00     0.072 A 
HETATM    9  C   UNL     1      25.830  46.313  50.193  1.00  0.00     0.075 A 
HETATM   10  N   UNL     1      26.612  45.382  50.746  1.00  0.00    -0.228 NA
ENDROOT
BRANCH   1  11
HETATM   11  C   UNL     1      26.829  43.243  51.857  1.00  0.00     0.014 A 
HETATM   12  C   UNL     1      26.989  43.318  53.249  1.00  0.00     0.015 A 
HETATM   13  C   UNL     1      27.753  42.371  53.935  1.00  0.00     0.003 A 
HETATM   14  C   UNL     1      28.356  41.319  53.241  1.00  0.00     0.029 A 
HETATM   15  C   UNL     1      28.192  41.198  51.859  1.00  0.00     0.035 A 
HETATM   16  C   UNL     1      27.447  42.166  51.184  1.00  0.00     0.044 A 
BRANCH  15  17
HETATM   17  N   UNL     1      28.806  40.101  51.216  1.00  0.00    -0.327 N 
HETATM   18  C   UNL     1      28.238  39.273  50.258  1.00  0.00     0.222 C 
HETATM   19  O   UNL     1      27.074  39.297  49.873  1.00  0.00    -0.273 OA
HETATM   20  H   UNL     1      29.733  39.856  51.537  1.00  0.00     0.169 HD
BRANCH  18  21
HETATM   21  C   UNL     1      29.241  38.265  49.719  1.00  0.00     0.103 C 
BRANCH  21  22
HETATM   22  C   UNL     1      30.263  37.852  50.779  1.00  0.00     0.005 C 
HETATM   23  C   UNL     1      29.829  36.602  51.523  1.00  0.00     0.005 C 
ENDBRANCH  21  22
ENDBRANCH  18  21
ENDBRANCH  15  17
ENDBRANCH   1  11
BRANCH   3  24
HETATM   24  N   UNL     1      22.569  44.596  50.206  1.00  0.00    -0.243 NA
HETATM   25  H   UNL     1      22.331  43.888  50.895  1.00  0.00     0.135 HD
BRANCH  24  26
HETATM   26  C   UNL     1      21.882  44.358  48.987  1.00  0.00     0.015 A 
HETATM   27  C   UNL     1      20.711  45.083  48.709  1.00  0.00     0.026 A 
HETATM   28  C   UNL     1      20.023  44.950  47.494  1.00  0.00     0.034 A 
HETATM   29  C   UNL     1      20.571  44.083  46.548  1.00  0.00     0.061 A 
HETATM   30  N   UNL     1      20.163  43.725  45.289  1.00  0.00    -0.278 N 
HETATM   31  C   UNL     1      21.746  43.376  46.766  1.00  0.00     0.013 A 
HETATM   32  H   UNL     1      19.333  44.034  44.796  1.00  0.00     0.189 HD
HETATM   33  N   UNL     1      20.991  42.868  44.666  1.00  0.00    -0.186 NA
HETATM   34  C   UNL     1      21.948  42.649  45.572  1.00  0.00     0.152 A 
HETATM   35  C   UNL     1      22.419  43.522  47.992  1.00  0.00     0.039 A 
ENDBRANCH  24  26
ENDBRANCH   3  24
BRANCH   7  36
HETATM   36  O   UNL     1      26.304  49.710  48.969  1.00  0.00    -0.353 OA
HETATM   37  C   UNL     1      27.720  49.540  48.949  1.00  0.00     0.210 C 
ENDBRANCH   7  36
BRANCH   6  38
HETATM   38  O   UNL     1      23.532  49.439  48.580  1.00  0.00    -0.347 OA
BRANCH  38  39
HETATM   39  C   UNL     1      22.434  49.875  49.390  1.00  0.00     0.206 C 
BRANCH  39  40
HETATM   40  C   UNL     1      21.151  49.657  48.569  1.00  0.00     0.299 C 
BRANCH  40  41
HETATM   41  N   UNL     1      19.951  50.327  49.110  1.00  0.00     0.093 N 
HETATM   42  C   UNL     1      19.420  49.690  50.333  1.00  0.00     0.300 C 
HETATM   43  C   UNL     1      18.703  48.342  50.111  1.00  0.00     0.264 C 
HETATM   44  N   UNL     1      17.615  48.495  49.060  1.00  0.00    -0.072 N 
HETATM   45  H   UNL     1      16.933  49.167  49.438  1.00  0.00     0.279 HD
HETATM   46  C   UNL     1      16.888  47.208  48.810  1.00  0.00     0.269 C 
HETATM   47  C   UNL     1      18.158  49.105  47.776  1.00  0.00     0.264 C 
HETATM   48  C   UNL     1      18.888  50.429  48.087  1.00  0.00     0.300 C 
ENDBRANCH  40  41
ENDBRANCH  39  40
ENDBRANCH  38  39
ENDBRANCH   6  38
TORSDOF 11
ENDMDL
MODEL 5
REMARK VINA RESULT:      -9.5      2.769      7.118
REMARK  11 active torsions:
REMARK  status: ('A' for Active; 'I' for Inactive)
REMARK    1  A    between atoms: C_2  and  C_3 
REMARK    2  A    between atoms: C_3  and  C_4 
REMARK       I    between atoms: C_4  and  N_6 
REMARK    3  A    between atoms: N_6  and  C_7 
REMARK    4  A    between atoms: C_11  and  C_13 
REMARK    5  A    between atoms: C_15  and  N_16 
REMARK    6  A    between atoms: N_16  and  C_17 
REMARK    7  A    between atoms: C_29  and  O_30 
REMARK    8  A    between atoms: O_30  and  C_31 
REMARK    9  A    between atoms: C_31  and  C_32 
REMARK   10  A    between atoms: C_32  and  N_33 
REMARK   11  A    between atoms: C_41  and  O_42 
ROOT
HETATM    1  C   UNL     1      25.223  46.327  51.973  1.00  0.00     0.162 A 
HETATM    2  N   UNL     1      25.033  47.359  51.140  1.00  0.00    -0.215 NA
HETATM    3  C   UNL     1      24.409  47.127  49.980  1.00  0.00     0.122 A 
HETATM    4  C   UNL     1      23.953  45.848  49.629  1.00  0.00     0.036 A 
HETATM    5  C   UNL     1      23.311  45.534  48.405  1.00  0.00     0.057 A 
HETATM    6  C   UNL     1      22.896  44.232  48.128  1.00  0.00     0.103 A 
HETATM    7  C   UNL     1      23.058  43.256  49.113  1.00  0.00     0.103 A 
HETATM    8  C   UNL     1      23.709  43.567  50.311  1.00  0.00     0.072 A 
HETATM    9  C   UNL     1      24.161  44.850  50.588  1.00  0.00     0.075 A 
HETATM   10  N   UNL     1      24.783  45.079  51.748  1.00  0.00    -0.228 NA
ENDROOT
BRANCH   1  11
HETATM   11  C   UNL     1      26.048  46.577  53.167  1.00  0.00     0.014 A 
HETATM   12  C   UNL     1      25.789  47.642  54.044  1.00  0.00     0.015 A 
HETATM   13  C   UNL     1      26.589  47.855  55.168  1.00  0.00     0.003 A 
HETATM   14  C   UNL     1      27.653  46.994  55.446  1.00  0.00     0.029 A 
HETATM   15  C   UNL     1      27.920  45.907  54.610  1.00  0.00     0.035 A 
HETATM   16  C   UNL     1      27.128  45.722  53.476  1.00  0.00     0.044 A 
BRANCH  15  17
HETATM   17  N   UNL     1      28.995  45.058  54.955  1.00  0.00    -0.327 N 
HETATM   18  C   UNL     1      29.062  43.684  54.773  1.00  0.00     0.222 C 
HETATM   19  O   UNL     1      28.161  42.959  54.366  1.00  0.00    -0.273 OA
HETATM   20  H   UNL     1      29.767  45.491  55.445  1.00  0.00     0.169 HD
BRANCH  18  21
HETATM   21  C   UNL     1      30.421  43.130  55.170  1.00  0.00     0.103 C 
BRANCH  21  22
HETATM   22  C   UNL     1      31.135  44.032  56.176  1.00  0.00     0.005 C 
HETATM   23  C   UNL     1      31.907  43.226  57.206  1.00  0.00     0.005 C 
ENDBRANCH  21  22
ENDBRANCH  18  21
ENDBRANCH  15  17
ENDBRANCH   1  11
BRANCH   3  24
HETATM   24  N   UNL     1      24.288  48.194  49.045  1.00  0.00    -0.243 NA
HETATM   25  H   UNL     1      25.197  48.646  48.986  1.00  0.00     0.135 HD
BRANCH  24  26
HETATM   26  C   UNL     1      23.247  49.159  49.012  1.00  0.00     0.015 A 
HETATM   27  C   UNL     1      23.555  50.487  48.676  1.00  0.00     0.026 A 
HETATM   28  C   UNL     1      22.567  51.475  48.555  1.00  0.00     0.034 A 
HETATM   29  C   UNL     1      21.245  51.074  48.753  1.00  0.00     0.061 A 
HETATM   30  N   UNL     1      20.062  51.766  48.714  1.00  0.00    -0.278 N 
HETATM   31  C   UNL     1      20.891  49.764  49.049  1.00  0.00     0.013 A 
HETATM   32  H   UNL     1      19.930  52.755  48.538  1.00  0.00     0.189 HD
HETATM   33  N   UNL     1      18.974  51.007  48.933  1.00  0.00    -0.186 NA
HETATM   34  C   UNL     1      19.483  49.791  49.148  1.00  0.00     0.152 A 
HETATM   35  C   UNL     1      21.899  48.790  49.168  1.00  0.00     0.039 A 
ENDBRANCH  24  26
ENDBRANCH   3  24
BRANCH   7  36
HETATM   36  O   UNL     1      22.694  41.942  48.958  1.00  0.00    -0.353 OA
HETATM   37  C   UNL     1      23.752  41.124  48.463  1.00  0.00     0.210 C 
ENDBRANCH   7  36
BRANCH   6  38
HETATM   38  O   UNL     1      22.316  43.867  46.943  1.00  0.00    -0.347 OA
BRANCH  38  39
HETATM   39  C   UNL     1      20.888  43.963  46.904  1.00  0.00     0.206 C 
BRANCH  39  40
HETATM   40  C   UNL     1      20.395  42.957  45.849  1.00  0.00     0.299 C 
BRANCH  40  41
HETATM   41  N   UNL     1      21.388  41.934  45.461  1.00  0.00     0.093 N 
HETATM   42  C   UNL     1      21.632  41.872  44.005  1.00  0.00     0.300 C 
HETATM   43  C   UNL     1      20.494  41.240  43.177  1.00  0.00     0.264 C 
HETATM   44  N   UNL     1      20.143  39.868  43.731  1.00  0.00    -0.072 N 
HETATM   45  H   UNL     1      20.984  39.284  43.624  1.00  0.00     0.279 HD
HETATM   46  C   UNL     1      19.040  39.213  42.955  1.00  0.00     0.269 C 
HETATM   47  C   UNL     1      19.841  39.925  45.220  1.00  0.00     0.264 C 
HETATM   48  C   UNL     1      21.009  40.600  45.971  1.00  0.00     0.300 C 
ENDBRANCH  40  41
ENDBRANCH  39  40
ENDBRANCH  38  39
ENDBRANCH   6  38
TORSDOF 11
ENDMDL
MODEL 6
REMARK VINA RESULT:      -9.4      2.323      4.120
REMARK  11 active torsions:
REMARK  status: ('A' for Active; 'I' for Inactive)
REMARK    1  A    between atoms: C_2  and  C_3 
REMARK    2  A    between atoms: C_3  and  C_4 
REMARK       I    between atoms: C_4  and  N_6 
REMARK    3  A    between atoms: N_6  and  C_7 
REMARK    4  A    between atoms: C_11  and  C_13 
REMARK    5  A    between atoms: C_15  and  N_16 
REMARK    6  A    between atoms: N_16  and  C_17 
REMARK    7  A    between atoms: C_29  and  O_30 
REMARK    8  A    between atoms: O_30  and  C_31 
REMARK    9  A    between atoms: C_31  and  C_32 
REMARK   10  A    between atoms: C_32  and  N_33 
REMARK   11  A    between atoms: C_41  and  O_42 
ROOT
HETATM    1  C   UNL     1      25.891  44.386  50.834  1.00  0.00     0.162 A 
HETATM    2  N   UNL     1      24.608  44.049  50.643  1.00  0.00    -0.215 NA
HETATM    3  C   UNL     1      23.785  44.970  50.127  1.00  0.00     0.122 A 
HETATM    4  C   UNL     1      24.234  46.252  49.782  1.00  0.00     0.036 A 
HETATM    5  C   UNL     1      23.406  47.277  49.258  1.00  0.00     0.057 A 
HETATM    6  C   UNL     1      23.929  48.532  48.950  1.00  0.00     0.103 A 
HETATM    7  C   UNL     1      25.302  48.737  49.097  1.00  0.00     0.103 A 
HETATM    8  C   UNL     1      26.110  47.729  49.632  1.00  0.00     0.072 A 
HETATM    9  C   UNL     1      25.600  46.486  49.979  1.00  0.00     0.075 A 
HETATM   10  N   UNL     1      26.425  45.570  50.493  1.00  0.00    -0.228 NA
ENDROOT
BRANCH   1  11
HETATM   11  C   UNL     1      26.737  43.413  51.546  1.00  0.00     0.014 A 
HETATM   12  C   UNL     1      26.738  42.047  51.223  1.00  0.00     0.015 A 
HETATM   13  C   UNL     1      27.549  41.147  51.917  1.00  0.00     0.003 A 
HETATM   14  C   UNL     1      28.391  41.602  52.935  1.00  0.00     0.029 A 
HETATM   15  C   UNL     1      28.437  42.960  53.261  1.00  0.00     0.035 A 
HETATM   16  C   UNL     1      27.601  43.843  52.576  1.00  0.00     0.044 A 
BRANCH  15  17
HETATM   17  N   UNL     1      29.324  43.363  54.283  1.00  0.00    -0.327 N 
HETATM   18  C   UNL     1      29.336  44.584  54.941  1.00  0.00     0.222 C 
HETATM   19  O   UNL     1      28.635  45.557  54.683  1.00  0.00    -0.273 OA
HETATM   20  H   UNL     1      30.068  42.716  54.510  1.00  0.00     0.169 HD
BRANCH  18  21
HETATM   21  C   UNL     1      30.371  44.614  56.055  1.00  0.00     0.103 C 
BRANCH  21  22
HETATM   22  C   UNL     1      31.067  43.263  56.225  1.00  0.00     0.005 C 
HETATM   23  C   UNL     1      32.096  43.297  57.340  1.00  0.00     0.005 C 
ENDBRANCH  21  22
ENDBRANCH  18  21
ENDBRANCH  15  17
ENDBRANCH   1  11
BRANCH   3  24
HETATM   24  N   UNL     1      22.401  44.657  50.013  1.00  0.00    -0.243 NA
HETATM   25  H   UNL     1      22.218  43.871  50.630  1.00  0.00     0.135 HD
BRANCH  24  26
HETATM   26  C   UNL     1      21.676  44.520  48.800  1.00  0.00     0.015 A 
HETATM   27  C   UNL     1      22.166  43.661  47.802  1.00  0.00     0.026 A 
HETATM   28  C   UNL     1      21.465  43.424  46.611  1.00  0.00     0.034 A 
HETATM   29  C   UNL     1      20.230  44.057  46.467  1.00  0.00     0.061 A 
HETATM   30  N   UNL     1      19.308  44.047  45.453  1.00  0.00    -0.278 N 
HETATM   31  C   UNL     1      19.689  44.883  47.444  1.00  0.00     0.013 A 
HETATM   32  H   UNL     1      19.369  43.559  44.567  1.00  0.00     0.189 HD
HETATM   33  N   UNL     1      18.206  44.775  45.704  1.00  0.00    -0.186 NA
HETATM   34  C   UNL     1      18.446  45.291  46.913  1.00  0.00     0.152 A 
HETATM   35  C   UNL     1      20.411  45.109  48.629  1.00  0.00     0.039 A 
ENDBRANCH  24  26
ENDBRANCH   3  24
BRANCH   7  36
HETATM   36  O   UNL     1      25.932  49.926  48.829  1.00  0.00    -0.353 OA
HETATM   37  C   UNL     1      27.352  49.804  48.768  1.00  0.00     0.210 C 
ENDBRANCH   7  36
BRANCH   6  38
HETATM   38  O   UNL     1      23.164  49.568  48.488  1.00  0.00    -0.347 OA
BRANCH  38  39
HETATM   39  C   UNL     1      22.321  50.192  49.463  1.00  0.00     0.206 C 
BRANCH  39  40
HETATM   40  C   UNL     1      21.277  51.021  48.696  1.00  0.00     0.299 C 
BRANCH  40  41
HETATM   41  N   UNL     1      20.124  51.466  49.506  1.00  0.00     0.093 N 
HETATM   42  C   UNL     1      19.427  50.362  50.196  1.00  0.00     0.300 C 
HETATM   43  C   UNL     1      18.576  49.453  49.285  1.00  0.00     0.264 C 
HETATM   44  N   UNL     1      17.601  50.292  48.474  1.00  0.00    -0.072 N 
HETATM   45  H   UNL     1      16.975  50.751  49.150  1.00  0.00     0.279 HD
HETATM   46  C   UNL     1      16.749  49.450  47.572  1.00  0.00     0.269 C 
HETATM   47  C   UNL     1      18.312  51.404  47.718  1.00  0.00     0.264 C 
HETATM   48  C   UNL     1      19.166  52.243  48.692  1.00  0.00     0.300 C 
ENDBRANCH  40  41
ENDBRANCH  39  40
ENDBRANCH  38  39
ENDBRANCH   6  38
TORSDOF 11
ENDMDL
MODEL 7
REMARK VINA RESULT:      -9.4      2.223      5.465
REMARK  11 active torsions:
REMARK  status: ('A' for Active; 'I' for Inactive)
REMARK    1  A    between atoms: C_2  and  C_3 
REMARK    2  A    between atoms: C_3  and  C_4 
REMARK       I    between atoms: C_4  and  N_6 
REMARK    3  A    between atoms: N_6  and  C_7 
REMARK    4  A    between atoms: C_11  and  C_13 
REMARK    5  A    between atoms: C_15  and  N_16 
REMARK    6  A    between atoms: N_16  and  C_17 
REMARK    7  A    between atoms: C_29  and  O_30 
REMARK    8  A    between atoms: O_30  and  C_31 
REMARK    9  A    between atoms: C_31  and  C_32 
REMARK   10  A    between atoms: C_32  and  N_33 
REMARK   11  A    between atoms: C_41  and  O_42 
ROOT
HETATM    1  C   UNL     1      25.746  42.747  51.109  1.00  0.00     0.162 A 
HETATM    2  N   UNL     1      25.416  44.016  51.388  1.00  0.00    -0.215 NA
HETATM    3  C   UNL     1      24.404  44.569  50.710  1.00  0.00     0.122 A 
HETATM    4  C   UNL     1      23.690  43.855  49.737  1.00  0.00     0.036 A 
HETATM    5  C   UNL     1      22.628  44.393  48.967  1.00  0.00     0.057 A 
HETATM    6  C   UNL     1      21.975  43.619  48.009  1.00  0.00     0.103 A 
HETATM    7  C   UNL     1      22.337  42.277  47.874  1.00  0.00     0.103 A 
HETATM    8  C   UNL     1      23.398  41.758  48.623  1.00  0.00     0.072 A 
HETATM    9  C   UNL     1      24.084  42.524  49.554  1.00  0.00     0.075 A 
HETATM   10  N   UNL     1      25.094  41.969  50.230  1.00  0.00    -0.228 NA
ENDROOT
BRANCH   1  11
HETATM   11  C   UNL     1      26.958  42.216  51.754  1.00  0.00     0.014 A 
HETATM   12  C   UNL     1      27.523  40.985  51.385  1.00  0.00     0.015 A 
HETATM   13  C   UNL     1      28.672  40.506  52.016  1.00  0.00     0.003 A 
HETATM   14  C   UNL     1      29.291  41.261  53.016  1.00  0.00     0.029 A 
HETATM   15  C   UNL     1      28.773  42.504  53.386  1.00  0.00     0.035 A 
HETATM   16  C   UNL     1      27.608  42.958  52.764  1.00  0.00     0.044 A 
BRANCH  15  17
HETATM   17  N   UNL     1      29.454  43.232  54.386  1.00  0.00    -0.327 N 
HETATM   18  C   UNL     1      29.148  44.505  54.844  1.00  0.00     0.222 C 
HETATM   19  O   UNL     1      28.287  45.254  54.393  1.00  0.00    -0.273 OA
HETATM   20  H   UNL     1      30.292  42.803  54.759  1.00  0.00     0.169 HD
BRANCH  18  21
HETATM   21  C   UNL     1      30.042  44.917  56.003  1.00  0.00     0.103 C 
BRANCH  21  22
HETATM   22  C   UNL     1      31.356  44.136  56.017  1.00  0.00     0.005 C 
HETATM   23  C   UNL     1      31.530  43.350  57.304  1.00  0.00     0.005 C 
ENDBRANCH  21  22
ENDBRANCH  18  21
ENDBRANCH  15  17
ENDBRANCH   1  11
BRANCH   3  24
HETATM   24  N   UNL     1      24.109  45.944  50.927  1.00  0.00    -0.243 NA
HETATM   25  H   UNL     1      23.099  46.046  50.891  1.00  0.00     0.135 HD
BRANCH  24  26
HETATM   26  C   UNL     1      24.744  47.042  50.289  1.00  0.00     0.015 A 
HETATM   27  C   UNL     1      26.141  47.169  50.373  1.00  0.00     0.026 A 
HETATM   28  C   UNL     1      26.839  48.188  49.709  1.00  0.00     0.034 A 
HETATM   29  C   UNL     1      26.086  49.063  48.924  1.00  0.00     0.061 A 
HETATM   30  N   UNL     1      26.440  50.145  48.161  1.00  0.00    -0.278 N 
HETATM   31  C   UNL     1      24.709  48.951  48.782  1.00  0.00     0.013 A 
HETATM   32  H   UNL     1      27.367  50.535  48.034  1.00  0.00     0.189 HD
HETATM   33  N   UNL     1      25.412  50.724  47.517  1.00  0.00    -0.186 NA
HETATM   34  C   UNL     1      24.358  50.002  47.906  1.00  0.00     0.152 A 
HETATM   35  C   UNL     1      24.029  47.924  49.460  1.00  0.00     0.039 A 
ENDBRANCH  24  26
ENDBRANCH   3  24
BRANCH   7  36
HETATM   36  O   UNL     1      21.771  41.417  46.968  1.00  0.00    -0.353 OA
HETATM   37  C   UNL     1      22.075  40.049  47.231  1.00  0.00     0.210 C 
ENDBRANCH   7  36
BRANCH   6  38
HETATM   38  O   UNL     1      20.977  44.104  47.208  1.00  0.00    -0.347 OA
BRANCH  38  39
HETATM   39  C   UNL     1      21.267  45.341  46.547  1.00  0.00     0.206 C 
BRANCH  39  40
HETATM   40  C   UNL     1      20.006  46.216  46.649  1.00  0.00     0.299 C 
BRANCH  40  41
HETATM   41  N   UNL     1      19.554  46.489  48.029  1.00  0.00     0.093 N 
HETATM   42  C   UNL     1      18.126  46.854  48.120  1.00  0.00     0.300 C 
HETATM   43  C   UNL     1      17.776  48.267  47.609  1.00  0.00     0.264 C 
HETATM   44  N   UNL     1      18.649  49.303  48.298  1.00  0.00    -0.072 N 
HETATM   45  H   UNL     1      18.424  49.258  49.301  1.00  0.00     0.279 HD
HETATM   46  C   UNL     1      18.343  50.695  47.832  1.00  0.00     0.269 C 
HETATM   47  C   UNL     1      20.126  48.967  48.169  1.00  0.00     0.264 C 
HETATM   48  C   UNL     1      20.387  47.530  48.668  1.00  0.00     0.300 C 
ENDBRANCH  40  41
ENDBRANCH  39  40
ENDBRANCH  38  39
ENDBRANCH   6  38
TORSDOF 11
ENDMDL
MODEL 8
REMARK VINA RESULT:      -9.3      3.034      8.189
REMARK  11 active torsions:
REMARK  status: ('A' for Active; 'I' for Inactive)
REMARK    1  A    between atoms: C_2  and  C_3 
REMARK    2  A    between atoms: C_3  and  C_4 
REMARK       I    between atoms: C_4  and  N_6 
REMARK    3  A    between atoms: N_6  and  C_7 
REMARK    4  A    between atoms: C_11  and  C_13 
REMARK    5  A    between atoms: C_15  and  N_16 
REMARK    6  A    between atoms: N_16  and  C_17 
REMARK    7  A    between atoms: C_29  and  O_30 
REMARK    8  A    between atoms: O_30  and  C_31 
REMARK    9  A    between atoms: C_31  and  C_32 
REMARK   10  A    between atoms: C_32  and  N_33 
REMARK   11  A    between atoms: C_41  and  O_42 
ROOT
HETATM    1  C   UNL     1      25.750  44.814  52.365  1.00  0.00     0.162 A 
HETATM    2  N   UNL     1      24.670  45.252  51.704  1.00  0.00    -0.215 NA
HETATM    3  C   UNL     1      24.177  44.485  50.724  1.00  0.00     0.122 A 
HETATM    4  C   UNL     1      24.754  43.253  50.389  1.00  0.00     0.036 A 
HETATM    5  C   UNL     1      24.295  42.409  49.345  1.00  0.00     0.057 A 
HETATM    6  C   UNL     1      24.933  41.201  49.068  1.00  0.00     0.103 A 
HETATM    7  C   UNL     1      25.988  40.800  49.889  1.00  0.00     0.103 A 
HETATM    8  C   UNL     1      26.449  41.644  50.905  1.00  0.00     0.072 A 
HETATM    9  C   UNL     1      25.849  42.867  51.171  1.00  0.00     0.075 A 
HETATM   10  N   UNL     1      26.343  43.629  52.150  1.00  0.00    -0.228 NA
ENDROOT
BRANCH   1  11
HETATM   11  C   UNL     1      26.364  45.744  53.328  1.00  0.00     0.014 A 
HETATM   12  C   UNL     1      25.855  47.033  53.551  1.00  0.00     0.015 A 
HETATM   13  C   UNL     1      26.460  47.893  54.469  1.00  0.00     0.003 A 
HETATM   14  C   UNL     1      27.575  47.472  55.196  1.00  0.00     0.029 A 
HETATM   15  C   UNL     1      28.090  46.185  55.021  1.00  0.00     0.035 A 
HETATM   16  C   UNL     1      27.490  45.345  54.080  1.00  0.00     0.044 A 
BRANCH  15  17
HETATM   17  N   UNL     1      29.205  45.808  55.801  1.00  0.00    -0.327 N 
HETATM   18  C   UNL     1      29.295  45.822  57.185  1.00  0.00     0.222 C 
HETATM   19  O   UNL     1      28.453  46.252  57.966  1.00  0.00    -0.273 OA
HETATM   20  H   UNL     1      30.045  45.565  55.291  1.00  0.00     0.169 HD
BRANCH  18  21
HETATM   21  C   UNL     1      30.617  45.246  57.669  1.00  0.00     0.103 C 
BRANCH  21  22
HETATM   22  C   UNL     1      31.283  44.372  56.606  1.00  0.00     0.005 C 
HETATM   23  C   UNL     1      31.664  43.009  57.154  1.00  0.00     0.005 C 
ENDBRANCH  21  22
ENDBRANCH  18  21
ENDBRANCH  15  17
ENDBRANCH   1  11
BRANCH   3  24
HETATM   24  N   UNL     1      23.092  44.985  49.949  1.00  0.00    -0.243 NA
HETATM   25  H   UNL     1      22.784  44.231  49.341  1.00  0.00     0.135 HD
BRANCH  24  26
HETATM   26  C   UNL     1      23.062  46.226  49.260  1.00  0.00     0.015 A 
HETATM   27  C   UNL     1      21.927  46.562  48.504  1.00  0.00     0.026 A 
HETATM   28  C   UNL     1      21.802  47.800  47.857  1.00  0.00     0.034 A 
HETATM   29  C   UNL     1      22.847  48.710  48.024  1.00  0.00     0.061 A 
HETATM   30  N   UNL     1      23.045  49.977  47.541  1.00  0.00    -0.278 N 
HETATM   31  C   UNL     1      23.970  48.434  48.793  1.00  0.00     0.013 A 
HETATM   32  H   UNL     1      22.436  50.507  46.929  1.00  0.00     0.189 HD
HETATM   33  N   UNL     1      24.187  50.553  47.956  1.00  0.00    -0.186 NA
HETATM   34  C   UNL     1      24.753  49.606  48.710  1.00  0.00     0.152 A 
HETATM   35  C   UNL     1      24.076  47.184  49.431  1.00  0.00     0.039 A 
ENDBRANCH  24  26
ENDBRANCH   3  24
BRANCH   7  36
HETATM   36  O   UNL     1      26.695  39.637  49.717  1.00  0.00    -0.353 OA
HETATM   37  C   UNL     1      28.066  39.755  50.092  1.00  0.00     0.210 C 
ENDBRANCH   7  36
BRANCH   6  38
HETATM   38  O   UNL     1      24.559  40.376  48.043  1.00  0.00    -0.347 OA
BRANCH  38  39
HETATM   39  C   UNL     1      24.596  40.963  46.737  1.00  0.00     0.206 C 
BRANCH  39  40
HETATM   40  C   UNL     1      25.343  39.979  45.819  1.00  0.00     0.299 C 
BRANCH  40  41
HETATM   41  N   UNL     1      26.668  39.555  46.317  1.00  0.00     0.093 N 
HETATM   42  C   UNL     1      27.674  40.636  46.310  1.00  0.00     0.300 C 
HETATM   43  C   UNL     1      28.202  41.032  44.915  1.00  0.00     0.264 C 
HETATM   44  N   UNL     1      28.717  39.803  44.183  1.00  0.00    -0.072 N 
HETATM   45  H   UNL     1      29.505  39.439  44.736  1.00  0.00     0.279 HD
HETATM   46  C   UNL     1      29.242  40.139  42.820  1.00  0.00     0.269 C 
HETATM   47  C   UNL     1      27.672  38.698  44.139  1.00  0.00     0.264 C 
HETATM   48  C   UNL     1      27.172  38.386  45.565  1.00  0.00     0.300 C 
ENDBRANCH  40  41
ENDBRANCH  39  40
ENDBRANCH  38  39
ENDBRANCH   6  38
TORSDOF 11
ENDMDL
MODEL 9
REMARK VINA RESULT:      -9.3      2.064      2.812
REMARK  11 active torsions:
REMARK  status: ('A' for Active; 'I' for Inactive)
REMARK    1  A    between atoms: C_2  and  C_3 
REMARK    2  A    between atoms: C_3  and  C_4 
REMARK       I    between atoms: C_4  and  N_6 
REMARK    3  A    between atoms: N_6  and  C_7 
REMARK    4  A    between atoms: C_11  and  C_13 
REMARK    5  A    between atoms: C_15  and  N_16 
REMARK    6  A    between atoms: N_16  and  C_17 
REMARK    7  A    between atoms: C_29  and  O_30 
REMARK    8  A    between atoms: O_30  and  C_31 
REMARK    9  A    between atoms: C_31  and  C_32 
REMARK   10  A    between atoms: C_32  and  N_33 
REMARK   11  A    between atoms: C_41  and  O_42 
ROOT
HETATM    1  C   UNL     1      26.234  44.446  51.501  1.00  0.00     0.162 A 
HETATM    2  N   UNL     1      25.084  43.845  51.166  1.00  0.00    -0.215 NA
HETATM    3  C   UNL     1      24.175  44.556  50.486  1.00  0.00     0.122 A 
HETATM    4  C   UNL     1      24.404  45.890  50.120  1.00  0.00     0.036 A 
HETATM    5  C   UNL     1      23.472  46.702  49.426  1.00  0.00     0.057 A 
HETATM    6  C   UNL     1      23.773  48.025  49.108  1.00  0.00     0.103 A 
HETATM    7  C   UNL     1      25.043  48.514  49.420  1.00  0.00     0.103 A 
HETATM    8  C   UNL     1      25.952  47.715  50.121  1.00  0.00     0.072 A 
HETATM    9  C   UNL     1      25.654  46.408  50.479  1.00  0.00     0.075 A 
HETATM   10  N   UNL     1      26.564  45.701  51.155  1.00  0.00    -0.228 NA
ENDROOT
BRANCH   1  11
HETATM   11  C   UNL     1      27.146  43.696  52.380  1.00  0.00     0.014 A 
HETATM   12  C   UNL     1      27.253  42.297  52.326  1.00  0.00     0.015 A 
HETATM   13  C   UNL     1      28.126  41.612  53.174  1.00  0.00     0.003 A 
HETATM   14  C   UNL     1      28.924  42.317  54.079  1.00  0.00     0.029 A 
HETATM   15  C   UNL     1      28.864  43.712  54.137  1.00  0.00     0.035 A 
HETATM   16  C   UNL     1      27.967  44.380  53.301  1.00  0.00     0.044 A 
BRANCH  15  17
HETATM   17  N   UNL     1      29.711  44.371  55.055  1.00  0.00    -0.327 N 
HETATM   18  C   UNL     1      29.339  45.317  55.999  1.00  0.00     0.222 C 
HETATM   19  O   UNL     1      28.224  45.810  56.136  1.00  0.00    -0.273 OA
HETATM   20  H   UNL     1      30.700  44.179  54.968  1.00  0.00     0.169 HD
BRANCH  18  21
HETATM   21  C   UNL     1      30.510  45.723  56.880  1.00  0.00     0.103 C 
BRANCH  21  22
HETATM   22  C   UNL     1      30.876  44.631  57.884  1.00  0.00     0.005 C 
HETATM   23  C   UNL     1      31.885  43.653  57.310  1.00  0.00     0.005 C 
ENDBRANCH  21  22
ENDBRANCH  18  21
ENDBRANCH  15  17
ENDBRANCH   1  11
BRANCH   3  24
HETATM   24  N   UNL     1      22.912  43.961  50.211  1.00  0.00    -0.243 NA
HETATM   25  H   UNL     1      22.636  43.442  51.041  1.00  0.00     0.135 HD
BRANCH  24  26
HETATM   26  C   UNL     1      22.568  43.243  49.036  1.00  0.00     0.015 A 
HETATM   27  C   UNL     1      21.880  43.905  48.006  1.00  0.00     0.026 A 
HETATM   28  C   UNL     1      21.572  43.276  46.790  1.00  0.00     0.034 A 
HETATM   29  C   UNL     1      22.010  41.961  46.629  1.00  0.00     0.061 A 
HETATM   30  N   UNL     1      21.881  41.073  45.593  1.00  0.00    -0.278 N 
HETATM   31  C   UNL     1      22.727  41.282  47.605  1.00  0.00     0.013 A 
HETATM   32  H   UNL     1      21.403  41.217  44.711  1.00  0.00     0.189 HD
HETATM   33  N   UNL     1      22.477  39.887  45.808  1.00  0.00    -0.186 NA
HETATM   34  C   UNL     1      22.982  40.014  47.038  1.00  0.00     0.152 A 
HETATM   35  C   UNL     1      23.022  41.930  48.818  1.00  0.00     0.039 A 
ENDBRANCH  24  26
ENDBRANCH   3  24
BRANCH   7  36
HETATM   36  O   UNL     1      25.456  49.797  49.160  1.00  0.00    -0.353 OA
HETATM   37  C   UNL     1      26.391  49.876  48.086  1.00  0.00     0.210 C 
ENDBRANCH   7  36
BRANCH   6  38
HETATM   38  O   UNL     1      22.891  48.863  48.482  1.00  0.00    -0.347 OA
BRANCH  38  39
HETATM   39  C   UNL     1      21.875  49.425  49.322  1.00  0.00     0.206 C 
BRANCH  39  40
HETATM   40  C   UNL     1      20.519  48.967  48.760  1.00  0.00     0.299 C 
BRANCH  40  41
HETATM   41  N   UNL     1      19.457  48.798  49.773  1.00  0.00     0.093 N 
HETATM   42  C   UNL     1      18.163  48.366  49.205  1.00  0.00     0.300 C 
HETATM   43  C   UNL     1      17.396  49.452  48.422  1.00  0.00     0.264 C 
HETATM   44  N   UNL     1      17.227  50.695  49.281  1.00  0.00    -0.072 N 
HETATM   45  H   UNL     1      16.657  50.417  50.092  1.00  0.00     0.279 HD
HETATM   46  C   UNL     1      16.484  51.780  48.561  1.00  0.00     0.269 C 
HETATM   47  C   UNL     1      18.559  51.181  49.833  1.00  0.00     0.264 C 
HETATM   48  C   UNL     1      19.277  50.030  50.570  1.00  0.00     0.300 C 
ENDBRANCH  40  41
ENDBRANCH  39  40
ENDBRANCH  38  39
ENDBRANCH   6  38
TORSDOF 11
ENDMDL
MODEL 10
REMARK VINA RESULT:      -8.8      3.636      8.117
REMARK  11 active torsions:
REMARK  status: ('A' for Active; 'I' for Inactive)
REMARK    1  A    between atoms: C_2  and  C_3 
REMARK    2  A    between atoms: C_3  and  C_4 
REMARK       I    between atoms: C_4  and  N_6 
REMARK    3  A    between atoms: N_6  and  C_7 
REMARK    4  A    between atoms: C_11  and  C_13 
REMARK    5  A    between atoms: C_15  and  N_16 
REMARK    6  A    between atoms: N_16  and  C_17 
REMARK    7  A    between atoms: C_29  and  O_30 
REMARK    8  A    between atoms: O_30  and  C_31 
REMARK    9  A    between atoms: C_31  and  C_32 
REMARK   10  A    between atoms: C_32  and  N_33 
REMARK   11  A    between atoms: C_41  and  O_42 
ROOT
HETATM    1  C   UNL     1      26.476  43.983  52.510  1.00  0.00     0.162 A 
HETATM    2  N   UNL     1      25.206  43.899  52.092  1.00  0.00    -0.215 NA
HETATM    3  C   UNL     1      24.894  42.946  51.206  1.00  0.00     0.122 A 
HETATM    4  C   UNL     1      25.854  42.046  50.722  1.00  0.00     0.036 A 
HETATM    5  C   UNL     1      25.592  41.033  49.764  1.00  0.00     0.057 A 
HETATM    6  C   UNL     1      26.606  40.184  49.325  1.00  0.00     0.103 A 
HETATM    7  C   UNL     1      27.871  40.299  49.905  1.00  0.00     0.103 A 
HETATM    8  C   UNL     1      28.128  41.311  50.835  1.00  0.00     0.072 A 
HETATM    9  C   UNL     1      27.140  42.189  51.256  1.00  0.00     0.075 A 
HETATM   10  N   UNL     1      27.454  43.139  52.141  1.00  0.00    -0.228 NA
ENDROOT
BRANCH   1  11
HETATM   11  C   UNL     1      26.824  45.133  53.360  1.00  0.00     0.014 A 
HETATM   12  C   UNL     1      26.047  46.302  53.390  1.00  0.00     0.015 A 
HETATM   13  C   UNL     1      26.403  47.378  54.206  1.00  0.00     0.003 A 
HETATM   14  C   UNL     1      27.534  47.297  55.022  1.00  0.00     0.029 A 
HETATM   15  C   UNL     1      28.312  46.137  55.038  1.00  0.00     0.035 A 
HETATM   16  C   UNL     1      27.959  45.079  54.199  1.00  0.00     0.044 A 
BRANCH  15  17
HETATM   17  N   UNL     1      29.430  46.105  55.901  1.00  0.00    -0.327 N 
HETATM   18  C   UNL     1      29.410  46.041  57.287  1.00  0.00     0.222 C 
HETATM   19  O   UNL     1      28.417  46.094  58.004  1.00  0.00    -0.273 OA
HETATM   20  H   UNL     1      30.336  46.205  55.462  1.00  0.00     0.169 HD
BRANCH  18  21
HETATM   21  C   UNL     1      30.811  45.916  57.864  1.00  0.00     0.103 C 
BRANCH  21  22
HETATM   22  C   UNL     1      31.159  44.469  58.213  1.00  0.00     0.005 C 
HETATM   23  C   UNL     1      31.692  43.712  57.010  1.00  0.00     0.005 C 
ENDBRANCH  21  22
ENDBRANCH  18  21
ENDBRANCH  15  17
ENDBRANCH   1  11
BRANCH   3  24
HETATM   24  N   UNL     1      23.572  42.910  50.681  1.00  0.00    -0.243 NA
HETATM   25  H   UNL     1      23.273  41.938  50.682  1.00  0.00     0.135 HD
BRANCH  24  26
HETATM   26  C   UNL     1      23.124  43.568  49.505  1.00  0.00     0.015 A 
HETATM   27  C   UNL     1      22.658  42.800  48.426  1.00  0.00     0.026 A 
HETATM   28  C   UNL     1      22.136  43.386  47.263  1.00  0.00     0.034 A 
HETATM   29  C   UNL     1      22.067  44.779  47.234  1.00  0.00     0.061 A 
HETATM   30  N   UNL     1      21.624  45.654  46.275  1.00  0.00    -0.278 N 
HETATM   31  C   UNL     1      22.480  45.576  48.293  1.00  0.00     0.013 A 
HETATM   32  H   UNL     1      21.259  45.432  45.357  1.00  0.00     0.189 HD
HETATM   33  N   UNL     1      21.692  46.947  46.638  1.00  0.00    -0.186 NA
HETATM   34  C   UNL     1      22.224  46.897  47.863  1.00  0.00     0.152 A 
HETATM   35  C   UNL     1      23.003  44.968  49.448  1.00  0.00     0.039 A 
ENDBRANCH  24  26
ENDBRANCH   3  24
BRANCH   7  36
HETATM   36  O   UNL     1      28.948  39.524  49.556  1.00  0.00    -0.353 OA
HETATM   37  C   UNL     1      29.024  38.307  50.297  1.00  0.00     0.210 C 
ENDBRANCH   7  36
BRANCH   6  38
HETATM   38  O   UNL     1      26.417  39.224  48.368  1.00  0.00    -0.347 OA
BRANCH  38  39
HETATM   39  C   UNL     1      25.494  39.567  47.328  1.00  0.00     0.206 C 
BRANCH  39  40
HETATM   40  C   UNL     1      26.250  40.459  46.329  1.00  0.00     0.299 C 
BRANCH  40  41
HETATM   41  N   UNL     1      27.437  39.830  45.714  1.00  0.00     0.093 N 
HETATM   42  C   UNL     1      28.249  40.763  44.906  1.00  0.00     0.300 C 
HETATM   43  C   UNL     1      27.628  41.169  43.554  1.00  0.00     0.264 C 
HETATM   44  N   UNL     1      27.263  39.930  42.752  1.00  0.00    -0.072 N 
HETATM   45  H   UNL     1      28.142  39.429  42.567  1.00  0.00     0.279 HD
HETATM   46  C   UNL     1      26.655  40.275  41.426  1.00  0.00     0.269 C 
HETATM   47  C   UNL     1      26.385  38.981  43.555  1.00  0.00     0.264 C 
HETATM   48  C   UNL     1      27.059  38.652  44.904  1.00  0.00     0.300 C 
ENDBRANCH  40  41
ENDBRANCH  39  40
ENDBRANCH  38  39
ENDBRANCH   6  38
TORSDOF 11
ENDMDL
