MODEL 1
REMARK VINA RESULT:     -10.6      0.000      0.000
REMARK  7 active torsions:
REMARK  status: ('A' for Active; 'I' for Inactive)
REMARK    1  A    between atoms: C_2  and  O_3 
REMARK    2  A    between atoms: O_3  and  C_4 
REMARK       I    between atoms: C_4  and  N_5 
REMARK       I    between atoms: N_8  and  C_9 
REMARK    3  A    between atoms: C_9  and  C_10 
REMARK    4  A    between atoms: C_11  and  N_12 
REMARK       I    between atoms: N_12  and  C_13 
REMARK    5  A    between atoms: C_13  and  C_14 
REMARK    6  A    between atoms: N_16  and  C_17 
REMARK    7  A    between atoms: C_18  and  O_19 
ROOT
HETATM    1  C   UNL     1      24.491  48.536  48.999  1.00  0.00     0.059 A 
HETATM    2  C   UNL     1      25.553  47.884  49.646  1.00  0.00     0.050 A 
HETATM    3  C   UNL     1      26.849  48.416  49.517  1.00  0.00     0.030 A 
HETATM    4  C   UNL     1      27.084  49.583  48.785  1.00  0.00     0.002 A 
HETATM    5  C   UNL     1      26.032  50.219  48.138  1.00  0.00     0.001 A 
HETATM    6  C   UNL     1      24.747  49.686  48.225  1.00  0.00     0.019 A 
ENDROOT
BRANCH   2   7
HETATM    7  N   UNL     1      25.474  46.669  50.359  1.00  0.00    -0.326 N 
HETATM    8  C   UNL     1      25.141  46.486  51.685  1.00  0.00     0.228 C 
HETATM    9  O   UNL     1      25.230  47.350  52.553  1.00  0.00    -0.273 OA
HETATM   10  H   UNL     1      25.801  45.852  49.857  1.00  0.00     0.169 HD
BRANCH   8  11
HETATM   11  C   UNL     1      24.649  45.074  52.031  1.00  0.00     0.105 C 
HETATM   12  C   UNL     1      25.308  44.488  53.268  1.00  0.00     0.147 C 
HETATM   13  N   UNL     1      26.510  43.870  52.745  1.00  0.00    -0.315 N 
HETATM   14  C   UNL     1      26.367  43.562  51.384  1.00  0.00     0.225 C 
HETATM   15  O   UNL     1      27.149  42.963  50.663  1.00  0.00    -0.273 OA
HETATM   16  C   UNL     1      25.022  44.083  50.933  1.00  0.00     0.119 C 
BRANCH  13  17
HETATM   17  C   UNL     1      27.711  43.771  53.495  1.00  0.00     0.071 A 
HETATM   18  C   UNL     1      28.361  42.545  53.720  1.00  0.00     0.095 A 
HETATM   19  C   UNL     1      29.449  42.459  54.594  1.00  0.00     0.039 A 
HETATM   20  C   UNL     1      29.925  43.602  55.235  1.00  0.00     0.009 A 
HETATM   21  C   UNL     1      29.332  44.842  54.989  1.00  0.00    -0.060 A 
HETATM   22  C   UNL     1      29.791  46.067  55.724  1.00  0.00     0.048 C 
HETATM   23  C   UNL     1      28.235  44.916  54.116  1.00  0.00     0.039 A 
BRANCH  18  24
HETATM   24  O   UNL     1      27.928  41.407  53.081  1.00  0.00    -0.354 OA
HETATM   25  C   UNL     1      29.030  40.712  52.491  1.00  0.00     0.210 C 
ENDBRANCH  18  24
ENDBRANCH  13  17
ENDBRANCH   8  11
ENDBRANCH   2   7
BRANCH   1  26
HETATM   26  C   UNL     1      23.134  47.953  48.868  1.00  0.00     0.256 C 
HETATM   27  N   UNL     1      22.032  48.755  49.131  1.00  0.00    -0.345 N 
HETATM   28  C   UNL     1      22.046  50.075  49.769  1.00  0.00     0.146 C 
HETATM   29  C   UNL     1      20.686  48.239  48.895  1.00  0.00     0.146 C 
HETATM   30  C   UNL     1      21.291  51.087  48.899  1.00  0.00     0.148 C 
HETATM   31  N   UNL     1      19.963  50.611  48.498  1.00  0.00    -0.325 N 
HETATM   32  C   UNL     1      19.049  51.564  48.074  1.00  0.00     0.362 C 
HETATM   33  C   UNL     1      19.871  49.215  48.037  1.00  0.00     0.148 C 
HETATM   34  O   UNL     1      19.237  52.772  48.163  1.00  0.00    -0.238 OA
HETATM   35  O   UNL     1      23.049  46.801  48.441  1.00  0.00    -0.267 OA
BRANCH  32  36
HETATM   36  O   UNL     1      17.922  51.009  47.550  1.00  0.00    -0.304 OA
BRANCH  36  37
HETATM   37  C   UNL     1      17.473  51.556  46.303  1.00  0.00     0.176 C 
HETATM   38  C   UNL     1      18.215  50.924  45.139  1.00  0.00     0.034 C 
ENDBRANCH  36  37
ENDBRANCH  32  36
ENDBRANCH   1  26
TORSDOF 7
ENDMDL
MODEL 2
REMARK VINA RESULT:     -10.5      1.223      2.252
REMARK  7 active torsions:
REMARK  status: ('A' for Active; 'I' for Inactive)
REMARK    1  A    between atoms: C_2  and  O_3 
REMARK    2  A    between atoms: O_3  and  C_4 
REMARK       I    between atoms: C_4  and  N_5 
REMARK       I    between atoms: N_8  and  C_9 
REMARK    3  A    between atoms: C_9  and  C_10 
REMARK    4  A    between atoms: C_11  and  N_12 
REMARK       I    between atoms: N_12  and  C_13 
REMARK    5  A    between atoms: C_13  and  C_14 
REMARK    6  A    between atoms: N_16  and  C_17 
REMARK    7  A    between atoms: C_18  and  O_19 
ROOT
HETATM    1  C   UNL     1      24.577  48.699  48.975  1.00  0.00     0.059 A 
HETATM    2  C   UNL     1      25.731  48.161  49.568  1.00  0.00     0.050 A 
HETATM    3  C   UNL     1      26.972  48.764  49.293  1.00  0.00     0.030 A 
HETATM    4  C   UNL     1      27.065  49.889  48.470  1.00  0.00     0.002 A 
HETATM    5  C   UNL     1      25.923  50.411  47.878  1.00  0.00     0.001 A 
HETATM    6  C   UNL     1      24.688  49.807  48.111  1.00  0.00     0.019 A 
ENDROOT
BRANCH   2   7
HETATM    7  N   UNL     1      25.794  46.997  50.361  1.00  0.00    -0.326 N 
HETATM    8  C   UNL     1      25.274  46.803  51.624  1.00  0.00     0.228 C 
HETATM    9  O   UNL     1      25.010  47.704  52.416  1.00  0.00    -0.273 OA
HETATM   10  H   UNL     1      26.380  46.256  49.994  1.00  0.00     0.169 HD
BRANCH   8  11
HETATM   11  C   UNL     1      25.053  45.333  52.005  1.00  0.00     0.105 C 
HETATM   12  C   UNL     1      25.510  44.996  53.414  1.00  0.00     0.147 C 
HETATM   13  N   UNL     1      26.911  44.672  53.241  1.00  0.00    -0.315 N 
HETATM   14  C   UNL     1      27.177  44.267  51.924  1.00  0.00     0.225 C 
HETATM   15  O   UNL     1      28.226  43.845  51.465  1.00  0.00    -0.273 OA
HETATM   16  C   UNL     1      25.898  44.411  51.132  1.00  0.00     0.119 C 
BRANCH  13  17
HETATM   17  C   UNL     1      27.885  44.916  54.245  1.00  0.00     0.071 A 
HETATM   18  C   UNL     1      28.061  46.180  54.833  1.00  0.00     0.095 A 
HETATM   19  C   UNL     1      29.132  46.426  55.699  1.00  0.00     0.039 A 
HETATM   20  C   UNL     1      30.026  45.405  56.014  1.00  0.00     0.009 A 
HETATM   21  C   UNL     1      29.846  44.125  55.486  1.00  0.00    -0.060 A 
HETATM   22  C   UNL     1      30.840  43.036  55.764  1.00  0.00     0.048 C 
HETATM   23  C   UNL     1      28.772  43.890  54.611  1.00  0.00     0.039 A 
BRANCH  18  24
HETATM   24  O   UNL     1      27.179  47.198  54.560  1.00  0.00    -0.354 OA
HETATM   25  C   UNL     1      26.890  47.945  55.745  1.00  0.00     0.210 C 
ENDBRANCH  18  24
ENDBRANCH  13  17
ENDBRANCH   8  11
ENDBRANCH   2   7
BRANCH   1  26
HETATM   26  C   UNL     1      23.257  48.025  49.000  1.00  0.00     0.256 C 
HETATM   27  N   UNL     1      22.120  48.784  49.247  1.00  0.00    -0.345 N 
HETATM   28  C   UNL     1      22.084  50.167  49.732  1.00  0.00     0.146 C 
HETATM   29  C   UNL     1      20.801  48.165  49.159  1.00  0.00     0.146 C 
HETATM   30  C   UNL     1      21.212  51.025  48.808  1.00  0.00     0.148 C 
HETATM   31  N   UNL     1      19.897  50.428  48.552  1.00  0.00    -0.325 N 
HETATM   32  C   UNL     1      18.898  51.270  48.087  1.00  0.00     0.362 C 
HETATM   33  C   UNL     1      19.872  48.986  48.255  1.00  0.00     0.148 C 
HETATM   34  O   UNL     1      19.009  52.489  48.029  1.00  0.00    -0.238 OA
HETATM   35  O   UNL     1      23.224  46.829  48.710  1.00  0.00    -0.267 OA
BRANCH  32  36
HETATM   36  O   UNL     1      17.782  50.592  47.704  1.00  0.00    -0.304 OA
BRANCH  36  37
HETATM   37  C   UNL     1      16.741  50.490  48.685  1.00  0.00     0.176 C 
HETATM   38  C   UNL     1      15.628  51.481  48.395  1.00  0.00     0.034 C 
ENDBRANCH  36  37
ENDBRANCH  32  36
ENDBRANCH   1  26
TORSDOF 7
ENDMDL
MODEL 3
REMARK VINA RESULT:      -9.6      2.132      2.652
REMARK  7 active torsions:
REMARK  status: ('A' for Active; 'I' for Inactive)
REMARK    1  A    between atoms: C_2  and  O_3 
REMARK    2  A    between atoms: O_3  and  C_4 
REMARK       I    between atoms: C_4  and  N_5 
REMARK       I    between atoms: N_8  and  C_9 
REMARK    3  A    between atoms: C_9  and  C_10 
REMARK    4  A    between atoms: C_11  and  N_12 
REMARK       I    between atoms: N_12  and  C_13 
REMARK    5  A    between atoms: C_13  and  C_14 
REMARK    6  A    between atoms: N_16  and  C_17 
REMARK    7  A    between atoms: C_18  and  O_19 
ROOT
HETATM    1  C   UNL     1      22.031  48.606  48.373  1.00  0.00     0.059 A 
HETATM    2  C   UNL     1      23.342  48.292  48.765  1.00  0.00     0.050 A 
HETATM    3  C   UNL     1      24.310  49.313  48.752  1.00  0.00     0.030 A 
HETATM    4  C   UNL     1      23.981  50.620  48.386  1.00  0.00     0.002 A 
HETATM    5  C   UNL     1      22.685  50.924  47.990  1.00  0.00     0.001 A 
HETATM    6  C   UNL     1      21.720  49.918  47.962  1.00  0.00     0.019 A 
ENDROOT
BRANCH   2   7
HETATM    7  N   UNL     1      23.829  47.010  49.094  1.00  0.00    -0.326 N 
HETATM    8  C   UNL     1      24.241  46.551  50.327  1.00  0.00     0.228 C 
HETATM    9  O   UNL     1      24.611  47.270  51.251  1.00  0.00    -0.273 OA
HETATM   10  H   UNL     1      23.988  46.393  48.305  1.00  0.00     0.169 HD
BRANCH   8  11
HETATM   11  C   UNL     1      24.225  45.024  50.479  1.00  0.00     0.105 C 
HETATM   12  C   UNL     1      24.675  44.545  51.848  1.00  0.00     0.147 C 
HETATM   13  N   UNL     1      26.115  44.451  51.711  1.00  0.00    -0.315 N 
HETATM   14  C   UNL     1      26.484  44.291  50.366  1.00  0.00     0.225 C 
HETATM   15  O   UNL     1      27.599  44.095  49.912  1.00  0.00    -0.273 OA
HETATM   16  C   UNL     1      25.227  44.372  49.532  1.00  0.00     0.119 C 
BRANCH  13  17
HETATM   17  C   UNL     1      27.006  44.675  52.793  1.00  0.00     0.071 A 
HETATM   18  C   UNL     1      27.811  43.655  53.330  1.00  0.00     0.095 A 
HETATM   19  C   UNL     1      28.556  43.867  54.495  1.00  0.00     0.039 A 
HETATM   20  C   UNL     1      28.531  45.110  55.125  1.00  0.00     0.009 A 
HETATM   21  C   UNL     1      27.782  46.156  54.585  1.00  0.00    -0.060 A 
HETATM   22  C   UNL     1      27.694  47.478  55.291  1.00  0.00     0.048 C 
HETATM   23  C   UNL     1      27.031  45.931  53.419  1.00  0.00     0.039 A 
BRANCH  18  24
HETATM   24  O   UNL     1      27.874  42.428  52.714  1.00  0.00    -0.354 OA
HETATM   25  C   UNL     1      29.201  41.900  52.778  1.00  0.00     0.210 C 
ENDBRANCH  18  24
ENDBRANCH  13  17
ENDBRANCH   8  11
ENDBRANCH   2   7
BRANCH   1  26
HETATM   26  C   UNL     1      20.987  47.583  48.124  1.00  0.00     0.256 C 
HETATM   27  N   UNL     1      19.690  47.829  48.555  1.00  0.00    -0.345 N 
HETATM   28  C   UNL     1      19.260  48.900  49.459  1.00  0.00     0.146 C 
HETATM   29  C   UNL     1      18.623  46.891  48.216  1.00  0.00     0.146 C 
HETATM   30  C   UNL     1      18.109  49.691  48.826  1.00  0.00     0.148 C 
HETATM   31  N   UNL     1      17.029  48.829  48.337  1.00  0.00    -0.325 N 
HETATM   32  C   UNL     1      15.792  49.419  48.127  1.00  0.00     0.362 C 
HETATM   33  C   UNL     1      17.431  47.626  47.589  1.00  0.00     0.148 C 
HETATM   34  O   UNL     1      15.518  50.563  48.471  1.00  0.00    -0.238 OA
HETATM   35  O   UNL     1      21.306  46.596  47.461  1.00  0.00    -0.267 OA
BRANCH  32  36
HETATM   36  O   UNL     1      14.917  48.587  47.500  1.00  0.00    -0.304 OA
BRANCH  36  37
HETATM   37  C   UNL     1      14.409  49.043  46.239  1.00  0.00     0.176 C 
HETATM   38  C   UNL     1      13.533  47.982  45.596  1.00  0.00     0.034 C 
ENDBRANCH  36  37
ENDBRANCH  32  36
ENDBRANCH   1  26
TORSDOF 7
ENDMDL
MODEL 4
REMARK VINA RESULT:      -9.3      4.039      5.111
REMARK  7 active torsions:
REMARK  status: ('A' for Active; 'I' for Inactive)
REMARK    1  A    between atoms: C_2  and  O_3 
REMARK    2  A    between atoms: O_3  and  C_4 
REMARK       I    between atoms: C_4  and  N_5 
REMARK       I    between atoms: N_8  and  C_9 
REMARK    3  A    between atoms: C_9  and  C_10 
REMARK    4  A    between atoms: C_11  and  N_12 
REMARK       I    between atoms: N_12  and  C_13 
REMARK    5  A    between atoms: C_13  and  C_14 
REMARK    6  A    between atoms: N_16  and  C_17 
REMARK    7  A    between atoms: C_18  and  O_19 
ROOT
HETATM    1  C   UNL     1      24.352  42.216  49.573  1.00  0.00     0.059 A 
HETATM    2  C   UNL     1      25.455  42.304  50.437  1.00  0.00     0.050 A 
HETATM    3  C   UNL     1      26.494  41.365  50.300  1.00  0.00     0.030 A 
HETATM    4  C   UNL     1      26.454  40.378  49.312  1.00  0.00     0.002 A 
HETATM    5  C   UNL     1      25.356  40.288  48.466  1.00  0.00     0.001 A 
HETATM    6  C   UNL     1      24.301  41.188  48.610  1.00  0.00     0.019 A 
ENDROOT
BRANCH   2   7
HETATM    7  N   UNL     1      25.599  43.201  51.516  1.00  0.00    -0.326 N 
HETATM    8  C   UNL     1      26.130  44.474  51.494  1.00  0.00     0.228 C 
HETATM    9  O   UNL     1      26.903  44.893  50.636  1.00  0.00    -0.273 OA
HETATM   10  H   UNL     1      25.378  42.818  52.428  1.00  0.00     0.169 HD
BRANCH   8  11
HETATM   11  C   UNL     1      25.693  45.369  52.662  1.00  0.00     0.105 C 
HETATM   12  C   UNL     1      26.855  45.972  53.431  1.00  0.00     0.147 C 
HETATM   13  N   UNL     1      27.169  44.954  54.414  1.00  0.00    -0.315 N 
HETATM   14  C   UNL     1      26.059  44.131  54.659  1.00  0.00     0.225 C 
HETATM   15  O   UNL     1      25.953  43.239  55.485  1.00  0.00    -0.273 OA
HETATM   16  C   UNL     1      24.954  44.559  53.722  1.00  0.00     0.119 C 
BRANCH  13  17
HETATM   17  C   UNL     1      28.484  44.740  54.905  1.00  0.00     0.071 A 
HETATM   18  C   UNL     1      29.339  43.764  54.366  1.00  0.00     0.095 A 
HETATM   19  C   UNL     1      30.564  43.468  54.975  1.00  0.00     0.039 A 
HETATM   20  C   UNL     1      30.966  44.164  56.113  1.00  0.00     0.009 A 
HETATM   21  C   UNL     1      30.160  45.175  56.639  1.00  0.00    -0.060 A 
HETATM   22  C   UNL     1      30.550  45.885  57.903  1.00  0.00     0.048 C 
HETATM   23  C   UNL     1      28.929  45.459  56.026  1.00  0.00     0.039 A 
BRANCH  18  24
HETATM   24  O   UNL     1      28.979  43.080  53.230  1.00  0.00    -0.354 OA
HETATM   25  C   UNL     1      28.656  41.721  53.541  1.00  0.00     0.210 C 
ENDBRANCH  18  24
ENDBRANCH  13  17
ENDBRANCH   8  11
ENDBRANCH   2   7
BRANCH   1  26
HETATM   26  C   UNL     1      23.103  42.991  49.764  1.00  0.00     0.256 C 
HETATM   27  N   UNL     1      22.822  44.035  48.892  1.00  0.00    -0.345 N 
HETATM   28  C   UNL     1      23.745  44.636  47.925  1.00  0.00     0.146 C 
HETATM   29  C   UNL     1      21.543  44.735  48.987  1.00  0.00     0.146 C 
HETATM   30  C   UNL     1      23.105  44.656  46.531  1.00  0.00     0.148 C 
HETATM   31  N   UNL     1      21.757  45.232  46.534  1.00  0.00    -0.325 N 
HETATM   32  C   UNL     1      21.253  45.673  45.320  1.00  0.00     0.362 C 
HETATM   33  C   UNL     1      20.856  44.801  47.617  1.00  0.00     0.148 C 
HETATM   34  O   UNL     1      21.921  45.749  44.295  1.00  0.00    -0.238 OA
HETATM   35  O   UNL     1      22.325  42.609  50.638  1.00  0.00    -0.267 OA
BRANCH  32  36
HETATM   36  O   UNL     1      19.937  46.012  45.394  1.00  0.00    -0.304 OA
BRANCH  36  37
HETATM   37  C   UNL     1      19.094  45.494  44.356  1.00  0.00     0.176 C 
HETATM   38  C   UNL     1      18.805  44.021  44.581  1.00  0.00     0.034 C 
ENDBRANCH  36  37
ENDBRANCH  32  36
ENDBRANCH   1  26
TORSDOF 7
ENDMDL
MODEL 5
REMARK VINA RESULT:      -9.1      3.207      4.692
REMARK  7 active torsions:
REMARK  status: ('A' for Active; 'I' for Inactive)
REMARK    1  A    between atoms: C_2  and  O_3 
REMARK    2  A    between atoms: O_3  and  C_4 
REMARK       I    between atoms: C_4  and  N_5 
REMARK       I    between atoms: N_8  and  C_9 
REMARK    3  A    between atoms: C_9  and  C_10 
REMARK    4  A    between atoms: C_11  and  N_12 
REMARK       I    between atoms: N_12  and  C_13 
REMARK    5  A    between atoms: C_13  and  C_14 
REMARK    6  A    between atoms: N_16  and  C_17 
REMARK    7  A    between atoms: C_18  and  O_19 
ROOT
HETATM    1  C   UNL     1      21.238  48.984  48.900  1.00  0.00     0.059 A 
HETATM    2  C   UNL     1      22.611  48.698  48.826  1.00  0.00     0.050 A 
HETATM    3  C   UNL     1      23.500  49.744  48.516  1.00  0.00     0.030 A 
HETATM    4  C   UNL     1      23.043  51.048  48.312  1.00  0.00     0.002 A 
HETATM    5  C   UNL     1      21.683  51.324  48.376  1.00  0.00     0.001 A 
HETATM    6  C   UNL     1      20.783  50.294  48.647  1.00  0.00     0.019 A 
ENDROOT
BRANCH   2   7
HETATM    7  N   UNL     1      23.204  47.424  48.943  1.00  0.00    -0.326 N 
HETATM    8  C   UNL     1      24.012  46.956  49.958  1.00  0.00     0.228 C 
HETATM    9  O   UNL     1      24.657  47.671  50.722  1.00  0.00    -0.273 OA
HETATM   10  H   UNL     1      23.102  46.824  48.133  1.00  0.00     0.169 HD
BRANCH   8  11
HETATM   11  C   UNL     1      24.077  45.427  50.071  1.00  0.00     0.105 C 
HETATM   12  C   UNL     1      24.405  44.935  51.470  1.00  0.00     0.147 C 
HETATM   13  N   UNL     1      25.854  44.933  51.491  1.00  0.00    -0.315 N 
HETATM   14  C   UNL     1      26.377  44.837  50.193  1.00  0.00     0.225 C 
HETATM   15  O   UNL     1      27.546  44.722  49.861  1.00  0.00    -0.273 OA
HETATM   16  C   UNL     1      25.216  44.866  49.226  1.00  0.00     0.119 C 
BRANCH  13  17
HETATM   17  C   UNL     1      26.605  45.177  52.671  1.00  0.00     0.071 A 
HETATM   18  C   UNL     1      27.314  44.162  53.337  1.00  0.00     0.095 A 
HETATM   19  C   UNL     1      27.909  44.400  54.581  1.00  0.00     0.039 A 
HETATM   20  C   UNL     1      27.831  45.663  55.164  1.00  0.00     0.009 A 
HETATM   21  C   UNL     1      27.178  46.703  54.501  1.00  0.00    -0.060 A 
HETATM   22  C   UNL     1      27.029  48.049  55.149  1.00  0.00     0.048 C 
HETATM   23  C   UNL     1      26.577  46.453  53.257  1.00  0.00     0.039 A 
BRANCH  18  24
HETATM   24  O   UNL     1      27.428  42.915  52.772  1.00  0.00    -0.354 OA
HETATM   25  C   UNL     1      28.411  42.138  53.463  1.00  0.00     0.210 C 
ENDBRANCH  18  24
ENDBRANCH  13  17
ENDBRANCH   8  11
ENDBRANCH   2   7
BRANCH   1  26
HETATM   26  C   UNL     1      20.191  47.938  48.988  1.00  0.00     0.256 C 
HETATM   27  N   UNL     1      20.038  47.051  47.930  1.00  0.00    -0.345 N 
HETATM   28  C   UNL     1      20.642  47.169  46.599  1.00  0.00     0.146 C 
HETATM   29  C   UNL     1      19.096  45.941  48.044  1.00  0.00     0.146 C 
HETATM   30  C   UNL     1      21.381  45.875  46.240  1.00  0.00     0.148 C 
HETATM   31  N   UNL     1      20.558  44.678  46.439  1.00  0.00    -0.325 N 
HETATM   32  C   UNL     1      20.952  43.521  45.782  1.00  0.00     0.362 C 
HETATM   33  C   UNL     1      19.774  44.612  47.683  1.00  0.00     0.148 C 
HETATM   34  O   UNL     1      21.841  43.488  44.940  1.00  0.00    -0.238 OA
HETATM   35  O   UNL     1      19.562  47.850  50.042  1.00  0.00    -0.267 OA
BRANCH  32  36
HETATM   36  O   UNL     1      20.240  42.431  46.176  1.00  0.00    -0.304 OA
BRANCH  36  37
HETATM   37  C   UNL     1      20.486  41.221  45.446  1.00  0.00     0.176 C 
HETATM   38  C   UNL     1      19.429  41.013  44.376  1.00  0.00     0.034 C 
ENDBRANCH  36  37
ENDBRANCH  32  36
ENDBRANCH   1  26
TORSDOF 7
ENDMDL
MODEL 6
REMARK VINA RESULT:      -9.1     12.325     16.367
REMARK  7 active torsions:
REMARK  status: ('A' for Active; 'I' for Inactive)
REMARK    1  A    between atoms: C_2  and  O_3 
REMARK    2  A    between atoms: O_3  and  C_4 
REMARK       I    between atoms: C_4  and  N_5 
REMARK       I    between atoms: N_8  and  C_9 
REMARK    3  A    between atoms: C_9  and  C_10 
REMARK    4  A    between atoms: C_11  and  N_12 
REMARK       I    between atoms: N_12  and  C_13 
REMARK    5  A    between atoms: C_13  and  C_14 
REMARK    6  A    between atoms: N_16  and  C_17 
REMARK    7  A    between atoms: C_18  and  O_19 
ROOT
HETATM    1  C   UNL     1      34.355  51.084  42.291  1.00  0.00     0.059 A 
HETATM    2  C   UNL     1      33.067  50.549  42.119  1.00  0.00     0.050 A 
HETATM    3  C   UNL     1      32.109  50.768  43.125  1.00  0.00     0.030 A 
HETATM    4  C   UNL     1      32.410  51.522  44.263  1.00  0.00     0.002 A 
HETATM    5  C   UNL     1      33.688  52.039  44.433  1.00  0.00     0.001 A 
HETATM    6  C   UNL     1      34.661  51.803  43.464  1.00  0.00     0.019 A 
ENDROOT
BRANCH   2   7
HETATM    7  N   UNL     1      32.644  49.719  41.061  1.00  0.00    -0.326 N 
HETATM    8  C   UNL     1      32.326  48.378  41.111  1.00  0.00     0.228 C 
HETATM    9  O   UNL     1      32.715  47.601  41.978  1.00  0.00    -0.273 OA
HETATM   10  H   UNL     1      32.680  50.142  40.140  1.00  0.00     0.169 HD
BRANCH   8  11
HETATM   11  C   UNL     1      31.433  47.890  39.961  1.00  0.00     0.105 C 
HETATM   12  C   UNL     1      31.047  48.986  38.985  1.00  0.00     0.147 C 
HETATM   13  N   UNL     1      29.855  49.557  39.580  1.00  0.00    -0.315 N 
HETATM   14  C   UNL     1      29.225  48.637  40.431  1.00  0.00     0.225 C 
HETATM   15  O   UNL     1      28.163  48.761  41.018  1.00  0.00    -0.273 OA
HETATM   16  C   UNL     1      30.089  47.398  40.487  1.00  0.00     0.119 C 
BRANCH  13  17
HETATM   17  C   UNL     1      29.505  50.926  39.436  1.00  0.00     0.071 A 
HETATM   18  C   UNL     1      28.601  51.374  38.458  1.00  0.00     0.095 A 
HETATM   19  C   UNL     1      28.401  52.741  38.238  1.00  0.00     0.039 A 
HETATM   20  C   UNL     1      29.079  53.682  39.011  1.00  0.00     0.009 A 
HETATM   21  C   UNL     1      29.944  53.264  40.025  1.00  0.00    -0.060 A 
HETATM   22  C   UNL     1      30.730  54.266  40.820  1.00  0.00     0.048 C 
HETATM   23  C   UNL     1      30.144  51.890  40.234  1.00  0.00     0.039 A 
BRANCH  18  24
HETATM   24  O   UNL     1      27.900  50.468  37.699  1.00  0.00    -0.354 OA
HETATM   25  C   UNL     1      26.582  50.285  38.223  1.00  0.00     0.210 C 
ENDBRANCH  18  24
ENDBRANCH  13  17
ENDBRANCH   8  11
ENDBRANCH   2   7
BRANCH   1  26
HETATM   26  C   UNL     1      35.505  50.732  41.424  1.00  0.00     0.256 C 
HETATM   27  N   UNL     1      35.695  51.436  40.243  1.00  0.00    -0.345 N 
HETATM   28  C   UNL     1      34.739  52.350  39.610  1.00  0.00     0.146 C 
HETATM   29  C   UNL     1      36.885  51.189  39.434  1.00  0.00     0.146 C 
HETATM   30  C   UNL     1      35.412  53.698  39.323  1.00  0.00     0.148 C 
HETATM   31  N   UNL     1      36.688  53.556  38.616  1.00  0.00    -0.325 N 
HETATM   32  C   UNL     1      37.175  54.674  37.955  1.00  0.00     0.362 C 
HETATM   33  C   UNL     1      37.600  52.506  39.100  1.00  0.00     0.148 C 
HETATM   34  O   UNL     1      36.533  55.707  37.804  1.00  0.00    -0.238 OA
HETATM   35  O   UNL     1      36.295  49.886  41.844  1.00  0.00    -0.267 OA
BRANCH  32  36
HETATM   36  O   UNL     1      38.443  54.496  37.495  1.00  0.00    -0.304 OA
BRANCH  36  37
HETATM   37  C   UNL     1      39.438  55.377  38.034  1.00  0.00     0.176 C 
HETATM   38  C   UNL     1      40.519  55.662  37.006  1.00  0.00     0.034 C 
ENDBRANCH  36  37
ENDBRANCH  32  36
ENDBRANCH   1  26
TORSDOF 7
ENDMDL
MODEL 7
REMARK VINA RESULT:      -8.8      3.046      4.815
REMARK  7 active torsions:
REMARK  status: ('A' for Active; 'I' for Inactive)
REMARK    1  A    between atoms: C_2  and  O_3 
REMARK    2  A    between atoms: O_3  and  C_4 
REMARK       I    between atoms: C_4  and  N_5 
REMARK       I    between atoms: N_8  and  C_9 
REMARK    3  A    between atoms: C_9  and  C_10 
REMARK    4  A    between atoms: C_11  and  N_12 
REMARK       I    between atoms: N_12  and  C_13 
REMARK    5  A    between atoms: C_13  and  C_14 
REMARK    6  A    between atoms: N_16  and  C_17 
REMARK    7  A    between atoms: C_18  and  O_19 
ROOT
HETATM    1  C   UNL     1      20.653  49.633  48.279  1.00  0.00     0.059 A 
HETATM    2  C   UNL     1      21.416  48.528  48.691  1.00  0.00     0.050 A 
HETATM    3  C   UNL     1      22.774  48.726  49.002  1.00  0.00     0.030 A 
HETATM    4  C   UNL     1      23.356  49.994  48.932  1.00  0.00     0.002 A 
HETATM    5  C   UNL     1      22.601  51.082  48.514  1.00  0.00     0.001 A 
HETATM    6  C   UNL     1      21.263  50.899  48.168  1.00  0.00     0.019 A 
ENDROOT
BRANCH   2   7
HETATM    7  N   UNL     1      20.980  47.188  48.745  1.00  0.00    -0.326 N 
HETATM    8  C   UNL     1      21.069  46.228  47.758  1.00  0.00     0.228 C 
HETATM    9  O   UNL     1      21.187  46.469  46.559  1.00  0.00    -0.273 OA
HETATM   10  H   UNL     1      20.449  46.939  49.571  1.00  0.00     0.169 HD
BRANCH   8  11
HETATM   11  C   UNL     1      20.990  44.782  48.264  1.00  0.00     0.105 C 
HETATM   12  C   UNL     1      21.790  44.538  49.532  1.00  0.00     0.147 C 
HETATM   13  N   UNL     1      23.115  44.224  49.035  1.00  0.00    -0.315 N 
HETATM   14  C   UNL     1      23.059  43.743  47.718  1.00  0.00     0.225 C 
HETATM   15  O   UNL     1      23.973  43.308  47.037  1.00  0.00    -0.273 OA
HETATM   16  C   UNL     1      21.620  43.819  47.262  1.00  0.00     0.119 C 
BRANCH  13  17
HETATM   17  C   UNL     1      24.299  44.542  49.750  1.00  0.00     0.071 A 
HETATM   18  C   UNL     1      24.928  43.628  50.613  1.00  0.00     0.095 A 
HETATM   19  C   UNL     1      25.997  44.025  51.423  1.00  0.00     0.039 A 
HETATM   20  C   UNL     1      26.474  45.333  51.363  1.00  0.00     0.009 A 
HETATM   21  C   UNL     1      25.902  46.248  50.477  1.00  0.00    -0.060 A 
HETATM   22  C   UNL     1      26.362  47.676  50.451  1.00  0.00     0.048 C 
HETATM   23  C   UNL     1      24.825  45.843  49.673  1.00  0.00     0.039 A 
BRANCH  18  24
HETATM   24  O   UNL     1      24.494  42.325  50.673  1.00  0.00    -0.354 OA
HETATM   25  C   UNL     1      25.511  41.434  50.205  1.00  0.00     0.210 C 
ENDBRANCH  18  24
ENDBRANCH  13  17
ENDBRANCH   8  11
ENDBRANCH   2   7
BRANCH   1  26
HETATM   26  C   UNL     1      19.290  49.515  47.709  1.00  0.00     0.256 C 
HETATM   27  N   UNL     1      18.218  50.039  48.419  1.00  0.00    -0.345 N 
HETATM   28  C   UNL     1      18.236  50.497  49.812  1.00  0.00     0.146 C 
HETATM   29  C   UNL     1      16.885  50.041  47.824  1.00  0.00     0.146 C 
HETATM   30  C   UNL     1      17.672  51.920  49.904  1.00  0.00     0.148 C 
HETATM   31  N   UNL     1      16.380  52.064  49.225  1.00  0.00    -0.325 N 
HETATM   32  C   UNL     1      15.597  53.153  49.577  1.00  0.00     0.362 C 
HETATM   33  C   UNL     1      16.257  51.439  47.897  1.00  0.00     0.148 C 
HETATM   34  O   UNL     1      15.851  53.898  50.516  1.00  0.00    -0.238 OA
HETATM   35  O   UNL     1      19.186  49.034  46.580  1.00  0.00    -0.267 OA
BRANCH  32  36
HETATM   36  O   UNL     1      14.515  53.300  48.764  1.00  0.00    -0.304 OA
BRANCH  36  37
HETATM   37  C   UNL     1      14.141  54.649  48.452  1.00  0.00     0.176 C 
HETATM   38  C   UNL     1      13.798  54.786  46.980  1.00  0.00     0.034 C 
ENDBRANCH  36  37
ENDBRANCH  32  36
ENDBRANCH   1  26
TORSDOF 7
ENDMDL
MODEL 8
REMARK VINA RESULT:      -8.7      2.075      2.717
REMARK  7 active torsions:
REMARK  status: ('A' for Active; 'I' for Inactive)
REMARK    1  A    between atoms: C_2  and  O_3 
REMARK    2  A    between atoms: O_3  and  C_4 
REMARK       I    between atoms: C_4  and  N_5 
REMARK       I    between atoms: N_8  and  C_9 
REMARK    3  A    between atoms: C_9  and  C_10 
REMARK    4  A    between atoms: C_11  and  N_12 
REMARK       I    between atoms: N_12  and  C_13 
REMARK    5  A    between atoms: C_13  and  C_14 
REMARK    6  A    between atoms: N_16  and  C_17 
REMARK    7  A    between atoms: C_18  and  O_19 
ROOT
HETATM    1  C   UNL     1      22.751  47.754  48.431  1.00  0.00     0.059 A 
HETATM    2  C   UNL     1      23.516  46.830  49.161  1.00  0.00     0.050 A 
HETATM    3  C   UNL     1      24.767  47.238  49.659  1.00  0.00     0.030 A 
HETATM    4  C   UNL     1      25.237  48.539  49.461  1.00  0.00     0.002 A 
HETATM    5  C   UNL     1      24.482  49.445  48.729  1.00  0.00     0.001 A 
HETATM    6  C   UNL     1      23.255  49.049  48.198  1.00  0.00     0.019 A 
ENDROOT
BRANCH   2   7
HETATM    7  N   UNL     1      23.198  45.474  49.381  1.00  0.00    -0.326 N 
HETATM    8  C   UNL     1      23.481  44.395  48.569  1.00  0.00     0.228 C 
HETATM    9  O   UNL     1      23.709  44.470  47.365  1.00  0.00    -0.273 OA
HETATM   10  H   UNL     1      22.603  45.295  50.181  1.00  0.00     0.169 HD
BRANCH   8  11
HETATM   11  C   UNL     1      23.477  43.038  49.285  1.00  0.00     0.105 C 
HETATM   12  C   UNL     1      23.840  43.127  50.757  1.00  0.00     0.147 C 
HETATM   13  N   UNL     1      25.286  43.045  50.749  1.00  0.00    -0.315 N 
HETATM   14  C   UNL     1      25.749  42.406  49.589  1.00  0.00     0.225 C 
HETATM   15  O   UNL     1      26.896  42.097  49.307  1.00  0.00    -0.273 OA
HETATM   16  C   UNL     1      24.551  42.118  48.714  1.00  0.00     0.119 C 
BRANCH  13  17
HETATM   17  C   UNL     1      26.098  43.694  51.717  1.00  0.00     0.071 A 
HETATM   18  C   UNL     1      27.003  42.994  52.533  1.00  0.00     0.095 A 
HETATM   19  C   UNL     1      27.668  43.637  53.583  1.00  0.00     0.039 A 
HETATM   20  C   UNL     1      27.462  44.995  53.815  1.00  0.00     0.009 A 
HETATM   21  C   UNL     1      26.608  45.727  52.986  1.00  0.00    -0.060 A 
HETATM   22  C   UNL     1      26.326  47.174  53.267  1.00  0.00     0.048 C 
HETATM   23  C   UNL     1      25.940  45.071  51.940  1.00  0.00     0.039 A 
BRANCH  18  24
HETATM   24  O   UNL     1      27.245  41.659  52.310  1.00  0.00    -0.354 OA
HETATM   25  C   UNL     1      28.373  41.219  53.071  1.00  0.00     0.210 C 
ENDBRANCH  18  24
ENDBRANCH  13  17
ENDBRANCH   8  11
ENDBRANCH   2   7
BRANCH   1  26
HETATM   26  C   UNL     1      21.536  47.382  47.666  1.00  0.00     0.256 C 
HETATM   27  N   UNL     1      20.298  47.815  48.122  1.00  0.00    -0.345 N 
HETATM   28  C   UNL     1      20.010  48.410  49.431  1.00  0.00     0.146 C 
HETATM   29  C   UNL     1      19.102  47.563  47.323  1.00  0.00     0.146 C 
HETATM   30  C   UNL     1      19.265  49.738  49.251  1.00  0.00     0.148 C 
HETATM   31  N   UNL     1      18.107  49.622  48.359  1.00  0.00    -0.325 N 
HETATM   32  C   UNL     1      17.142  50.616  48.440  1.00  0.00     0.362 C 
HETATM   33  C   UNL     1      18.301  48.855  47.118  1.00  0.00     0.148 C 
HETATM   34  O   UNL     1      17.130  51.482  49.308  1.00  0.00    -0.238 OA
HETATM   35  O   UNL     1      21.695  46.779  46.605  1.00  0.00    -0.267 OA
BRANCH  32  36
HETATM   36  O   UNL     1      16.213  50.522  47.451  1.00  0.00    -0.304 OA
BRANCH  36  37
HETATM   37  C   UNL     1      16.188  51.600  46.506  1.00  0.00     0.176 C 
HETATM   38  C   UNL     1      14.816  51.724  45.866  1.00  0.00     0.034 C 
ENDBRANCH  36  37
ENDBRANCH  32  36
ENDBRANCH   1  26
TORSDOF 7
ENDMDL
MODEL 9
REMARK VINA RESULT:      -8.6      3.769      5.481
REMARK  7 active torsions:
REMARK  status: ('A' for Active; 'I' for Inactive)
REMARK    1  A    between atoms: C_2  and  O_3 
REMARK    2  A    between atoms: O_3  and  C_4 
REMARK       I    between atoms: C_4  and  N_5 
REMARK       I    between atoms: N_8  and  C_9 
REMARK    3  A    between atoms: C_9  and  C_10 
REMARK    4  A    between atoms: C_11  and  N_12 
REMARK       I    between atoms: N_12  and  C_13 
REMARK    5  A    between atoms: C_13  and  C_14 
REMARK    6  A    between atoms: N_16  and  C_17 
REMARK    7  A    between atoms: C_18  and  O_19 
ROOT
HETATM    1  C   UNL     1      20.883  49.982  49.616  1.00  0.00     0.059 A 
HETATM    2  C   UNL     1      21.349  48.786  49.046  1.00  0.00     0.050 A 
HETATM    3  C   UNL     1      22.666  48.745  48.553  1.00  0.00     0.030 A 
HETATM    4  C   UNL     1      23.511  49.854  48.646  1.00  0.00     0.002 A 
HETATM    5  C   UNL     1      23.042  51.038  49.201  1.00  0.00     0.001 A 
HETATM    6  C   UNL     1      21.729  51.109  49.663  1.00  0.00     0.019 A 
ENDROOT
BRANCH   2   7
HETATM    7  N   UNL     1      20.592  47.617  48.828  1.00  0.00    -0.326 N 
HETATM    8  C   UNL     1      20.093  47.141  47.634  1.00  0.00     0.228 C 
HETATM    9  O   UNL     1      19.893  47.830  46.637  1.00  0.00    -0.273 OA
HETATM   10  H   UNL     1      20.299  47.130  49.668  1.00  0.00     0.169 HD
BRANCH   8  11
HETATM   11  C   UNL     1      19.772  45.640  47.628  1.00  0.00     0.105 C 
HETATM   12  C   UNL     1      20.373  44.886  48.801  1.00  0.00     0.147 C 
HETATM   13  N   UNL     1      21.698  44.538  48.330  1.00  0.00    -0.315 N 
HETATM   14  C   UNL     1      21.744  44.511  46.928  1.00  0.00     0.225 C 
HETATM   15  O   UNL     1      22.674  44.173  46.213  1.00  0.00    -0.273 OA
HETATM   16  C   UNL     1      20.394  44.955  46.415  1.00  0.00     0.119 C 
BRANCH  13  17
HETATM   17  C   UNL     1      22.816  44.422  49.197  1.00  0.00     0.071 A 
HETATM   18  C   UNL     1      23.210  43.196  49.760  1.00  0.00     0.095 A 
HETATM   19  C   UNL     1      24.213  43.143  50.734  1.00  0.00     0.039 A 
HETATM   20  C   UNL     1      24.858  44.310  51.139  1.00  0.00     0.009 A 
HETATM   21  C   UNL     1      24.523  45.535  50.559  1.00  0.00    -0.060 A 
HETATM   22  C   UNL     1      25.163  46.807  51.035  1.00  0.00     0.048 C 
HETATM   23  C   UNL     1      23.510  45.579  49.588  1.00  0.00     0.039 A 
BRANCH  18  24
HETATM   24  O   UNL     1      22.608  42.027  49.360  1.00  0.00    -0.354 OA
HETATM   25  C   UNL     1      23.396  41.371  48.363  1.00  0.00     0.210 C 
ENDBRANCH  18  24
ENDBRANCH  13  17
ENDBRANCH   8  11
ENDBRANCH   2   7
BRANCH   1  26
HETATM   26  C   UNL     1      19.460  50.223  49.956  1.00  0.00     0.256 C 
HETATM   27  N   UNL     1      18.639  50.829  49.015  1.00  0.00    -0.345 N 
HETATM   28  C   UNL     1      19.069  51.494  47.781  1.00  0.00     0.146 C 
HETATM   29  C   UNL     1      17.210  50.968  49.282  1.00  0.00     0.146 C 
HETATM   30  C   UNL     1      18.301  50.926  46.583  1.00  0.00     0.148 C 
HETATM   31  N   UNL     1      16.850  50.905  46.797  1.00  0.00    -0.325 N 
HETATM   32  C   UNL     1      16.044  50.806  45.672  1.00  0.00     0.362 C 
HETATM   33  C   UNL     1      16.382  50.428  48.108  1.00  0.00     0.148 C 
HETATM   34  O   UNL     1      16.467  50.892  44.525  1.00  0.00    -0.238 OA
HETATM   35  O   UNL     1      19.052  49.787  51.033  1.00  0.00    -0.267 OA
BRANCH  32  36
HETATM   36  O   UNL     1      14.736  50.606  45.985  1.00  0.00    -0.304 OA
BRANCH  36  37
HETATM   37  C   UNL     1      14.008  49.727  45.116  1.00  0.00     0.176 C 
HETATM   38  C   UNL     1      13.809  48.369  45.767  1.00  0.00     0.034 C 
ENDBRANCH  36  37
ENDBRANCH  32  36
ENDBRANCH   1  26
TORSDOF 7
ENDMDL
MODEL 10
REMARK VINA RESULT:      -8.6     10.861     13.734
REMARK  7 active torsions:
REMARK  status: ('A' for Active; 'I' for Inactive)
REMARK    1  A    between atoms: C_2  and  O_3 
REMARK    2  A    between atoms: O_3  and  C_4 
REMARK       I    between atoms: C_4  and  N_5 
REMARK       I    between atoms: N_8  and  C_9 
REMARK    3  A    between atoms: C_9  and  C_10 
REMARK    4  A    between atoms: C_11  and  N_12 
REMARK       I    between atoms: N_12  and  C_13 
REMARK    5  A    between atoms: C_13  and  C_14 
REMARK    6  A    between atoms: N_16  and  C_17 
REMARK    7  A    between atoms: C_18  and  O_19 
ROOT
HETATM    1  C   UNL     1      29.748  50.980  39.322  1.00  0.00     0.059 A 
HETATM    2  C   UNL     1      30.255  51.905  40.250  1.00  0.00     0.050 A 
HETATM    3  C   UNL     1      29.884  53.256  40.124  1.00  0.00     0.030 A 
HETATM    4  C   UNL     1      29.010  53.678  39.119  1.00  0.00     0.002 A 
HETATM    5  C   UNL     1      28.519  52.762  38.198  1.00  0.00     0.001 A 
HETATM    6  C   UNL     1      28.903  51.425  38.285  1.00  0.00     0.019 A 
ENDROOT
BRANCH   2   7
HETATM    7  N   UNL     1      31.192  51.635  41.268  1.00  0.00    -0.326 N 
HETATM    8  C   UNL     1      31.147  52.031  42.589  1.00  0.00     0.228 C 
HETATM    9  O   UNL     1      30.499  52.987  43.008  1.00  0.00    -0.273 OA
HETATM   10  H   UNL     1      32.046  51.183  40.961  1.00  0.00     0.169 HD
BRANCH   8  11
HETATM   11  C   UNL     1      32.001  51.183  43.541  1.00  0.00     0.105 C 
HETATM   12  C   UNL     1      33.455  51.617  43.600  1.00  0.00     0.147 C 
HETATM   13  N   UNL     1      34.065  50.887  42.508  1.00  0.00    -0.315 N 
HETATM   14  C   UNL     1      33.322  49.740  42.190  1.00  0.00     0.225 C 
HETATM   15  O   UNL     1      33.598  48.864  41.386  1.00  0.00    -0.273 OA
HETATM   16  C   UNL     1      32.085  49.739  43.057  1.00  0.00     0.119 C 
BRANCH  13  17
HETATM   17  C   UNL     1      35.167  51.391  41.767  1.00  0.00     0.071 A 
HETATM   18  C   UNL     1      35.005  52.107  40.568  1.00  0.00     0.095 A 
HETATM   19  C   UNL     1      36.110  52.449  39.782  1.00  0.00     0.039 A 
HETATM   20  C   UNL     1      37.396  52.108  40.195  1.00  0.00     0.009 A 
HETATM   21  C   UNL     1      37.591  51.443  41.408  1.00  0.00    -0.060 A 
HETATM   22  C   UNL     1      38.965  51.011  41.831  1.00  0.00     0.048 C 
HETATM   23  C   UNL     1      36.475  51.097  42.186  1.00  0.00     0.039 A 
BRANCH  18  24
HETATM   24  O   UNL     1      33.749  52.478  40.150  1.00  0.00    -0.354 OA
HETATM   25  C   UNL     1      33.474  51.945  38.851  1.00  0.00     0.210 C 
ENDBRANCH  18  24
ENDBRANCH  13  17
ENDBRANCH   8  11
ENDBRANCH   2   7
BRANCH   1  26
HETATM   26  C   UNL     1      30.241  49.587  39.208  1.00  0.00     0.256 C 
HETATM   27  N   UNL     1      29.688  48.611  40.027  1.00  0.00    -0.345 N 
HETATM   28  C   UNL     1      28.820  48.835  41.187  1.00  0.00     0.146 C 
HETATM   29  C   UNL     1      30.071  47.213  39.850  1.00  0.00     0.146 C 
HETATM   30  C   UNL     1      27.541  48.001  41.056  1.00  0.00     0.148 C 
HETATM   31  N   UNL     1      27.811  46.592  40.753  1.00  0.00    -0.325 N 
HETATM   32  C   UNL     1      26.797  45.681  41.011  1.00  0.00     0.362 C 
HETATM   33  C   UNL     1      28.830  46.319  39.725  1.00  0.00     0.148 C 
HETATM   34  O   UNL     1      25.767  45.965  41.611  1.00  0.00    -0.238 OA
HETATM   35  O   UNL     1      31.060  49.344  38.321  1.00  0.00    -0.267 OA
BRANCH  32  36
HETATM   36  O   UNL     1      27.074  44.441  40.525  1.00  0.00    -0.304 OA
BRANCH  36  37
HETATM   37  C   UNL     1      26.945  43.358  41.455  1.00  0.00     0.176 C 
HETATM   38  C   UNL     1      27.888  42.223  41.094  1.00  0.00     0.034 C 
ENDBRANCH  36  37
ENDBRANCH  32  36
ENDBRANCH   1  26
TORSDOF 7
ENDMDL
