MODEL 1
REMARK VINA RESULT:      -9.8      0.000      0.000
REMARK  4 active torsions:
REMARK  status: ('A' for Active; 'I' for Inactive)
REMARK    1  A    between atoms: C_2  and  C_3 
REMARK    2  A    between atoms: C_6  and  C_7 
REMARK       I    between atoms: C_7  and  N_8 
REMARK    3  A    between atoms: N_8  and  N_9 
REMARK       I    between atoms: N_9  and  C_10 
REMARK    4  A    between atoms: C_10  and  C_11 
ROOT
HETATM    1  N   UNL     1      26.797  45.351  51.493  1.00  0.00    -0.263 N 
HETATM    2  C   UNL     1      27.142  45.263  52.825  1.00  0.00     0.272 C 
HETATM    3  O   UNL     1      26.654  45.993  53.687  1.00  0.00    -0.266 OA
HETATM    4  H   UNL     1      27.323  44.912  50.739  1.00  0.00     0.190 HD
ENDROOT
BRANCH   1   5
HETATM    5  N   UNL     1      25.923  46.370  51.104  1.00  0.00    -0.263 N 
HETATM    6  C   UNL     1      26.194  47.038  49.928  1.00  0.00     0.270 C 
HETATM    7  O   UNL     1      27.199  46.808  49.256  1.00  0.00    -0.266 OA
HETATM    8  H   UNL     1      25.045  46.428  51.614  1.00  0.00     0.190 HD
BRANCH   6   9
HETATM    9  C   UNL     1      25.188  48.038  49.481  1.00  0.00     0.033 A 
HETATM   10  C   UNL     1      25.547  49.225  48.830  1.00  0.00     0.017 A 
HETATM   11  C   UNL     1      24.560  50.134  48.438  1.00  0.00     0.008 A 
HETATM   12  C   UNL     1      23.207  49.871  48.689  1.00  0.00    -0.059 A 
HETATM   13  C   UNL     1      22.851  48.672  49.319  1.00  0.00     0.008 A 
HETATM   14  C   UNL     1      23.835  47.761  49.709  1.00  0.00     0.017 A 
BRANCH  12  15
HETATM   15  C   UNL     1      22.144  50.847  48.254  1.00  0.00     0.034 C 
HETATM   16  C   UNL     1      21.028  50.964  49.281  1.00  0.00     0.010 C 
ENDBRANCH  12  15
ENDBRANCH   6   9
ENDBRANCH   1   5
BRANCH   2  17
HETATM   17  C   UNL     1      28.182  44.257  53.175  1.00  0.00     0.061 A 
HETATM   18  C   UNL     1      28.922  44.407  54.362  1.00  0.00     0.059 A 
HETATM   19  C   UNL     1      29.932  43.527  54.744  1.00  0.00    -0.001 A 
HETATM   20  N   UNL     1      28.839  45.372  55.340  1.00  0.00    -0.358 N 
HETATM   21  C   UNL     1      30.478  44.007  55.980  1.00  0.00    -0.027 A 
HETATM   22  C   UNL     1      30.209  42.424  53.910  1.00  0.00     0.014 A 
HETATM   23  C   UNL     1      31.590  43.398  56.759  1.00  0.00     0.051 C 
HETATM   24  C   UNL     1      29.777  45.156  56.316  1.00  0.00     0.012 A 
HETATM   25  C   UNL     1      29.897  46.079  57.474  1.00  0.00     0.068 C 
HETATM   26  C   UNL     1      29.468  42.235  52.739  1.00  0.00     0.002 A 
HETATM   27  C   UNL     1      28.468  43.138  52.376  1.00  0.00     0.019 A 
HETATM   28  H   UNL     1      28.159  46.124  55.318  1.00  0.00     0.166 HD
ENDBRANCH   2  17
TORSDOF 4
ENDMDL
MODEL 2
REMARK VINA RESULT:      -9.4      1.921      3.039
REMARK  4 active torsions:
REMARK  status: ('A' for Active; 'I' for Inactive)
REMARK    1  A    between atoms: C_2  and  C_3 
REMARK    2  A    between atoms: C_6  and  C_7 
REMARK       I    between atoms: C_7  and  N_8 
REMARK    3  A    between atoms: N_8  and  N_9 
REMARK       I    between atoms: N_9  and  C_10 
REMARK    4  A    between atoms: C_10  and  C_11 
ROOT
HETATM    1  N   UNL     1      24.427  46.570  50.430  1.00  0.00    -0.263 N 
HETATM    2  C   UNL     1      25.290  46.546  51.506  1.00  0.00     0.272 C 
HETATM    3  O   UNL     1      25.356  47.463  52.324  1.00  0.00    -0.266 OA
HETATM    4  H   UNL     1      24.493  45.938  49.634  1.00  0.00     0.190 HD
ENDROOT
BRANCH   1   5
HETATM    5  N   UNL     1      23.664  47.722  50.222  1.00  0.00    -0.263 N 
HETATM    6  C   UNL     1      22.847  47.763  49.112  1.00  0.00     0.270 C 
HETATM    7  O   UNL     1      22.817  46.855  48.282  1.00  0.00    -0.266 OA
HETATM    8  H   UNL     1      23.620  48.378  50.998  1.00  0.00     0.190 HD
BRANCH   6   9
HETATM    9  C   UNL     1      21.962  48.952  48.976  1.00  0.00     0.033 A 
HETATM   10  C   UNL     1      22.449  50.211  48.606  1.00  0.00     0.017 A 
HETATM   11  C   UNL     1      21.575  51.296  48.501  1.00  0.00     0.008 A 
HETATM   12  C   UNL     1      20.207  51.139  48.763  1.00  0.00    -0.059 A 
HETATM   13  C   UNL     1      19.721  49.871  49.110  1.00  0.00     0.008 A 
HETATM   14  C   UNL     1      20.592  48.785  49.213  1.00  0.00     0.017 A 
BRANCH  12  15
HETATM   15  C   UNL     1      19.263  52.308  48.637  1.00  0.00     0.034 C 
HETATM   16  C   UNL     1      18.138  52.240  49.658  1.00  0.00     0.010 C 
ENDBRANCH  12  15
ENDBRANCH   6   9
ENDBRANCH   1   5
BRANCH   2  17
HETATM   17  C   UNL     1      26.186  45.362  51.609  1.00  0.00     0.061 A 
HETATM   18  C   UNL     1      26.990  45.198  52.752  1.00  0.00     0.059 A 
HETATM   19  C   UNL     1      27.876  44.134  52.911  1.00  0.00    -0.001 A 
HETATM   20  N   UNL     1      27.092  45.977  53.882  1.00  0.00    -0.358 N 
HETATM   21  C   UNL     1      28.539  44.310  54.171  1.00  0.00    -0.027 A 
HETATM   22  C   UNL     1      27.953  43.169  51.887  1.00  0.00     0.014 A 
HETATM   23  C   UNL     1      29.583  43.426  54.758  1.00  0.00     0.051 C 
HETATM   24  C   UNL     1      28.029  45.466  54.742  1.00  0.00     0.012 A 
HETATM   25  C   UNL     1      28.332  46.145  56.027  1.00  0.00     0.068 C 
HETATM   26  C   UNL     1      27.142  43.293  50.753  1.00  0.00     0.002 A 
HETATM   27  C   UNL     1      26.270  44.373  50.616  1.00  0.00     0.019 A 
HETATM   28  H   UNL     1      26.529  46.807  54.033  1.00  0.00     0.166 HD
ENDBRANCH   2  17
TORSDOF 4
ENDMDL
MODEL 3
REMARK VINA RESULT:      -9.2      1.938      9.334
REMARK  4 active torsions:
REMARK  status: ('A' for Active; 'I' for Inactive)
REMARK    1  A    between atoms: C_2  and  C_3 
REMARK    2  A    between atoms: C_6  and  C_7 
REMARK       I    between atoms: C_7  and  N_8 
REMARK    3  A    between atoms: N_8  and  N_9 
REMARK       I    between atoms: N_9  and  C_10 
REMARK    4  A    between atoms: C_10  and  C_11 
ROOT
HETATM    1  N   UNL     1      25.930  45.319  50.858  1.00  0.00    -0.263 N 
HETATM    2  C   UNL     1      25.034  46.359  50.728  1.00  0.00     0.272 C 
HETATM    3  O   UNL     1      25.027  47.328  51.486  1.00  0.00    -0.266 OA
HETATM    4  H   UNL     1      25.832  44.421  50.386  1.00  0.00     0.190 HD
ENDROOT
BRANCH   1   5
HETATM    5  N   UNL     1      26.804  45.334  51.948  1.00  0.00    -0.263 N 
HETATM    6  C   UNL     1      27.208  44.122  52.468  1.00  0.00     0.270 C 
HETATM    7  O   UNL     1      26.780  43.049  52.046  1.00  0.00    -0.266 OA
HETATM    8  H   UNL     1      27.231  46.230  52.169  1.00  0.00     0.190 HD
BRANCH   6   9
HETATM    9  C   UNL     1      28.225  44.166  53.553  1.00  0.00     0.033 A 
HETATM   10  C   UNL     1      29.254  43.221  53.656  1.00  0.00     0.017 A 
HETATM   11  C   UNL     1      30.178  43.306  54.701  1.00  0.00     0.008 A 
HETATM   12  C   UNL     1      30.089  44.331  55.652  1.00  0.00    -0.059 A 
HETATM   13  C   UNL     1      29.073  45.287  55.531  1.00  0.00     0.008 A 
HETATM   14  C   UNL     1      28.149  45.207  54.486  1.00  0.00     0.017 A 
BRANCH  12  15
HETATM   15  C   UNL     1      31.096  44.427  56.771  1.00  0.00     0.034 C 
HETATM   16  C   UNL     1      31.762  43.089  57.051  1.00  0.00     0.010 C 
ENDBRANCH  12  15
ENDBRANCH   6   9
ENDBRANCH   1   5
BRANCH   2  17
HETATM   17  C   UNL     1      24.028  46.233  49.638  1.00  0.00     0.061 A 
HETATM   18  C   UNL     1      23.238  47.344  49.290  1.00  0.00     0.059 A 
HETATM   19  C   UNL     1      22.256  47.299  48.303  1.00  0.00    -0.001 A 
HETATM   20  N   UNL     1      23.241  48.624  49.795  1.00  0.00    -0.358 N 
HETATM   21  C   UNL     1      21.644  48.595  48.244  1.00  0.00    -0.027 A 
HETATM   22  C   UNL     1      22.060  46.088  47.609  1.00  0.00     0.014 A 
HETATM   23  C   UNL     1      20.532  49.015  47.348  1.00  0.00     0.051 C 
HETATM   24  C   UNL     1      22.279  49.389  49.188  1.00  0.00     0.012 A 
HETATM   25  C   UNL     1      22.074  50.807  49.579  1.00  0.00     0.068 C 
HETATM   26  C   UNL     1      22.852  44.976  47.915  1.00  0.00     0.002 A 
HETATM   27  C   UNL     1      23.823  45.047  48.914  1.00  0.00     0.019 A 
HETATM   28  H   UNL     1      23.886  48.934  50.513  1.00  0.00     0.166 HD
ENDBRANCH   2  17
TORSDOF 4
ENDMDL
MODEL 4
REMARK VINA RESULT:      -9.0      2.016      9.493
REMARK  4 active torsions:
REMARK  status: ('A' for Active; 'I' for Inactive)
REMARK    1  A    between atoms: C_2  and  C_3 
REMARK    2  A    between atoms: C_6  and  C_7 
REMARK       I    between atoms: C_7  and  N_8 
REMARK    3  A    between atoms: N_8  and  N_9 
REMARK       I    between atoms: N_9  and  C_10 
REMARK    4  A    between atoms: C_10  and  C_11 
ROOT
HETATM    1  N   UNL     1      25.081  47.555  51.021  1.00  0.00    -0.263 N 
HETATM    2  C   UNL     1      25.348  47.938  49.723  1.00  0.00     0.272 C 
HETATM    3  O   UNL     1      26.427  47.716  49.175  1.00  0.00    -0.266 OA
HETATM    4  H   UNL     1      24.291  47.899  51.564  1.00  0.00     0.190 HD
ENDROOT
BRANCH   1   5
HETATM    5  N   UNL     1      26.111  46.970  51.762  1.00  0.00    -0.263 N 
HETATM    6  C   UNL     1      26.152  47.219  53.118  1.00  0.00     0.270 C 
HETATM    7  O   UNL     1      25.358  47.976  53.673  1.00  0.00    -0.266 OA
HETATM    8  H   UNL     1      26.653  46.252  51.288  1.00  0.00     0.190 HD
BRANCH   6   9
HETATM    9  C   UNL     1      27.191  46.493  53.899  1.00  0.00     0.033 A 
HETATM   10  C   UNL     1      28.028  47.140  54.816  1.00  0.00     0.017 A 
HETATM   11  C   UNL     1      28.992  46.410  55.517  1.00  0.00     0.008 A 
HETATM   12  C   UNL     1      29.132  45.031  55.314  1.00  0.00    -0.059 A 
HETATM   13  C   UNL     1      28.276  44.385  54.412  1.00  0.00     0.008 A 
HETATM   14  C   UNL     1      27.310  45.111  53.712  1.00  0.00     0.017 A 
BRANCH  12  15
HETATM   15  C   UNL     1      30.164  44.244  56.081  1.00  0.00     0.034 C 
HETATM   16  C   UNL     1      30.828  43.185  55.214  1.00  0.00     0.010 C 
ENDBRANCH  12  15
ENDBRANCH   6   9
ENDBRANCH   1   5
BRANCH   2  17
HETATM   17  C   UNL     1      24.271  48.685  49.018  1.00  0.00     0.061 A 
HETATM   18  C   UNL     1      23.066  48.032  48.702  1.00  0.00     0.059 A 
HETATM   19  C   UNL     1      22.022  48.652  48.017  1.00  0.00    -0.001 A 
HETATM   20  N   UNL     1      22.664  46.742  48.961  1.00  0.00    -0.358 N 
HETATM   21  C   UNL     1      20.980  47.682  47.849  1.00  0.00    -0.027 A 
HETATM   22  C   UNL     1      22.176  50.003  47.645  1.00  0.00     0.014 A 
HETATM   23  C   UNL     1      19.676  47.886  47.161  1.00  0.00     0.051 C 
HETATM   24  C   UNL     1      21.416  46.507  48.444  1.00  0.00     0.012 A 
HETATM   25  C   UNL     1      20.773  45.176  48.580  1.00  0.00     0.068 C 
HETATM   26  C   UNL     1      23.353  50.685  47.974  1.00  0.00     0.002 A 
HETATM   27  C   UNL     1      24.385  50.036  48.652  1.00  0.00     0.019 A 
HETATM   28  H   UNL     1      23.233  46.079  49.476  1.00  0.00     0.166 HD
ENDBRANCH   2  17
TORSDOF 4
ENDMDL
MODEL 5
REMARK VINA RESULT:      -8.8      4.714      7.379
REMARK  4 active torsions:
REMARK  status: ('A' for Active; 'I' for Inactive)
REMARK    1  A    between atoms: C_2  and  C_3 
REMARK    2  A    between atoms: C_6  and  C_7 
REMARK       I    between atoms: C_7  and  N_8 
REMARK    3  A    between atoms: N_8  and  N_9 
REMARK       I    between atoms: N_9  and  C_10 
REMARK    4  A    between atoms: C_10  and  C_11 
ROOT
HETATM    1  N   UNL     1      27.691  42.769  51.995  1.00  0.00    -0.263 N 
HETATM    2  C   UNL     1      28.766  43.160  52.766  1.00  0.00     0.272 C 
HETATM    3  O   UNL     1      29.866  42.613  52.697  1.00  0.00    -0.266 OA
HETATM    4  H   UNL     1      26.730  43.057  52.172  1.00  0.00     0.190 HD
ENDROOT
BRANCH   1   5
HETATM    5  N   UNL     1      27.843  41.652  51.170  1.00  0.00    -0.263 N 
HETATM    6  C   UNL     1      27.587  41.806  49.823  1.00  0.00     0.270 C 
HETATM    7  O   UNL     1      27.177  42.863  49.347  1.00  0.00    -0.266 OA
HETATM    8  H   UNL     1      28.310  40.849  51.583  1.00  0.00     0.190 HD
BRANCH   6   9
HETATM    9  C   UNL     1      27.865  40.632  48.952  1.00  0.00     0.033 A 
HETATM   10  C   UNL     1      27.697  40.672  47.563  1.00  0.00     0.017 A 
HETATM   11  C   UNL     1      27.965  39.536  46.793  1.00  0.00     0.008 A 
HETATM   12  C   UNL     1      28.406  38.352  47.398  1.00  0.00    -0.059 A 
HETATM   13  C   UNL     1      28.595  38.324  48.785  1.00  0.00     0.008 A 
HETATM   14  C   UNL     1      28.330  39.457  49.556  1.00  0.00     0.017 A 
BRANCH  12  15
HETATM   15  C   UNL     1      28.707  37.132  46.564  1.00  0.00     0.034 C 
HETATM   16  C   UNL     1      27.522  36.181  46.501  1.00  0.00     0.010 C 
ENDBRANCH  12  15
ENDBRANCH   6   9
ENDBRANCH   1   5
BRANCH   2  17
HETATM   17  C   UNL     1      28.520  44.263  53.735  1.00  0.00     0.061 A 
HETATM   18  C   UNL     1      29.341  44.385  54.871  1.00  0.00     0.059 A 
HETATM   19  C   UNL     1      29.157  45.371  55.839  1.00  0.00    -0.001 A 
HETATM   20  N   UNL     1      30.421  43.630  55.268  1.00  0.00    -0.358 N 
HETATM   21  C   UNL     1      30.152  45.170  56.852  1.00  0.00    -0.027 A 
HETATM   22  C   UNL     1      28.111  46.299  55.658  1.00  0.00     0.014 A 
HETATM   23  C   UNL     1      30.334  45.974  58.092  1.00  0.00     0.051 C 
HETATM   24  C   UNL     1      30.915  44.079  56.465  1.00  0.00     0.012 A 
HETATM   25  C   UNL     1      32.073  43.410  57.110  1.00  0.00     0.068 C 
HETATM   26  C   UNL     1      27.298  46.217  54.522  1.00  0.00     0.002 A 
HETATM   27  C   UNL     1      27.500  45.215  53.574  1.00  0.00     0.019 A 
HETATM   28  H   UNL     1      30.785  42.857  54.722  1.00  0.00     0.166 HD
ENDBRANCH   2  17
TORSDOF 4
ENDMDL
MODEL 6
REMARK VINA RESULT:      -8.8      1.847      9.300
REMARK  4 active torsions:
REMARK  status: ('A' for Active; 'I' for Inactive)
REMARK    1  A    between atoms: C_2  and  C_3 
REMARK    2  A    between atoms: C_6  and  C_7 
REMARK       I    between atoms: C_7  and  N_8 
REMARK    3  A    between atoms: N_8  and  N_9 
REMARK       I    between atoms: N_9  and  C_10 
REMARK    4  A    between atoms: C_10  and  C_11 
ROOT
HETATM    1  N   UNL     1      25.107  45.112  51.495  1.00  0.00    -0.263 N 
HETATM    2  C   UNL     1      25.113  45.567  50.194  1.00  0.00     0.272 C 
HETATM    3  O   UNL     1      26.147  45.883  49.606  1.00  0.00    -0.266 OA
HETATM    4  H   UNL     1      24.268  45.041  52.069  1.00  0.00     0.190 HD
ENDROOT
BRANCH   1   5
HETATM    5  N   UNL     1      26.317  45.094  52.194  1.00  0.00    -0.263 N 
HETATM    6  C   UNL     1      26.281  44.795  53.540  1.00  0.00     0.270 C 
HETATM    7  O   UNL     1      25.226  44.607  54.144  1.00  0.00    -0.266 OA
HETATM    8  H   UNL     1      27.162  45.119  51.629  1.00  0.00     0.190 HD
BRANCH   6   9
HETATM    9  C   UNL     1      27.592  44.671  54.232  1.00  0.00     0.033 A 
HETATM   10  C   UNL     1      28.091  45.669  55.077  1.00  0.00     0.017 A 
HETATM   11  C   UNL     1      29.333  45.504  55.696  1.00  0.00     0.008 A 
HETATM   12  C   UNL     1      30.090  44.345  55.482  1.00  0.00    -0.059 A 
HETATM   13  C   UNL     1      29.575  43.338  54.654  1.00  0.00     0.008 A 
HETATM   14  C   UNL     1      28.333  43.499  54.037  1.00  0.00     0.017 A 
BRANCH  12  15
HETATM   15  C   UNL     1      31.424  44.163  56.162  1.00  0.00     0.034 C 
HETATM   16  C   UNL     1      31.384  43.053  57.200  1.00  0.00     0.010 C 
ENDBRANCH  12  15
ENDBRANCH   6   9
ENDBRANCH   1   5
BRANCH   2  17
HETATM   17  C   UNL     1      23.786  45.706  49.534  1.00  0.00     0.061 A 
HETATM   18  C   UNL     1      23.342  46.977  49.127  1.00  0.00     0.059 A 
HETATM   19  C   UNL     1      22.101  47.194  48.532  1.00  0.00    -0.001 A 
HETATM   20  N   UNL     1      23.964  48.201  49.215  1.00  0.00    -0.358 N 
HETATM   21  C   UNL     1      21.982  48.601  48.283  1.00  0.00    -0.027 A 
HETATM   22  C   UNL     1      21.263  46.083  48.309  1.00  0.00     0.014 A 
HETATM   23  C   UNL     1      20.820  49.302  47.672  1.00  0.00     0.051 C 
HETATM   24  C   UNL     1      23.156  49.194  48.724  1.00  0.00     0.012 A 
HETATM   25  C   UNL     1      23.601  50.611  48.729  1.00  0.00     0.068 C 
HETATM   26  C   UNL     1      21.693  44.803  48.677  1.00  0.00     0.002 A 
HETATM   27  C   UNL     1      22.937  44.617  49.280  1.00  0.00     0.019 A 
HETATM   28  H   UNL     1      24.899  48.321  49.590  1.00  0.00     0.166 HD
ENDBRANCH   2  17
TORSDOF 4
ENDMDL
MODEL 7
REMARK VINA RESULT:      -8.2      2.382      9.787
REMARK  4 active torsions:
REMARK  status: ('A' for Active; 'I' for Inactive)
REMARK    1  A    between atoms: C_2  and  C_3 
REMARK    2  A    between atoms: C_6  and  C_7 
REMARK       I    between atoms: C_7  and  N_8 
REMARK    3  A    between atoms: N_8  and  N_9 
REMARK       I    between atoms: N_9  and  C_10 
REMARK    4  A    between atoms: C_10  and  C_11 
ROOT
HETATM    1  N   UNL     1      24.119  47.149  50.619  1.00  0.00    -0.263 N 
HETATM    2  C   UNL     1      24.374  48.195  49.758  1.00  0.00     0.272 C 
HETATM    3  O   UNL     1      25.511  48.602  49.526  1.00  0.00    -0.266 OA
HETATM    4  H   UNL     1      23.195  46.926  50.986  1.00  0.00     0.190 HD
ENDROOT
BRANCH   1   5
HETATM    5  N   UNL     1      25.194  46.592  51.317  1.00  0.00    -0.263 N 
HETATM    6  C   UNL     1      25.054  45.308  51.800  1.00  0.00     0.270 C 
HETATM    7  O   UNL     1      24.006  44.673  51.689  1.00  0.00    -0.266 OA
HETATM    8  H   UNL     1      26.075  47.098  51.262  1.00  0.00     0.190 HD
BRANCH   6   9
HETATM    9  C   UNL     1      26.253  44.700  52.439  1.00  0.00     0.033 A 
HETATM   10  C   UNL     1      27.360  44.268  51.698  1.00  0.00     0.017 A 
HETATM   11  C   UNL     1      28.456  43.696  52.350  1.00  0.00     0.008 A 
HETATM   12  C   UNL     1      28.463  43.550  53.743  1.00  0.00    -0.059 A 
HETATM   13  C   UNL     1      27.362  44.005  54.481  1.00  0.00     0.008 A 
HETATM   14  C   UNL     1      26.267  44.579  53.833  1.00  0.00     0.017 A 
BRANCH  12  15
HETATM   15  C   UNL     1      29.652  42.945  54.444  1.00  0.00     0.034 C 
HETATM   16  C   UNL     1      30.318  43.935  55.387  1.00  0.00     0.010 C 
ENDBRANCH  12  15
ENDBRANCH   6   9
ENDBRANCH   1   5
BRANCH   2  17
HETATM   17  C   UNL     1      23.187  48.852  49.145  1.00  0.00     0.061 A 
HETATM   18  C   UNL     1      22.307  48.094  48.350  1.00  0.00     0.059 A 
HETATM   19  C   UNL     1      21.192  48.641  47.718  1.00  0.00    -0.001 A 
HETATM   20  N   UNL     1      22.334  46.756  48.030  1.00  0.00    -0.358 N 
HETATM   21  C   UNL     1      20.556  47.588  46.981  1.00  0.00    -0.027 A 
HETATM   22  C   UNL     1      20.924  50.013  47.902  1.00  0.00     0.014 A 
HETATM   23  C   UNL     1      19.335  47.705  46.137  1.00  0.00     0.051 C 
HETATM   24  C   UNL     1      21.295  46.435  47.195  1.00  0.00     0.012 A 
HETATM   25  C   UNL     1      21.122  45.048  46.694  1.00  0.00     0.068 C 
HETATM   26  C   UNL     1      21.767  50.783  48.712  1.00  0.00     0.002 A 
HETATM   27  C   UNL     1      22.881  50.211  49.325  1.00  0.00     0.019 A 
HETATM   28  H   UNL     1      23.035  46.117  48.386  1.00  0.00     0.166 HD
ENDBRANCH   2  17
TORSDOF 4
ENDMDL
MODEL 8
REMARK VINA RESULT:      -8.2      2.037      2.571
REMARK  4 active torsions:
REMARK  status: ('A' for Active; 'I' for Inactive)
REMARK    1  A    between atoms: C_2  and  C_3 
REMARK    2  A    between atoms: C_6  and  C_7 
REMARK       I    between atoms: C_7  and  N_8 
REMARK    3  A    between atoms: N_8  and  N_9 
REMARK       I    between atoms: N_9  and  C_10 
REMARK    4  A    between atoms: C_10  and  C_11 
ROOT
HETATM    1  N   UNL     1      27.020  44.953  50.931  1.00  0.00    -0.263 N 
HETATM    2  C   UNL     1      27.018  43.785  51.664  1.00  0.00     0.272 C 
HETATM    3  O   UNL     1      26.115  42.953  51.585  1.00  0.00    -0.266 OA
HETATM    4  H   UNL     1      27.633  45.744  51.122  1.00  0.00     0.190 HD
ENDROOT
BRANCH   1   5
HETATM    5  N   UNL     1      25.907  45.234  50.135  1.00  0.00    -0.263 N 
HETATM    6  C   UNL     1      25.039  46.217  50.563  1.00  0.00     0.270 C 
HETATM    7  O   UNL     1      25.182  46.800  51.636  1.00  0.00    -0.266 OA
HETATM    8  H   UNL     1      25.907  44.828  49.202  1.00  0.00     0.190 HD
BRANCH   6   9
HETATM    9  C   UNL     1      23.926  46.574  49.641  1.00  0.00     0.033 A 
HETATM   10  C   UNL     1      23.191  45.608  48.944  1.00  0.00     0.017 A 
HETATM   11  C   UNL     1      22.161  46.000  48.084  1.00  0.00     0.008 A 
HETATM   12  C   UNL     1      21.851  47.355  47.911  1.00  0.00    -0.059 A 
HETATM   13  C   UNL     1      22.575  48.316  48.629  1.00  0.00     0.008 A 
HETATM   14  C   UNL     1      23.603  47.928  49.490  1.00  0.00     0.017 A 
BRANCH  12  15
HETATM   15  C   UNL     1      20.731  47.774  46.994  1.00  0.00     0.034 C 
HETATM   16  C   UNL     1      20.096  46.583  46.294  1.00  0.00     0.010 C 
ENDBRANCH  12  15
ENDBRANCH   6   9
ENDBRANCH   1   5
BRANCH   2  17
HETATM   17  C   UNL     1      28.155  43.593  52.606  1.00  0.00     0.061 A 
HETATM   18  C   UNL     1      28.301  44.461  53.704  1.00  0.00     0.059 A 
HETATM   19  C   UNL     1      29.353  44.366  54.612  1.00  0.00    -0.001 A 
HETATM   20  N   UNL     1      27.518  45.519  54.106  1.00  0.00    -0.358 N 
HETATM   21  C   UNL     1      29.193  45.423  55.569  1.00  0.00    -0.027 A 
HETATM   22  C   UNL     1      30.301  43.339  54.433  1.00  0.00     0.014 A 
HETATM   23  C   UNL     1      30.088  45.726  56.719  1.00  0.00     0.051 C 
HETATM   24  C   UNL     1      28.046  46.119  55.219  1.00  0.00     0.012 A 
HETATM   25  C   UNL     1      27.386  47.301  55.832  1.00  0.00     0.068 C 
HETATM   26  C   UNL     1      30.162  42.443  53.367  1.00  0.00     0.002 A 
HETATM   27  C   UNL     1      29.104  42.568  52.467  1.00  0.00     0.019 A 
HETATM   28  H   UNL     1      26.665  45.789  53.627  1.00  0.00     0.166 HD
ENDBRANCH   2  17
TORSDOF 4
ENDMDL
MODEL 9
REMARK VINA RESULT:      -8.2      2.332      9.525
REMARK  4 active torsions:
REMARK  status: ('A' for Active; 'I' for Inactive)
REMARK    1  A    between atoms: C_2  and  C_3 
REMARK    2  A    between atoms: C_6  and  C_7 
REMARK       I    between atoms: C_7  and  N_8 
REMARK    3  A    between atoms: N_8  and  N_9 
REMARK       I    between atoms: N_9  and  C_10 
REMARK    4  A    between atoms: C_10  and  C_11 
ROOT
HETATM    1  N   UNL     1      23.756  45.547  50.304  1.00  0.00    -0.263 N 
HETATM    2  C   UNL     1      23.780  46.690  49.533  1.00  0.00     0.272 C 
HETATM    3  O   UNL     1      24.639  47.561  49.664  1.00  0.00    -0.266 OA
HETATM    4  H   UNL     1      22.957  44.918  50.364  1.00  0.00     0.190 HD
ENDROOT
BRANCH   1   5
HETATM    5  N   UNL     1      24.698  45.422  51.329  1.00  0.00    -0.263 N 
HETATM    6  C   UNL     1      25.731  44.527  51.150  1.00  0.00     0.270 C 
HETATM    7  O   UNL     1      25.812  43.804  50.158  1.00  0.00    -0.266 OA
HETATM    8  H   UNL     1      24.665  46.131  52.057  1.00  0.00     0.190 HD
BRANCH   6   9
HETATM    9  C   UNL     1      26.780  44.497  52.205  1.00  0.00     0.033 A 
HETATM   10  C   UNL     1      27.963  43.760  52.068  1.00  0.00     0.017 A 
HETATM   11  C   UNL     1      28.911  43.762  53.094  1.00  0.00     0.008 A 
HETATM   12  C   UNL     1      28.693  44.497  54.267  1.00  0.00    -0.059 A 
HETATM   13  C   UNL     1      27.518  45.251  54.390  1.00  0.00     0.008 A 
HETATM   14  C   UNL     1      26.571  45.254  53.365  1.00  0.00     0.017 A 
BRANCH  12  15
HETATM   15  C   UNL     1      29.723  44.507  55.368  1.00  0.00     0.034 C 
HETATM   16  C   UNL     1      29.665  45.788  56.186  1.00  0.00     0.010 C 
ENDBRANCH  12  15
ENDBRANCH   6   9
ENDBRANCH   1   5
BRANCH   2  17
HETATM   17  C   UNL     1      22.674  46.849  48.550  1.00  0.00     0.061 A 
HETATM   18  C   UNL     1      21.817  47.961  48.641  1.00  0.00     0.059 A 
HETATM   19  C   UNL     1      20.742  48.165  47.779  1.00  0.00    -0.001 A 
HETATM   20  N   UNL     1      21.828  49.016  49.525  1.00  0.00    -0.358 N 
HETATM   21  C   UNL     1      20.085  49.372  48.187  1.00  0.00    -0.027 A 
HETATM   22  C   UNL     1      20.518  47.222  46.754  1.00  0.00     0.014 A 
HETATM   23  C   UNL     1      18.875  49.980  47.568  1.00  0.00     0.051 C 
HETATM   24  C   UNL     1      20.784  49.869  49.276  1.00  0.00     0.012 A 
HETATM   25  C   UNL     1      20.573  51.077  50.114  1.00  0.00     0.068 C 
HETATM   26  C   UNL     1      21.374  46.122  46.623  1.00  0.00     0.002 A 
HETATM   27  C   UNL     1      22.437  45.939  47.507  1.00  0.00     0.019 A 
HETATM   28  H   UNL     1      22.531  49.124  50.247  1.00  0.00     0.166 HD
ENDBRANCH   2  17
TORSDOF 4
ENDMDL
MODEL 10
REMARK VINA RESULT:      -7.9      5.085      7.370
REMARK  4 active torsions:
REMARK  status: ('A' for Active; 'I' for Inactive)
REMARK    1  A    between atoms: C_2  and  C_3 
REMARK    2  A    between atoms: C_6  and  C_7 
REMARK       I    between atoms: C_7  and  N_8 
REMARK    3  A    between atoms: N_8  and  N_9 
REMARK       I    between atoms: N_9  and  C_10 
REMARK    4  A    between atoms: C_10  and  C_11 
ROOT
HETATM    1  N   UNL     1      22.572  49.360  50.022  1.00  0.00    -0.263 N 
HETATM    2  C   UNL     1      23.486  49.232  48.997  1.00  0.00     0.272 C 
HETATM    3  O   UNL     1      23.369  49.826  47.926  1.00  0.00    -0.266 OA
HETATM    4  H   UNL     1      22.528  48.736  50.826  1.00  0.00     0.190 HD
ENDROOT
BRANCH   1   5
HETATM    5  N   UNL     1      21.428  50.129  49.794  1.00  0.00    -0.263 N 
HETATM    6  C   UNL     1      20.262  49.469  49.467  1.00  0.00     0.270 C 
HETATM    7  O   UNL     1      20.216  48.249  49.312  1.00  0.00    -0.266 OA
HETATM    8  H   UNL     1      21.483  51.108  50.065  1.00  0.00     0.190 HD
BRANCH   6   9
HETATM    9  C   UNL     1      19.035  50.302  49.341  1.00  0.00     0.033 A 
HETATM   10  C   UNL     1      18.979  51.627  49.789  1.00  0.00     0.017 A 
HETATM   11  C   UNL     1      17.797  52.361  49.653  1.00  0.00     0.008 A 
HETATM   12  C   UNL     1      16.662  51.786  49.069  1.00  0.00    -0.059 A 
HETATM   13  C   UNL     1      16.731  50.467  48.601  1.00  0.00     0.008 A 
HETATM   14  C   UNL     1      17.910  49.732  48.733  1.00  0.00     0.017 A 
BRANCH  12  15
HETATM   15  C   UNL     1      15.392  52.584  48.912  1.00  0.00     0.034 C 
HETATM   16  C   UNL     1      14.950  53.209  50.226  1.00  0.00     0.010 C 
ENDBRANCH  12  15
ENDBRANCH   6   9
ENDBRANCH   1   5
BRANCH   2  17
HETATM   17  C   UNL     1      24.616  48.292  49.231  1.00  0.00     0.061 A 
HETATM   18  C   UNL     1      24.354  46.918  49.388  1.00  0.00     0.059 A 
HETATM   19  C   UNL     1      25.352  45.979  49.640  1.00  0.00    -0.001 A 
HETATM   20  N   UNL     1      23.162  46.233  49.342  1.00  0.00    -0.358 N 
HETATM   21  C   UNL     1      24.717  44.700  49.769  1.00  0.00    -0.027 A 
HETATM   22  C   UNL     1      26.687  46.426  49.718  1.00  0.00     0.014 A 
HETATM   23  C   UNL     1      25.384  43.400  50.056  1.00  0.00     0.051 C 
HETATM   24  C   UNL     1      23.358  44.898  49.583  1.00  0.00     0.012 A 
HETATM   25  C   UNL     1      22.213  43.952  49.604  1.00  0.00     0.068 C 
HETATM   26  C   UNL     1      26.978  47.783  49.535  1.00  0.00     0.002 A 
HETATM   27  C   UNL     1      25.957  48.702  49.294  1.00  0.00     0.019 A 
HETATM   28  H   UNL     1      22.274  46.682  49.146  1.00  0.00     0.166 HD
ENDBRANCH   2  17
TORSDOF 4
ENDMDL
