MODEL 1
REMARK VINA RESULT:      -8.9      0.000      0.000
REMARK  9 active torsions:
REMARK  status: ('A' for Active; 'I' for Inactive)
REMARK    1  A    between atoms: C_2  and  N_3 
REMARK    2  A    between atoms: C_4  and  S_5 
REMARK    3  A    between atoms: S_5  and  C_6 
REMARK    4  A    between atoms: C_6  and  C_7 
REMARK       I    between atoms: C_7  and  N_8 
REMARK    5  A    between atoms: N_8  and  C_9 
REMARK    6  A    between atoms: C_9  and  C_10 
REMARK    7  A    between atoms: C_10  and  C_11 
REMARK    8  A    between atoms: C_14  and  O_15 
REMARK    9  A    between atoms: C_22  and  C_23 
ROOT
HETATM    1  S   UNL     1      23.646  46.935  49.104  1.00  0.00    -0.081 SA
ENDROOT
BRANCH   1   2
HETATM    2  C   UNL     1      22.877  48.456  49.388  1.00  0.00     0.192 A 
HETATM    3  N   UNL     1      21.551  48.707  49.156  1.00  0.00    -0.308 N 
HETATM    4  C   UNL     1      21.367  50.040  49.470  1.00  0.00     0.165 A 
HETATM    5  N   UNL     1      22.524  50.537  49.871  1.00  0.00    -0.128 NA
HETATM    6  N   UNL     1      23.467  49.542  49.825  1.00  0.00    -0.122 NA
BRANCH   3   7
HETATM    7  C   UNL     1      20.555  47.787  48.648  1.00  0.00     0.128 C 
HETATM    8  C   UNL     1      20.255  47.998  47.174  1.00  0.00     0.027 C 
ENDBRANCH   3   7
BRANCH   4   9
HETATM    9  C   UNL     1      20.126  50.800  49.313  1.00  0.00     0.018 A 
HETATM   10  C   UNL     1      18.985  50.501  50.089  1.00  0.00    -0.048 A 
HETATM   11  C   UNL     1      18.976  49.369  51.081  1.00  0.00     0.049 C 
HETATM   12  C   UNL     1      17.814  51.255  49.905  1.00  0.00     0.007 A 
HETATM   13  C   UNL     1      17.770  52.291  48.971  1.00  0.00     0.001 A 
HETATM   14  C   UNL     1      18.889  52.575  48.195  1.00  0.00     0.001 A 
HETATM   15  C   UNL     1      20.058  51.828  48.359  1.00  0.00     0.016 A 
ENDBRANCH   4   9
ENDBRANCH   1   2
BRANCH   1  16
HETATM   16  C   UNL     1      25.307  47.292  49.750  1.00  0.00     0.185 C 
BRANCH  16  17
HETATM   17  C   UNL     1      25.416  46.791  51.181  1.00  0.00     0.227 C 
HETATM   18  N   UNL     1      25.717  45.446  51.300  1.00  0.00    -0.360 N 
HETATM   19  H   UNL     1      25.624  44.859  50.480  1.00  0.00     0.162 HD
HETATM   20  O   UNL     1      25.272  47.530  52.154  1.00  0.00    -0.273 OA
BRANCH  18  21
HETATM   21  C   UNL     1      25.740  44.793  52.598  1.00  0.00     0.127 C 
BRANCH  21  22
HETATM   22  C   UNL     1      27.009  43.962  52.795  1.00  0.00     0.058 C 
BRANCH  22  23
HETATM   23  C   UNL     1      27.907  44.563  53.848  1.00  0.00    -0.057 A 
HETATM   24  C   UNL     1      29.021  43.862  54.319  1.00  0.00     0.010 A 
HETATM   25  C   UNL     1      29.822  44.406  55.325  1.00  0.00     0.037 A 
HETATM   26  C   UNL     1      29.524  45.652  55.880  1.00  0.00     0.068 A 
HETATM   27  C   UNL     1      28.417  46.358  55.411  1.00  0.00     0.037 A 
HETATM   28  C   UNL     1      27.612  45.815  54.402  1.00  0.00     0.010 A 
BRANCH  26  29
HETATM   29  O   UNL     1      30.383  46.062  56.863  1.00  0.00    -0.356 OA
HETATM   30  C   UNL     1      30.159  45.545  58.169  1.00  0.00     0.210 C 
ENDBRANCH  26  29
ENDBRANCH  22  23
ENDBRANCH  21  22
ENDBRANCH  18  21
ENDBRANCH  16  17
ENDBRANCH   1  16
TORSDOF 9
ENDMDL
MODEL 2
REMARK VINA RESULT:      -8.9      3.248      4.464
REMARK  9 active torsions:
REMARK  status: ('A' for Active; 'I' for Inactive)
REMARK    1  A    between atoms: C_2  and  N_3 
REMARK    2  A    between atoms: C_4  and  S_5 
REMARK    3  A    between atoms: S_5  and  C_6 
REMARK    4  A    between atoms: C_6  and  C_7 
REMARK       I    between atoms: C_7  and  N_8 
REMARK    5  A    between atoms: N_8  and  C_9 
REMARK    6  A    between atoms: C_9  and  C_10 
REMARK    7  A    between atoms: C_10  and  C_11 
REMARK    8  A    between atoms: C_14  and  O_15 
REMARK    9  A    between atoms: C_22  and  C_23 
ROOT
HETATM    1  S   UNL     1      24.550  43.203  51.076  1.00  0.00    -0.081 SA
ENDROOT
BRANCH   1   2
HETATM    2  C   UNL     1      24.599  44.930  51.045  1.00  0.00     0.192 A 
HETATM    3  N   UNL     1      24.237  45.694  49.968  1.00  0.00    -0.308 N 
HETATM    4  C   UNL     1      24.469  47.002  50.348  1.00  0.00     0.165 A 
HETATM    5  N   UNL     1      24.936  47.000  51.585  1.00  0.00    -0.128 NA
HETATM    6  N   UNL     1      25.011  45.701  52.022  1.00  0.00    -0.122 NA
BRANCH   3   7
HETATM    7  C   UNL     1      23.751  45.235  48.684  1.00  0.00     0.128 C 
HETATM    8  C   UNL     1      22.235  45.179  48.613  1.00  0.00     0.027 C 
ENDBRANCH   3   7
BRANCH   4   9
HETATM    9  C   UNL     1      24.305  48.188  49.506  1.00  0.00     0.018 A 
HETATM   10  C   UNL     1      25.423  48.861  48.968  1.00  0.00    -0.048 A 
HETATM   11  C   UNL     1      26.832  48.418  49.264  1.00  0.00     0.049 C 
HETATM   12  C   UNL     1      25.220  49.996  48.166  1.00  0.00     0.007 A 
HETATM   13  C   UNL     1      23.932  50.459  47.897  1.00  0.00     0.001 A 
HETATM   14  C   UNL     1      22.831  49.806  48.439  1.00  0.00     0.001 A 
HETATM   15  C   UNL     1      23.017  48.682  49.247  1.00  0.00     0.016 A 
ENDBRANCH   4   9
ENDBRANCH   1   2
BRANCH   1  16
HETATM   16  C   UNL     1      26.049  42.824  50.120  1.00  0.00     0.185 C 
BRANCH  16  17
HETATM   17  C   UNL     1      26.977  41.952  50.951  1.00  0.00     0.227 C 
HETATM   18  N   UNL     1      27.037  42.289  52.291  1.00  0.00    -0.360 N 
HETATM   19  H   UNL     1      26.664  43.185  52.578  1.00  0.00     0.162 HD
HETATM   20  O   UNL     1      27.603  41.007  50.474  1.00  0.00    -0.273 OA
BRANCH  18  21
HETATM   21  C   UNL     1      27.965  41.626  53.193  1.00  0.00     0.127 C 
BRANCH  21  22
HETATM   22  C   UNL     1      29.376  42.206  53.088  1.00  0.00     0.058 C 
BRANCH  22  23
HETATM   23  C   UNL     1      29.624  43.254  54.144  1.00  0.00    -0.057 A 
HETATM   24  C   UNL     1      30.673  43.107  55.060  1.00  0.00     0.010 A 
HETATM   25  C   UNL     1      30.869  44.060  56.062  1.00  0.00     0.037 A 
HETATM   26  C   UNL     1      30.025  45.166  56.173  1.00  0.00     0.068 A 
HETATM   27  C   UNL     1      28.982  45.319  55.260  1.00  0.00     0.037 A 
HETATM   28  C   UNL     1      28.782  44.367  54.253  1.00  0.00     0.010 A 
BRANCH  26  29
HETATM   29  O   UNL     1      30.324  46.014  57.204  1.00  0.00    -0.356 OA
HETATM   30  C   UNL     1      30.372  45.446  58.508  1.00  0.00     0.210 C 
ENDBRANCH  26  29
ENDBRANCH  22  23
ENDBRANCH  21  22
ENDBRANCH  18  21
ENDBRANCH  16  17
ENDBRANCH   1  16
TORSDOF 9
ENDMDL
MODEL 3
REMARK VINA RESULT:      -8.7      2.611     11.023
REMARK  9 active torsions:
REMARK  status: ('A' for Active; 'I' for Inactive)
REMARK    1  A    between atoms: C_2  and  N_3 
REMARK    2  A    between atoms: C_4  and  S_5 
REMARK    3  A    between atoms: S_5  and  C_6 
REMARK    4  A    between atoms: C_6  and  C_7 
REMARK       I    between atoms: C_7  and  N_8 
REMARK    5  A    between atoms: N_8  and  C_9 
REMARK    6  A    between atoms: C_9  and  C_10 
REMARK    7  A    between atoms: C_10  and  C_11 
REMARK    8  A    between atoms: C_14  and  O_15 
REMARK    9  A    between atoms: C_22  and  C_23 
ROOT
HETATM    1  S   UNL     1      24.335  44.614  50.814  1.00  0.00    -0.081 SA
ENDROOT
BRANCH   1   2
HETATM    2  C   UNL     1      25.189  44.481  52.310  1.00  0.00     0.192 A 
HETATM    3  N   UNL     1      26.554  44.450  52.421  1.00  0.00    -0.308 N 
HETATM    4  C   UNL     1      26.811  44.291  53.770  1.00  0.00     0.165 A 
HETATM    5  N   UNL     1      25.656  44.241  54.411  1.00  0.00    -0.128 NA
HETATM    6  N   UNL     1      24.641  44.366  53.496  1.00  0.00    -0.122 NA
BRANCH   3   7
HETATM    7  C   UNL     1      27.527  44.524  51.353  1.00  0.00     0.128 C 
HETATM    8  C   UNL     1      27.605  43.245  50.537  1.00  0.00     0.027 C 
ENDBRANCH   3   7
BRANCH   4   9
HETATM    9  C   UNL     1      28.129  44.128  54.383  1.00  0.00     0.018 A 
HETATM   10  C   UNL     1      28.808  42.891  54.336  1.00  0.00    -0.048 A 
HETATM   11  C   UNL     1      28.195  41.677  53.689  1.00  0.00     0.049 C 
HETATM   12  C   UNL     1      30.071  42.777  54.940  1.00  0.00     0.007 A 
HETATM   13  C   UNL     1      30.657  43.870  55.579  1.00  0.00     0.001 A 
HETATM   14  C   UNL     1      29.983  45.084  55.640  1.00  0.00     0.001 A 
HETATM   15  C   UNL     1      28.722  45.210  55.054  1.00  0.00     0.016 A 
ENDBRANCH   4   9
ENDBRANCH   1   2
BRANCH   1  16
HETATM   16  C   UNL     1      24.463  46.405  50.531  1.00  0.00     0.185 C 
BRANCH  16  17
HETATM   17  C   UNL     1      23.468  46.825  49.463  1.00  0.00     0.227 C 
HETATM   18  N   UNL     1      23.060  48.145  49.542  1.00  0.00    -0.360 N 
HETATM   19  H   UNL     1      23.258  48.658  50.392  1.00  0.00     0.162 HD
HETATM   20  O   UNL     1      23.076  46.059  48.584  1.00  0.00    -0.273 OA
BRANCH  18  21
HETATM   21  C   UNL     1      22.026  48.667  48.664  1.00  0.00     0.127 C 
BRANCH  21  22
HETATM   22  C   UNL     1      21.955  50.194  48.710  1.00  0.00     0.058 C 
BRANCH  22  23
HETATM   23  C   UNL     1      20.579  50.673  49.099  1.00  0.00    -0.057 A 
HETATM   24  C   UNL     1      19.767  49.903  49.938  1.00  0.00     0.010 A 
HETATM   25  C   UNL     1      18.477  50.333  50.258  1.00  0.00     0.037 A 
HETATM   26  C   UNL     1      17.976  51.532  49.746  1.00  0.00     0.068 A 
HETATM   27  C   UNL     1      18.783  52.305  48.914  1.00  0.00     0.037 A 
HETATM   28  C   UNL     1      20.077  51.878  48.591  1.00  0.00     0.010 A 
BRANCH  26  29
HETATM   29  O   UNL     1      16.697  51.828  50.131  1.00  0.00    -0.356 OA
HETATM   30  C   UNL     1      16.323  53.200  50.113  1.00  0.00     0.210 C 
ENDBRANCH  26  29
ENDBRANCH  22  23
ENDBRANCH  21  22
ENDBRANCH  18  21
ENDBRANCH  16  17
ENDBRANCH   1  16
TORSDOF 9
ENDMDL
MODEL 4
REMARK VINA RESULT:      -8.7      3.158     11.142
REMARK  9 active torsions:
REMARK  status: ('A' for Active; 'I' for Inactive)
REMARK    1  A    between atoms: C_2  and  N_3 
REMARK    2  A    between atoms: C_4  and  S_5 
REMARK    3  A    between atoms: S_5  and  C_6 
REMARK    4  A    between atoms: C_6  and  C_7 
REMARK       I    between atoms: C_7  and  N_8 
REMARK    5  A    between atoms: N_8  and  C_9 
REMARK    6  A    between atoms: C_9  and  C_10 
REMARK    7  A    between atoms: C_10  and  C_11 
REMARK    8  A    between atoms: C_14  and  O_15 
REMARK    9  A    between atoms: C_22  and  C_23 
ROOT
HETATM    1  S   UNL     1      24.985  47.517  50.066  1.00  0.00    -0.081 SA
ENDROOT
BRANCH   1   2
HETATM    2  C   UNL     1      26.094  46.200  50.218  1.00  0.00     0.192 A 
HETATM    3  N   UNL     1      26.176  45.382  51.313  1.00  0.00    -0.308 N 
HETATM    4  C   UNL     1      27.209  44.505  51.041  1.00  0.00     0.165 A 
HETATM    5  N   UNL     1      27.697  44.793  49.847  1.00  0.00    -0.128 NA
HETATM    6  N   UNL     1      26.993  45.851  49.330  1.00  0.00    -0.122 NA
BRANCH   3   7
HETATM    7  C   UNL     1      25.382  45.443  52.521  1.00  0.00     0.128 C 
HETATM    8  C   UNL     1      25.987  46.351  53.578  1.00  0.00     0.027 C 
ENDBRANCH   3   7
BRANCH   4   9
HETATM    9  C   UNL     1      27.732  43.481  51.946  1.00  0.00     0.018 A 
HETATM   10  C   UNL     1      27.291  42.142  51.866  1.00  0.00    -0.048 A 
HETATM   11  C   UNL     1      26.239  41.714  50.877  1.00  0.00     0.049 C 
HETATM   12  C   UNL     1      27.818  41.192  52.756  1.00  0.00     0.007 A 
HETATM   13  C   UNL     1      28.769  41.556  53.709  1.00  0.00     0.001 A 
HETATM   14  C   UNL     1      29.193  42.877  53.799  1.00  0.00     0.001 A 
HETATM   15  C   UNL     1      28.670  43.837  52.929  1.00  0.00     0.016 A 
ENDBRANCH   4   9
ENDBRANCH   1   2
BRANCH   1  16
HETATM   16  C   UNL     1      26.052  48.739  49.246  1.00  0.00     0.185 C 
BRANCH  16  17
HETATM   17  C   UNL     1      25.208  49.635  48.353  1.00  0.00     0.227 C 
HETATM   18  N   UNL     1      23.887  49.756  48.743  1.00  0.00    -0.360 N 
HETATM   19  H   UNL     1      23.524  49.099  49.422  1.00  0.00     0.162 HD
HETATM   20  O   UNL     1      25.671  50.223  47.377  1.00  0.00    -0.273 OA
BRANCH  18  21
HETATM   21  C   UNL     1      22.926  50.482  47.929  1.00  0.00     0.127 C 
BRANCH  21  22
HETATM   22  C   UNL     1      21.931  51.267  48.784  1.00  0.00     0.058 C 
BRANCH  22  23
HETATM   23  C   UNL     1      20.540  51.219  48.201  1.00  0.00    -0.057 A 
HETATM   24  C   UNL     1      19.548  52.096  48.652  1.00  0.00     0.010 A 
HETATM   25  C   UNL     1      18.252  52.016  48.139  1.00  0.00     0.037 A 
HETATM   26  C   UNL     1      17.922  51.061  47.175  1.00  0.00     0.068 A 
HETATM   27  C   UNL     1      18.909  50.188  46.718  1.00  0.00     0.037 A 
HETATM   28  C   UNL     1      20.210  50.266  47.230  1.00  0.00     0.010 A 
BRANCH  26  29
HETATM   29  O   UNL     1      16.617  51.086  46.767  1.00  0.00    -0.356 OA
HETATM   30  C   UNL     1      15.975  52.355  46.747  1.00  0.00     0.210 C 
ENDBRANCH  26  29
ENDBRANCH  22  23
ENDBRANCH  21  22
ENDBRANCH  18  21
ENDBRANCH  16  17
ENDBRANCH   1  16
TORSDOF 9
ENDMDL
MODEL 5
REMARK VINA RESULT:      -8.6      3.157     10.115
REMARK  9 active torsions:
REMARK  status: ('A' for Active; 'I' for Inactive)
REMARK    1  A    between atoms: C_2  and  N_3 
REMARK    2  A    between atoms: C_4  and  S_5 
REMARK    3  A    between atoms: S_5  and  C_6 
REMARK    4  A    between atoms: C_6  and  C_7 
REMARK       I    between atoms: C_7  and  N_8 
REMARK    5  A    between atoms: N_8  and  C_9 
REMARK    6  A    between atoms: C_9  and  C_10 
REMARK    7  A    between atoms: C_10  and  C_11 
REMARK    8  A    between atoms: C_14  and  O_15 
REMARK    9  A    between atoms: C_22  and  C_23 
ROOT
HETATM    1  S   UNL     1      24.018  44.877  49.013  1.00  0.00    -0.081 SA
ENDROOT
BRANCH   1   2
HETATM    2  C   UNL     1      24.549  44.752  50.653  1.00  0.00     0.192 A 
HETATM    3  N   UNL     1      25.701  45.312  51.137  1.00  0.00    -0.308 N 
HETATM    4  C   UNL     1      25.764  44.936  52.466  1.00  0.00     0.165 A 
HETATM    5  N   UNL     1      24.700  44.201  52.741  1.00  0.00    -0.128 NA
HETATM    6  N   UNL     1      23.937  44.093  51.606  1.00  0.00    -0.122 NA
BRANCH   3   7
HETATM    7  C   UNL     1      26.674  46.098  50.409  1.00  0.00     0.128 C 
HETATM    8  C   UNL     1      26.288  47.563  50.305  1.00  0.00     0.027 C 
ENDBRANCH   3   7
BRANCH   4   9
HETATM    9  C   UNL     1      26.856  45.229  53.395  1.00  0.00     0.018 A 
HETATM   10  C   UNL     1      26.888  46.436  54.125  1.00  0.00    -0.048 A 
HETATM   11  C   UNL     1      25.827  47.492  53.957  1.00  0.00     0.049 C 
HETATM   12  C   UNL     1      27.956  46.678  55.005  1.00  0.00     0.007 A 
HETATM   13  C   UNL     1      28.976  45.740  55.164  1.00  0.00     0.001 A 
HETATM   14  C   UNL     1      28.954  44.558  54.432  1.00  0.00     0.001 A 
HETATM   15  C   UNL     1      27.904  44.307  53.546  1.00  0.00     0.016 A 
ENDBRANCH   4   9
ENDBRANCH   1   2
BRANCH   1  16
HETATM   16  C   UNL     1      22.384  44.093  49.146  1.00  0.00     0.185 C 
BRANCH  16  17
HETATM   17  C   UNL     1      21.299  45.134  48.921  1.00  0.00     0.227 C 
HETATM   18  N   UNL     1      21.768  46.420  48.721  1.00  0.00    -0.360 N 
HETATM   19  H   UNL     1      22.733  46.621  48.952  1.00  0.00     0.162 HD
HETATM   20  O   UNL     1      20.103  44.850  48.895  1.00  0.00    -0.273 OA
BRANCH  18  21
HETATM   21  C   UNL     1      20.854  47.545  48.608  1.00  0.00     0.127 C 
BRANCH  21  22
HETATM   22  C   UNL     1      21.503  48.855  49.056  1.00  0.00     0.058 C 
BRANCH  22  23
HETATM   23  C   UNL     1      20.487  49.963  49.178  1.00  0.00    -0.057 A 
HETATM   24  C   UNL     1      19.324  49.784  49.934  1.00  0.00     0.010 A 
HETATM   25  C   UNL     1      18.368  50.799  50.005  1.00  0.00     0.037 A 
HETATM   26  C   UNL     1      18.552  52.004  49.323  1.00  0.00     0.068 A 
HETATM   27  C   UNL     1      19.711  52.189  48.572  1.00  0.00     0.037 A 
HETATM   28  C   UNL     1      20.673  51.174  48.498  1.00  0.00     0.010 A 
BRANCH  26  29
HETATM   29  O   UNL     1      17.534  52.906  49.471  1.00  0.00    -0.356 OA
HETATM   30  C   UNL     1      16.277  52.393  49.894  1.00  0.00     0.210 C 
ENDBRANCH  26  29
ENDBRANCH  22  23
ENDBRANCH  21  22
ENDBRANCH  18  21
ENDBRANCH  16  17
ENDBRANCH   1  16
TORSDOF 9
ENDMDL
MODEL 6
REMARK VINA RESULT:      -8.4      3.125      9.987
REMARK  9 active torsions:
REMARK  status: ('A' for Active; 'I' for Inactive)
REMARK    1  A    between atoms: C_2  and  N_3 
REMARK    2  A    between atoms: C_4  and  S_5 
REMARK    3  A    between atoms: S_5  and  C_6 
REMARK    4  A    between atoms: C_6  and  C_7 
REMARK       I    between atoms: C_7  and  N_8 
REMARK    5  A    between atoms: N_8  and  C_9 
REMARK    6  A    between atoms: C_9  and  C_10 
REMARK    7  A    between atoms: C_10  and  C_11 
REMARK    8  A    between atoms: C_14  and  O_15 
REMARK    9  A    between atoms: C_22  and  C_23 
ROOT
HETATM    1  S   UNL     1      24.106  44.847  48.775  1.00  0.00    -0.081 SA
ENDROOT
BRANCH   1   2
HETATM    2  C   UNL     1      24.496  44.923  50.457  1.00  0.00     0.192 A 
HETATM    3  N   UNL     1      25.589  45.572  50.968  1.00  0.00    -0.308 N 
HETATM    4  C   UNL     1      25.546  45.347  52.331  1.00  0.00     0.165 A 
HETATM    5  N   UNL     1      24.480  44.613  52.600  1.00  0.00    -0.128 NA
HETATM    6  N   UNL     1      23.821  44.354  51.425  1.00  0.00    -0.122 NA
BRANCH   3   7
HETATM    7  C   UNL     1      26.602  46.304  50.239  1.00  0.00     0.128 C 
HETATM    8  C   UNL     1      26.314  47.793  50.166  1.00  0.00     0.027 C 
ENDBRANCH   3   7
BRANCH   4   9
HETATM    9  C   UNL     1      26.547  45.778  53.308  1.00  0.00     0.018 A 
HETATM   10  C   UNL     1      27.581  44.911  53.725  1.00  0.00    -0.048 A 
HETATM   11  C   UNL     1      27.680  43.497  53.216  1.00  0.00     0.049 C 
HETATM   12  C   UNL     1      28.519  45.364  54.666  1.00  0.00     0.007 A 
HETATM   13  C   UNL     1      28.441  46.656  55.187  1.00  0.00     0.001 A 
HETATM   14  C   UNL     1      27.415  47.505  54.790  1.00  0.00     0.001 A 
HETATM   15  C   UNL     1      26.467  47.066  53.862  1.00  0.00     0.016 A 
ENDBRANCH   4   9
ENDBRANCH   1   2
BRANCH   1  16
HETATM   16  C   UNL     1      22.458  45.614  48.795  1.00  0.00     0.185 C 
BRANCH  16  17
HETATM   17  C   UNL     1      22.510  46.952  48.075  1.00  0.00     0.227 C 
HETATM   18  N   UNL     1      23.117  47.968  48.791  1.00  0.00    -0.360 N 
HETATM   19  H   UNL     1      23.275  47.830  49.781  1.00  0.00     0.162 HD
HETATM   20  O   UNL     1      22.068  47.110  46.938  1.00  0.00    -0.273 OA
BRANCH  18  21
HETATM   21  C   UNL     1      23.142  49.332  48.288  1.00  0.00     0.127 C 
BRANCH  21  22
HETATM   22  C   UNL     1      22.648  50.334  49.332  1.00  0.00     0.058 C 
BRANCH  22  23
HETATM   23  C   UNL     1      21.211  50.722  49.092  1.00  0.00    -0.057 A 
HETATM   24  C   UNL     1      20.665  50.672  47.805  1.00  0.00     0.010 A 
HETATM   25  C   UNL     1      19.346  51.075  47.584  1.00  0.00     0.037 A 
HETATM   26  C   UNL     1      18.554  51.538  48.636  1.00  0.00     0.068 A 
HETATM   27  C   UNL     1      19.092  51.586  49.921  1.00  0.00     0.037 A 
HETATM   28  C   UNL     1      20.413  51.182  50.147  1.00  0.00     0.010 A 
BRANCH  26  29
HETATM   29  O   UNL     1      17.287  51.910  48.278  1.00  0.00    -0.356 OA
HETATM   30  C   UNL     1      16.303  51.905  49.304  1.00  0.00     0.210 C 
ENDBRANCH  26  29
ENDBRANCH  22  23
ENDBRANCH  21  22
ENDBRANCH  18  21
ENDBRANCH  16  17
ENDBRANCH   1  16
TORSDOF 9
ENDMDL
MODEL 7
REMARK VINA RESULT:      -8.3      1.533      2.283
REMARK  9 active torsions:
REMARK  status: ('A' for Active; 'I' for Inactive)
REMARK    1  A    between atoms: C_2  and  N_3 
REMARK    2  A    between atoms: C_4  and  S_5 
REMARK    3  A    between atoms: S_5  and  C_6 
REMARK    4  A    between atoms: C_6  and  C_7 
REMARK       I    between atoms: C_7  and  N_8 
REMARK    5  A    between atoms: N_8  and  C_9 
REMARK    6  A    between atoms: C_9  and  C_10 
REMARK    7  A    between atoms: C_10  and  C_11 
REMARK    8  A    between atoms: C_14  and  O_15 
REMARK    9  A    between atoms: C_22  and  C_23 
ROOT
HETATM    1  S   UNL     1      24.010  46.987  49.341  1.00  0.00    -0.081 SA
ENDROOT
BRANCH   1   2
HETATM    2  C   UNL     1      22.446  47.632  48.989  1.00  0.00     0.192 A 
HETATM    3  N   UNL     1      22.094  48.944  49.160  1.00  0.00    -0.308 N 
HETATM    4  C   UNL     1      20.760  49.018  48.808  1.00  0.00     0.165 A 
HETATM    5  N   UNL     1      20.358  47.812  48.445  1.00  0.00    -0.128 NA
HETATM    6  N   UNL     1      21.417  46.946  48.553  1.00  0.00    -0.122 NA
BRANCH   3   7
HETATM    7  C   UNL     1      22.927  50.024  49.646  1.00  0.00     0.128 C 
HETATM    8  C   UNL     1      23.595  50.802  48.526  1.00  0.00     0.027 C 
ENDBRANCH   3   7
BRANCH   4   9
HETATM    9  C   UNL     1      19.909  50.205  48.895  1.00  0.00     0.018 A 
HETATM   10  C   UNL     1      18.995  50.371  49.958  1.00  0.00    -0.048 A 
HETATM   11  C   UNL     1      18.825  49.324  51.027  1.00  0.00     0.049 C 
HETATM   12  C   UNL     1      18.196  51.526  50.002  1.00  0.00     0.007 A 
HETATM   13  C   UNL     1      18.299  52.503  49.013  1.00  0.00     0.001 A 
HETATM   14  C   UNL     1      19.187  52.333  47.956  1.00  0.00     0.001 A 
HETATM   15  C   UNL     1      19.981  51.186  47.893  1.00  0.00     0.016 A 
ENDBRANCH   4   9
ENDBRANCH   1   2
BRANCH   1  16
HETATM   16  C   UNL     1      23.599  45.224  49.505  1.00  0.00     0.185 C 
BRANCH  16  17
HETATM   17  C   UNL     1      24.382  44.624  50.662  1.00  0.00     0.227 C 
HETATM   18  N   UNL     1      25.400  43.767  50.285  1.00  0.00    -0.360 N 
HETATM   19  H   UNL     1      25.415  43.429  49.331  1.00  0.00     0.162 HD
HETATM   20  O   UNL     1      24.144  44.899  51.837  1.00  0.00    -0.273 OA
BRANCH  18  21
HETATM   21  C   UNL     1      26.163  43.025  51.275  1.00  0.00     0.127 C 
BRANCH  21  22
HETATM   22  C   UNL     1      27.670  43.209  51.090  1.00  0.00     0.058 C 
BRANCH  22  23
HETATM   23  C   UNL     1      28.366  43.440  52.408  1.00  0.00    -0.057 A 
HETATM   24  C   UNL     1      27.840  44.337  53.344  1.00  0.00     0.010 A 
HETATM   25  C   UNL     1      28.514  44.578  54.543  1.00  0.00     0.037 A 
HETATM   26  C   UNL     1      29.721  43.937  54.826  1.00  0.00     0.068 A 
HETATM   27  C   UNL     1      30.247  43.039  53.899  1.00  0.00     0.037 A 
HETATM   28  C   UNL     1      29.575  42.794  52.696  1.00  0.00     0.010 A 
BRANCH  26  29
HETATM   29  O   UNL     1      30.279  44.273  56.030  1.00  0.00    -0.356 OA
HETATM   30  C   UNL     1      30.177  45.634  56.427  1.00  0.00     0.210 C 
ENDBRANCH  26  29
ENDBRANCH  22  23
ENDBRANCH  21  22
ENDBRANCH  18  21
ENDBRANCH  16  17
ENDBRANCH   1  16
TORSDOF 9
ENDMDL
MODEL 8
REMARK VINA RESULT:      -8.1      3.243     10.646
REMARK  9 active torsions:
REMARK  status: ('A' for Active; 'I' for Inactive)
REMARK    1  A    between atoms: C_2  and  N_3 
REMARK    2  A    between atoms: C_4  and  S_5 
REMARK    3  A    between atoms: S_5  and  C_6 
REMARK    4  A    between atoms: C_6  and  C_7 
REMARK       I    between atoms: C_7  and  N_8 
REMARK    5  A    between atoms: N_8  and  C_9 
REMARK    6  A    between atoms: C_9  and  C_10 
REMARK    7  A    between atoms: C_10  and  C_11 
REMARK    8  A    between atoms: C_14  and  O_15 
REMARK    9  A    between atoms: C_22  and  C_23 
ROOT
HETATM    1  S   UNL     1      24.455  43.397  48.716  1.00  0.00    -0.081 SA
ENDROOT
BRANCH   1   2
HETATM    2  C   UNL     1      25.873  43.895  49.569  1.00  0.00     0.192 A 
HETATM    3  N   UNL     1      26.354  43.279  50.692  1.00  0.00    -0.308 N 
HETATM    4  C   UNL     1      27.461  44.014  51.071  1.00  0.00     0.165 A 
HETATM    5  N   UNL     1      27.620  45.002  50.207  1.00  0.00    -0.128 NA
HETATM    6  N   UNL     1      26.627  44.922  49.263  1.00  0.00    -0.122 NA
BRANCH   3   7
HETATM    7  C   UNL     1      25.802  42.126  51.372  1.00  0.00     0.128 C 
HETATM    8  C   UNL     1      26.383  40.814  50.872  1.00  0.00     0.027 C 
ENDBRANCH   3   7
BRANCH   4   9
HETATM    9  C   UNL     1      28.278  43.792  52.265  1.00  0.00     0.018 A 
HETATM   10  C   UNL     1      27.960  44.413  53.492  1.00  0.00    -0.048 A 
HETATM   11  C   UNL     1      26.795  45.359  53.622  1.00  0.00     0.049 C 
HETATM   12  C   UNL     1      28.772  44.174  54.613  1.00  0.00     0.007 A 
HETATM   13  C   UNL     1      29.880  43.332  54.525  1.00  0.00     0.001 A 
HETATM   14  C   UNL     1      30.204  42.733  53.313  1.00  0.00     0.001 A 
HETATM   15  C   UNL     1      29.412  42.968  52.187  1.00  0.00     0.016 A 
ENDBRANCH   4   9
ENDBRANCH   1   2
BRANCH   1  16
HETATM   16  C   UNL     1      23.216  44.472  49.501  1.00  0.00     0.185 C 
BRANCH  16  17
HETATM   17  C   UNL     1      22.856  45.608  48.558  1.00  0.00     0.227 C 
HETATM   18  N   UNL     1      22.810  46.857  49.152  1.00  0.00    -0.360 N 
HETATM   19  H   UNL     1      22.792  46.907  50.163  1.00  0.00     0.162 HD
HETATM   20  O   UNL     1      22.647  45.433  47.359  1.00  0.00    -0.273 OA
BRANCH  18  21
HETATM   21  C   UNL     1      22.367  48.026  48.411  1.00  0.00     0.127 C 
BRANCH  21  22
HETATM   22  C   UNL     1      22.352  49.282  49.283  1.00  0.00     0.058 C 
BRANCH  22  23
HETATM   23  C   UNL     1      21.043  50.022  49.167  1.00  0.00    -0.057 A 
HETATM   24  C   UNL     1      19.843  49.410  49.547  1.00  0.00     0.010 A 
HETATM   25  C   UNL     1      18.631  50.086  49.396  1.00  0.00     0.037 A 
HETATM   26  C   UNL     1      18.592  51.375  48.861  1.00  0.00     0.068 A 
HETATM   27  C   UNL     1      19.785  51.990  48.485  1.00  0.00     0.037 A 
HETATM   28  C   UNL     1      21.003  51.317  48.636  1.00  0.00     0.010 A 
BRANCH  26  29
HETATM   29  O   UNL     1      17.339  51.915  48.759  1.00  0.00    -0.356 OA
HETATM   30  C   UNL     1      16.821  52.559  49.916  1.00  0.00     0.210 C 
ENDBRANCH  26  29
ENDBRANCH  22  23
ENDBRANCH  21  22
ENDBRANCH  18  21
ENDBRANCH  16  17
ENDBRANCH   1  16
TORSDOF 9
ENDMDL
MODEL 9
REMARK VINA RESULT:      -8.0      3.269     11.242
REMARK  9 active torsions:
REMARK  status: ('A' for Active; 'I' for Inactive)
REMARK    1  A    between atoms: C_2  and  N_3 
REMARK    2  A    between atoms: C_4  and  S_5 
REMARK    3  A    between atoms: S_5  and  C_6 
REMARK    4  A    between atoms: C_6  and  C_7 
REMARK       I    between atoms: C_7  and  N_8 
REMARK    5  A    between atoms: N_8  and  C_9 
REMARK    6  A    between atoms: C_9  and  C_10 
REMARK    7  A    between atoms: C_10  and  C_11 
REMARK    8  A    between atoms: C_14  and  O_15 
REMARK    9  A    between atoms: C_22  and  C_23 
ROOT
HETATM    1  S   UNL     1      24.433  47.126  50.423  1.00  0.00    -0.081 SA
ENDROOT
BRANCH   1   2
HETATM    2  C   UNL     1      25.765  46.027  50.374  1.00  0.00     0.192 A 
HETATM    3  N   UNL     1      26.005  45.061  51.315  1.00  0.00    -0.308 N 
HETATM    4  C   UNL     1      27.179  44.447  50.922  1.00  0.00     0.165 A 
HETATM    5  N   UNL     1      27.596  45.020  49.806  1.00  0.00    -0.128 NA
HETATM    6  N   UNL     1      26.705  46.006  49.461  1.00  0.00    -0.122 NA
BRANCH   3   7
HETATM    7  C   UNL     1      25.223  44.767  52.497  1.00  0.00     0.128 C 
HETATM    8  C   UNL     1      25.664  45.569  53.709  1.00  0.00     0.027 C 
ENDBRANCH   3   7
BRANCH   4   9
HETATM    9  C   UNL     1      27.888  43.395  51.650  1.00  0.00     0.018 A 
HETATM   10  C   UNL     1      27.608  42.031  51.418  1.00  0.00    -0.048 A 
HETATM   11  C   UNL     1      26.545  41.595  50.444  1.00  0.00     0.049 C 
HETATM   12  C   UNL     1      28.311  41.053  52.141  1.00  0.00     0.007 A 
HETATM   13  C   UNL     1      29.279  41.416  53.078  1.00  0.00     0.001 A 
HETATM   14  C   UNL     1      29.545  42.759  53.318  1.00  0.00     0.001 A 
HETATM   15  C   UNL     1      28.847  43.744  52.615  1.00  0.00     0.016 A 
ENDBRANCH   4   9
ENDBRANCH   1   2
BRANCH   1  16
HETATM   16  C   UNL     1      23.518  46.586  48.948  1.00  0.00     0.185 C 
BRANCH  16  17
HETATM   17  C   UNL     1      22.563  47.685  48.510  1.00  0.00     0.227 C 
HETATM   18  N   UNL     1      22.072  48.466  49.540  1.00  0.00    -0.360 N 
HETATM   19  H   UNL     1      22.187  48.136  50.490  1.00  0.00     0.162 HD
HETATM   20  O   UNL     1      22.271  47.878  47.331  1.00  0.00    -0.273 OA
BRANCH  18  21
HETATM   21  C   UNL     1      21.060  49.481  49.298  1.00  0.00     0.127 C 
BRANCH  21  22
HETATM   22  C   UNL     1      19.675  49.029  49.763  1.00  0.00     0.058 C 
BRANCH  22  23
HETATM   23  C   UNL     1      18.643  50.111  49.563  1.00  0.00    -0.057 A 
HETATM   24  C   UNL     1      17.393  49.809  49.012  1.00  0.00     0.010 A 
HETATM   25  C   UNL     1      16.459  50.823  48.789  1.00  0.00     0.037 A 
HETATM   26  C   UNL     1      16.756  52.150  49.105  1.00  0.00     0.068 A 
HETATM   27  C   UNL     1      17.999  52.455  49.659  1.00  0.00     0.037 A 
HETATM   28  C   UNL     1      18.937  51.442  49.884  1.00  0.00     0.010 A 
BRANCH  26  29
HETATM   29  O   UNL     1      15.757  53.043  48.827  1.00  0.00    -0.356 OA
HETATM   30  C   UNL     1      14.703  53.143  49.776  1.00  0.00     0.210 C 
ENDBRANCH  26  29
ENDBRANCH  22  23
ENDBRANCH  21  22
ENDBRANCH  18  21
ENDBRANCH  16  17
ENDBRANCH   1  16
TORSDOF 9
ENDMDL
MODEL 10
REMARK VINA RESULT:      -7.9      1.953      2.618
REMARK  9 active torsions:
REMARK  status: ('A' for Active; 'I' for Inactive)
REMARK    1  A    between atoms: C_2  and  N_3 
REMARK    2  A    between atoms: C_4  and  S_5 
REMARK    3  A    between atoms: S_5  and  C_6 
REMARK    4  A    between atoms: C_6  and  C_7 
REMARK       I    between atoms: C_7  and  N_8 
REMARK    5  A    between atoms: N_8  and  C_9 
REMARK    6  A    between atoms: C_9  and  C_10 
REMARK    7  A    between atoms: C_10  and  C_11 
REMARK    8  A    between atoms: C_14  and  O_15 
REMARK    9  A    between atoms: C_22  and  C_23 
ROOT
HETATM    1  S   UNL     1      21.307  45.187  48.544  1.00  0.00    -0.081 SA
ENDROOT
BRANCH   1   2
HETATM    2  C   UNL     1      21.317  46.863  48.125  1.00  0.00     0.192 A 
HETATM    3  N   UNL     1      20.270  47.719  48.337  1.00  0.00    -0.308 N 
HETATM    4  C   UNL     1      20.676  48.935  47.820  1.00  0.00     0.165 A 
HETATM    5  N   UNL     1      21.899  48.795  47.339  1.00  0.00    -0.128 NA
HETATM    6  N   UNL     1      22.302  47.498  47.536  1.00  0.00    -0.122 NA
BRANCH   3   7
HETATM    7  C   UNL     1      18.988  47.414  48.937  1.00  0.00     0.128 C 
HETATM    8  C   UNL     1      18.755  48.158  50.240  1.00  0.00     0.027 C 
ENDBRANCH   3   7
BRANCH   4   9
HETATM    9  C   UNL     1      19.868  50.153  47.742  1.00  0.00     0.018 A 
HETATM   10  C   UNL     1      18.879  50.310  46.748  1.00  0.00    -0.048 A 
HETATM   11  C   UNL     1      18.634  49.255  45.701  1.00  0.00     0.049 C 
HETATM   12  C   UNL     1      18.127  51.496  46.708  1.00  0.00     0.007 A 
HETATM   13  C   UNL     1      18.347  52.511  47.639  1.00  0.00     0.001 A 
HETATM   14  C   UNL     1      19.332  52.364  48.609  1.00  0.00     0.001 A 
HETATM   15  C   UNL     1      20.095  51.195  48.655  1.00  0.00     0.016 A 
ENDBRANCH   4   9
ENDBRANCH   1   2
BRANCH   1  16
HETATM   16  C   UNL     1      23.093  44.888  48.706  1.00  0.00     0.185 C 
BRANCH  16  17
HETATM   17  C   UNL     1      23.414  44.479  50.134  1.00  0.00     0.227 C 
HETATM   18  N   UNL     1      24.305  45.314  50.786  1.00  0.00    -0.360 N 
HETATM   19  H   UNL     1      24.836  45.974  50.232  1.00  0.00     0.162 HD
HETATM   20  O   UNL     1      22.904  43.499  50.674  1.00  0.00    -0.273 OA
BRANCH  18  21
HETATM   21  C   UNL     1      24.801  44.995  52.114  1.00  0.00     0.127 C 
BRANCH  21  22
HETATM   22  C   UNL     1      26.229  44.450  52.074  1.00  0.00     0.058 C 
BRANCH  22  23
HETATM   23  C   UNL     1      27.021  44.882  53.283  1.00  0.00    -0.057 A 
HETATM   24  C   UNL     1      26.769  46.114  53.896  1.00  0.00     0.010 A 
HETATM   25  C   UNL     1      27.537  46.527  54.987  1.00  0.00     0.037 A 
HETATM   26  C   UNL     1      28.567  45.724  55.481  1.00  0.00     0.068 A 
HETATM   27  C   UNL     1      28.819  44.494  54.876  1.00  0.00     0.037 A 
HETATM   28  C   UNL     1      28.052  44.076  53.782  1.00  0.00     0.010 A 
BRANCH  26  29
HETATM   29  O   UNL     1      29.245  46.253  56.545  1.00  0.00    -0.356 OA
HETATM   30  C   UNL     1      30.437  45.587  56.942  1.00  0.00     0.210 C 
ENDBRANCH  26  29
ENDBRANCH  22  23
ENDBRANCH  21  22
ENDBRANCH  18  21
ENDBRANCH  16  17
ENDBRANCH   1  16
TORSDOF 9
ENDMDL
