MODEL 1
REMARK VINA RESULT:      -9.6      0.000      0.000
REMARK  7 active torsions:
REMARK  status: ('A' for Active; 'I' for Inactive)
REMARK    1  A    between atoms: C_4  and  C_5 
REMARK    2  A    between atoms: C_5  and  N_6 
REMARK       I    between atoms: N_6  and  C_7 
REMARK    3  A    between atoms: N_6  and  C_18 
REMARK       I    between atoms: C_7  and  N_8 
REMARK    4  A    between atoms: N_8  and  C_9 
REMARK    5  A    between atoms: C_10  and  O_11 
REMARK    6  A    between atoms: N_21  and  C_23 
REMARK    7  A    between atoms: C_23  and  C_24 
ROOT
HETATM    1  N   UNL     1      25.384  45.326  51.827  1.00  0.00    -0.323 N 
HETATM    2  C   UNL     1      25.279  46.679  51.423  1.00  0.00     0.323 C 
HETATM    3  N   UNL     1      25.484  46.918  50.084  1.00  0.00    -0.306 N 
HETATM    4  O   UNL     1      24.999  47.527  52.263  1.00  0.00    -0.247 OA
HETATM    5  H   UNL     1      25.551  46.128  49.472  1.00  0.00     0.171 HD
ENDROOT
BRANCH   1   6
HETATM    6  C   UNL     1      25.518  44.206  50.888  1.00  0.00     0.193 C 
BRANCH   6   7
HETATM    7  C   UNL     1      24.299  44.069  50.058  1.00  0.00     0.071 A 
HETATM    8  O   UNL     1      24.460  44.269  48.717  1.00  0.00    -0.318 OA
HETATM    9  C   UNL     1      23.235  44.114  48.139  1.00  0.00     0.049 A 
HETATM   10  C   UNL     1      23.153  44.306  46.676  1.00  0.00     0.076 C 
HETATM   11  C   UNL     1      22.294  43.810  49.098  1.00  0.00     0.035 A 
HETATM   12  C   UNL     1      22.979  43.781  50.336  1.00  0.00     0.037 A 
ENDBRANCH   6   7
ENDBRANCH   1   6
BRANCH   1  13
HETATM   13  C   UNL     1      25.367  45.096  53.304  1.00  0.00     0.092 C 
HETATM   14  C   UNL     1      26.087  46.094  54.222  1.00  0.00     0.053 C 
HETATM   15  C   UNL     1      27.595  45.919  54.342  1.00  0.00     0.237 C 
HETATM   16  N   UNL     1      27.975  44.474  54.572  1.00  0.00    -0.067 N 
HETATM   17  H   UNL     1      27.687  44.243  55.531  1.00  0.00     0.280 HD
HETATM   18  C   UNL     1      27.296  43.503  53.634  1.00  0.00     0.237 C 
HETATM   19  C   UNL     1      25.795  43.672  53.683  1.00  0.00     0.053 C 
BRANCH  16  20
HETATM   20  C   UNL     1      29.480  44.246  54.522  1.00  0.00     0.273 C 
BRANCH  20  21
HETATM   21  C   UNL     1      30.190  44.389  55.837  1.00  0.00    -0.033 A 
HETATM   22  C   UNL     1      29.936  45.481  56.680  1.00  0.00     0.009 A 
HETATM   23  C   UNL     1      30.606  45.598  57.899  1.00  0.00     0.001 A 
HETATM   24  C   UNL     1      31.536  44.633  58.284  1.00  0.00     0.000 A 
HETATM   25  C   UNL     1      31.799  43.547  57.454  1.00  0.00     0.001 A 
HETATM   26  C   UNL     1      31.131  43.424  56.237  1.00  0.00     0.009 A 
ENDBRANCH  20  21
ENDBRANCH  16  20
ENDBRANCH   1  13
BRANCH   3  27
HETATM   27  C   UNL     1      25.472  48.147  49.371  1.00  0.00     0.069 A 
HETATM   28  C   UNL     1      24.356  48.841  48.885  1.00  0.00     0.095 A 
HETATM   29  C   UNL     1      24.518  50.021  48.142  1.00  0.00     0.039 A 
HETATM   30  C   UNL     1      25.784  50.555  47.923  1.00  0.00     0.003 A 
HETATM   31  C   UNL     1      26.898  49.911  48.445  1.00  0.00     0.002 A 
HETATM   32  C   UNL     1      26.742  48.721  49.163  1.00  0.00     0.032 A 
BRANCH  28  33
HETATM   33  O   UNL     1      23.063  48.452  49.092  1.00  0.00    -0.354 OA
HETATM   34  C   UNL     1      22.229  49.590  49.307  1.00  0.00     0.210 C 
ENDBRANCH  28  33
ENDBRANCH   3  27
TORSDOF 7
ENDMDL
MODEL 2
REMARK VINA RESULT:      -9.6      1.979      3.710
REMARK  7 active torsions:
REMARK  status: ('A' for Active; 'I' for Inactive)
REMARK    1  A    between atoms: C_4  and  C_5 
REMARK    2  A    between atoms: C_5  and  N_6 
REMARK       I    between atoms: N_6  and  C_7 
REMARK    3  A    between atoms: N_6  and  C_18 
REMARK       I    between atoms: C_7  and  N_8 
REMARK    4  A    between atoms: N_8  and  C_9 
REMARK    5  A    between atoms: C_10  and  O_11 
REMARK    6  A    between atoms: N_21  and  C_23 
REMARK    7  A    between atoms: C_23  and  C_24 
ROOT
HETATM    1  N   UNL     1      24.124  46.674  49.661  1.00  0.00    -0.323 N 
HETATM    2  C   UNL     1      23.538  47.960  49.577  1.00  0.00     0.323 C 
HETATM    3  N   UNL     1      22.186  47.984  49.321  1.00  0.00    -0.306 N 
HETATM    4  O   UNL     1      24.247  48.945  49.751  1.00  0.00    -0.247 OA
HETATM    5  H   UNL     1      21.689  47.115  49.352  1.00  0.00     0.171 HD
ENDROOT
BRANCH   1   6
HETATM    6  C   UNL     1      23.349  45.427  49.666  1.00  0.00     0.193 C 
BRANCH   6   7
HETATM    7  C   UNL     1      23.167  44.916  48.288  1.00  0.00     0.071 A 
HETATM    8  O   UNL     1      22.352  45.652  47.476  1.00  0.00    -0.318 OA
HETATM    9  C   UNL     1      22.305  45.014  46.272  1.00  0.00     0.049 A 
HETATM   10  C   UNL     1      21.457  45.620  45.224  1.00  0.00     0.076 C 
HETATM   11  C   UNL     1      23.088  43.881  46.305  1.00  0.00     0.035 A 
HETATM   12  C   UNL     1      23.644  43.817  47.605  1.00  0.00     0.037 A 
ENDBRANCH   6   7
ENDBRANCH   1   6
BRANCH   1  13
HETATM   13  C   UNL     1      25.616  46.653  49.731  1.00  0.00     0.092 C 
HETATM   14  C   UNL     1      26.352  45.315  49.568  1.00  0.00     0.053 C 
HETATM   15  C   UNL     1      26.410  44.433  50.807  1.00  0.00     0.237 C 
HETATM   16  N   UNL     1      26.809  45.218  52.036  1.00  0.00    -0.067 N 
HETATM   17  H   UNL     1      27.805  45.448  51.928  1.00  0.00     0.280 HD
HETATM   18  C   UNL     1      26.048  46.511  52.213  1.00  0.00     0.237 C 
HETATM   19  C   UNL     1      26.157  47.371  50.975  1.00  0.00     0.053 C 
BRANCH  16  20
HETATM   20  C   UNL     1      26.705  44.400  53.317  1.00  0.00     0.273 C 
BRANCH  20  21
HETATM   21  C   UNL     1      27.979  44.285  54.104  1.00  0.00    -0.033 A 
HETATM   22  C   UNL     1      28.376  45.299  54.988  1.00  0.00     0.009 A 
HETATM   23  C   UNL     1      29.562  45.175  55.712  1.00  0.00     0.001 A 
HETATM   24  C   UNL     1      30.363  44.045  55.558  1.00  0.00     0.000 A 
HETATM   25  C   UNL     1      29.981  43.033  54.681  1.00  0.00     0.001 A 
HETATM   26  C   UNL     1      28.796  43.150  53.959  1.00  0.00     0.009 A 
ENDBRANCH  20  21
ENDBRANCH  16  20
ENDBRANCH   1  13
BRANCH   3  27
HETATM   27  C   UNL     1      21.315  49.093  49.156  1.00  0.00     0.069 A 
HETATM   28  C   UNL     1      19.955  49.168  49.486  1.00  0.00     0.095 A 
HETATM   29  C   UNL     1      19.215  50.326  49.201  1.00  0.00     0.039 A 
HETATM   30  C   UNL     1      19.828  51.442  48.641  1.00  0.00     0.003 A 
HETATM   31  C   UNL     1      21.188  51.407  48.359  1.00  0.00     0.002 A 
HETATM   32  C   UNL     1      21.922  50.245  48.616  1.00  0.00     0.032 A 
BRANCH  28  33
HETATM   33  O   UNL     1      19.260  48.164  50.097  1.00  0.00    -0.354 OA
HETATM   34  C   UNL     1      18.589  48.657  51.256  1.00  0.00     0.210 C 
ENDBRANCH  28  33
ENDBRANCH   3  27
TORSDOF 7
ENDMDL
MODEL 3
REMARK VINA RESULT:      -9.4      2.135      4.848
REMARK  7 active torsions:
REMARK  status: ('A' for Active; 'I' for Inactive)
REMARK    1  A    between atoms: C_4  and  C_5 
REMARK    2  A    between atoms: C_5  and  N_6 
REMARK       I    between atoms: N_6  and  C_7 
REMARK    3  A    between atoms: N_6  and  C_18 
REMARK       I    between atoms: C_7  and  N_8 
REMARK    4  A    between atoms: N_8  and  C_9 
REMARK    5  A    between atoms: C_10  and  O_11 
REMARK    6  A    between atoms: N_21  and  C_23 
REMARK    7  A    between atoms: C_23  and  C_24 
ROOT
HETATM    1  N   UNL     1      24.511  45.760  49.620  1.00  0.00    -0.323 N 
HETATM    2  C   UNL     1      23.355  45.541  48.833  1.00  0.00     0.323 C 
HETATM    3  N   UNL     1      22.317  46.420  49.041  1.00  0.00    -0.306 N 
HETATM    4  O   UNL     1      23.356  44.620  48.023  1.00  0.00    -0.247 OA
HETATM    5  H   UNL     1      22.492  47.222  49.616  1.00  0.00     0.171 HD
ENDROOT
BRANCH   1   6
HETATM    6  C   UNL     1      24.701  46.938  50.474  1.00  0.00     0.193 C 
BRANCH   6   7
HETATM    7  C   UNL     1      25.066  48.122  49.661  1.00  0.00     0.071 A 
HETATM    8  O   UNL     1      24.038  48.946  49.305  1.00  0.00    -0.318 OA
HETATM    9  C   UNL     1      24.574  49.954  48.559  1.00  0.00     0.049 A 
HETATM   10  C   UNL     1      23.639  50.972  48.037  1.00  0.00     0.076 C 
HETATM   11  C   UNL     1      25.936  49.784  48.442  1.00  0.00     0.035 A 
HETATM   12  C   UNL     1      26.255  48.603  49.152  1.00  0.00     0.037 A 
ENDBRANCH   6   7
ENDBRANCH   1   6
BRANCH   1  13
HETATM   13  C   UNL     1      25.550  44.688  49.543  1.00  0.00     0.092 C 
HETATM   14  C   UNL     1      25.213  43.285  50.067  1.00  0.00     0.053 C 
HETATM   15  C   UNL     1      25.314  43.095  51.574  1.00  0.00     0.237 C 
HETATM   16  N   UNL     1      26.595  43.676  52.127  1.00  0.00    -0.067 N 
HETATM   17  H   UNL     1      27.357  43.061  51.814  1.00  0.00     0.280 HD
HETATM   18  C   UNL     1      26.896  45.075  51.642  1.00  0.00     0.237 C 
HETATM   19  C   UNL     1      26.897  45.130  50.132  1.00  0.00     0.053 C 
BRANCH  16  20
HETATM   20  C   UNL     1      26.642  43.657  53.649  1.00  0.00     0.273 C 
BRANCH  20  21
HETATM   21  C   UNL     1      28.012  43.798  54.247  1.00  0.00    -0.033 A 
HETATM   22  C   UNL     1      29.009  42.842  54.002  1.00  0.00     0.009 A 
HETATM   23  C   UNL     1      30.277  42.990  54.565  1.00  0.00     0.001 A 
HETATM   24  C   UNL     1      30.560  44.085  55.380  1.00  0.00     0.000 A 
HETATM   25  C   UNL     1      29.577  45.038  55.633  1.00  0.00     0.001 A 
HETATM   26  C   UNL     1      28.310  44.897  55.071  1.00  0.00     0.009 A 
ENDBRANCH  20  21
ENDBRANCH  16  20
ENDBRANCH   1  13
BRANCH   3  27
HETATM   27  C   UNL     1      21.031  46.462  48.440  1.00  0.00     0.069 A 
HETATM   28  C   UNL     1      20.451  47.526  47.737  1.00  0.00     0.095 A 
HETATM   29  C   UNL     1      19.137  47.430  47.253  1.00  0.00     0.039 A 
HETATM   30  C   UNL     1      18.405  46.256  47.411  1.00  0.00     0.003 A 
HETATM   31  C   UNL     1      18.984  45.171  48.057  1.00  0.00     0.002 A 
HETATM   32  C   UNL     1      20.283  45.273  48.564  1.00  0.00     0.032 A 
BRANCH  28  33
HETATM   33  O   UNL     1      21.092  48.700  47.462  1.00  0.00    -0.354 OA
HETATM   34  C   UNL     1      20.155  49.775  47.397  1.00  0.00     0.210 C 
ENDBRANCH  28  33
ENDBRANCH   3  27
TORSDOF 7
ENDMDL
MODEL 4
REMARK VINA RESULT:      -9.3      2.236      2.965
REMARK  7 active torsions:
REMARK  status: ('A' for Active; 'I' for Inactive)
REMARK    1  A    between atoms: C_4  and  C_5 
REMARK    2  A    between atoms: C_5  and  N_6 
REMARK       I    between atoms: N_6  and  C_7 
REMARK    3  A    between atoms: N_6  and  C_18 
REMARK       I    between atoms: C_7  and  N_8 
REMARK    4  A    between atoms: N_8  and  C_9 
REMARK    5  A    between atoms: C_10  and  O_11 
REMARK    6  A    between atoms: N_21  and  C_23 
REMARK    7  A    between atoms: C_23  and  C_24 
ROOT
HETATM    1  N   UNL     1      25.963  43.844  51.337  1.00  0.00    -0.323 N 
HETATM    2  C   UNL     1      24.832  44.647  51.049  1.00  0.00     0.323 C 
HETATM    3  N   UNL     1      24.872  45.327  49.854  1.00  0.00    -0.306 N 
HETATM    4  O   UNL     1      23.904  44.671  51.851  1.00  0.00    -0.247 OA
HETATM    5  H   UNL     1      25.612  45.106  49.215  1.00  0.00     0.171 HD
ENDROOT
BRANCH   1   6
HETATM    6  C   UNL     1      27.038  43.582  50.373  1.00  0.00     0.193 C 
BRANCH   6   7
HETATM    7  C   UNL     1      26.730  42.386  49.555  1.00  0.00     0.071 A 
HETATM    8  O   UNL     1      27.511  42.196  48.451  1.00  0.00    -0.318 OA
HETATM    9  C   UNL     1      27.063  41.066  47.835  1.00  0.00     0.049 A 
HETATM   10  C   UNL     1      27.750  40.663  46.590  1.00  0.00     0.076 C 
HETATM   11  C   UNL     1      26.008  40.528  48.539  1.00  0.00     0.035 A 
HETATM   12  C   UNL     1      25.791  41.380  49.648  1.00  0.00     0.037 A 
ENDBRANCH   6   7
ENDBRANCH   1   6
BRANCH   1  13
HETATM   13  C   UNL     1      26.009  43.276  52.718  1.00  0.00     0.092 C 
HETATM   14  C   UNL     1      25.538  44.140  53.896  1.00  0.00     0.053 C 
HETATM   15  C   UNL     1      26.543  45.156  54.419  1.00  0.00     0.237 C 
HETATM   16  N   UNL     1      27.914  44.545  54.603  1.00  0.00    -0.067 N 
HETATM   17  H   UNL     1      27.850  43.917  55.414  1.00  0.00     0.280 HD
HETATM   18  C   UNL     1      28.389  43.734  53.421  1.00  0.00     0.237 C 
HETATM   19  C   UNL     1      27.378  42.671  53.060  1.00  0.00     0.053 C 
BRANCH  16  20
HETATM   20  C   UNL     1      28.976  45.578  54.958  1.00  0.00     0.273 C 
BRANCH  20  21
HETATM   21  C   UNL     1      29.868  45.205  56.107  1.00  0.00    -0.033 A 
HETATM   22  C   UNL     1      29.823  45.915  57.316  1.00  0.00     0.009 A 
HETATM   23  C   UNL     1      30.659  45.555  58.374  1.00  0.00     0.001 A 
HETATM   24  C   UNL     1      31.548  44.491  58.234  1.00  0.00     0.000 A 
HETATM   25  C   UNL     1      31.604  43.781  57.038  1.00  0.00     0.001 A 
HETATM   26  C   UNL     1      30.769  44.134  55.980  1.00  0.00     0.009 A 
ENDBRANCH  20  21
ENDBRANCH  16  20
ENDBRANCH   1  13
BRANCH   3  27
HETATM   27  C   UNL     1      23.924  46.220  49.287  1.00  0.00     0.069 A 
HETATM   28  C   UNL     1      23.871  47.613  49.431  1.00  0.00     0.095 A 
HETATM   29  C   UNL     1      22.827  48.351  48.852  1.00  0.00     0.039 A 
HETATM   30  C   UNL     1      21.858  47.722  48.076  1.00  0.00     0.003 A 
HETATM   31  C   UNL     1      21.925  46.349  47.877  1.00  0.00     0.002 A 
HETATM   32  C   UNL     1      22.949  45.608  48.474  1.00  0.00     0.032 A 
BRANCH  28  33
HETATM   33  O   UNL     1      24.800  48.348  50.112  1.00  0.00    -0.354 OA
HETATM   34  C   UNL     1      25.902  48.666  49.264  1.00  0.00     0.210 C 
ENDBRANCH  28  33
ENDBRANCH   3  27
TORSDOF 7
ENDMDL
MODEL 5
REMARK VINA RESULT:      -9.3      4.738      9.811
REMARK  7 active torsions:
REMARK  status: ('A' for Active; 'I' for Inactive)
REMARK    1  A    between atoms: C_4  and  C_5 
REMARK    2  A    between atoms: C_5  and  N_6 
REMARK       I    between atoms: N_6  and  C_7 
REMARK    3  A    between atoms: N_6  and  C_18 
REMARK       I    between atoms: C_7  and  N_8 
REMARK    4  A    between atoms: N_8  and  C_9 
REMARK    5  A    between atoms: C_10  and  O_11 
REMARK    6  A    between atoms: N_21  and  C_23 
REMARK    7  A    between atoms: C_23  and  C_24 
ROOT
HETATM    1  N   UNL     1      21.402  50.408  48.606  1.00  0.00    -0.323 N 
HETATM    2  C   UNL     1      22.721  50.379  49.119  1.00  0.00     0.323 C 
HETATM    3  N   UNL     1      23.561  49.447  48.554  1.00  0.00    -0.306 N 
HETATM    4  O   UNL     1      23.032  51.177  49.998  1.00  0.00    -0.247 OA
HETATM    5  H   UNL     1      23.237  48.960  47.740  1.00  0.00     0.171 HD
ENDROOT
BRANCH   1   6
HETATM    6  C   UNL     1      20.972  49.645  47.429  1.00  0.00     0.193 C 
BRANCH   6   7
HETATM    7  C   UNL     1      21.012  48.190  47.703  1.00  0.00     0.071 A 
HETATM    8  O   UNL     1      21.726  47.431  46.821  1.00  0.00    -0.318 OA
HETATM    9  C   UNL     1      21.628  46.136  47.236  1.00  0.00     0.049 A 
HETATM   10  C   UNL     1      22.313  45.115  46.415  1.00  0.00     0.076 C 
HETATM   11  C   UNL     1      20.864  46.062  48.379  1.00  0.00     0.035 A 
HETATM   12  C   UNL     1      20.465  47.386  48.681  1.00  0.00     0.037 A 
ENDBRANCH   6   7
ENDBRANCH   1   6
BRANCH   1  13
HETATM   13  C   UNL     1      20.442  51.271  49.358  1.00  0.00     0.092 C 
HETATM   14  C   UNL     1      19.597  50.646  50.477  1.00  0.00     0.053 C 
HETATM   15  C   UNL     1      18.359  49.882  50.029  1.00  0.00     0.237 C 
HETATM   16  N   UNL     1      17.562  50.657  49.005  1.00  0.00    -0.067 N 
HETATM   17  H   UNL     1      17.122  51.440  49.506  1.00  0.00     0.280 HD
HETATM   18  C   UNL     1      18.395  51.230  47.883  1.00  0.00     0.237 C 
HETATM   19  C   UNL     1      19.521  52.076  48.430  1.00  0.00     0.053 C 
BRANCH  16  20
HETATM   20  C   UNL     1      16.418  49.846  48.412  1.00  0.00     0.273 C 
BRANCH  20  21
HETATM   21  C   UNL     1      16.798  48.484  47.904  1.00  0.00    -0.033 A 
HETATM   22  C   UNL     1      16.701  47.354  48.728  1.00  0.00     0.009 A 
HETATM   23  C   UNL     1      17.058  46.096  48.239  1.00  0.00     0.001 A 
HETATM   24  C   UNL     1      17.519  45.957  46.931  1.00  0.00     0.000 A 
HETATM   25  C   UNL     1      17.622  47.073  46.105  1.00  0.00     0.001 A 
HETATM   26  C   UNL     1      17.264  48.330  46.587  1.00  0.00     0.009 A 
ENDBRANCH  20  21
ENDBRANCH  16  20
ENDBRANCH   1  13
BRANCH   3  27
HETATM   27  C   UNL     1      24.917  49.149  48.853  1.00  0.00     0.069 A 
HETATM   28  C   UNL     1      25.407  48.096  49.637  1.00  0.00     0.095 A 
HETATM   29  C   UNL     1      26.782  47.974  49.888  1.00  0.00     0.039 A 
HETATM   30  C   UNL     1      27.691  48.861  49.317  1.00  0.00     0.003 A 
HETATM   31  C   UNL     1      27.228  49.878  48.493  1.00  0.00     0.002 A 
HETATM   32  C   UNL     1      25.856  50.018  48.262  1.00  0.00     0.032 A 
BRANCH  28  33
HETATM   33  O   UNL     1      24.622  47.128  50.194  1.00  0.00    -0.354 OA
HETATM   34  C   UNL     1      25.134  46.744  51.470  1.00  0.00     0.210 C 
ENDBRANCH  28  33
ENDBRANCH   3  27
TORSDOF 7
ENDMDL
MODEL 6
REMARK VINA RESULT:      -9.3      5.291     11.667
REMARK  7 active torsions:
REMARK  status: ('A' for Active; 'I' for Inactive)
REMARK    1  A    between atoms: C_4  and  C_5 
REMARK    2  A    between atoms: C_5  and  N_6 
REMARK       I    between atoms: N_6  and  C_7 
REMARK    3  A    between atoms: N_6  and  C_18 
REMARK       I    between atoms: C_7  and  N_8 
REMARK    4  A    between atoms: N_8  and  C_9 
REMARK    5  A    between atoms: C_10  and  O_11 
REMARK    6  A    between atoms: N_21  and  C_23 
REMARK    7  A    between atoms: C_23  and  C_24 
ROOT
HETATM    1  N   UNL     1      20.565  48.054  48.497  1.00  0.00    -0.323 N 
HETATM    2  C   UNL     1      21.948  47.925  48.223  1.00  0.00     0.323 C 
HETATM    3  N   UNL     1      22.785  48.675  49.016  1.00  0.00    -0.306 N 
HETATM    4  O   UNL     1      22.306  47.160  47.333  1.00  0.00    -0.247 OA
HETATM    5  H   UNL     1      22.386  49.141  49.808  1.00  0.00     0.171 HD
ENDROOT
BRANCH   1   6
HETATM    6  C   UNL     1      20.031  48.781  49.655  1.00  0.00     0.193 C 
BRANCH   6   7
HETATM    7  C   UNL     1      19.701  50.178  49.292  1.00  0.00     0.071 A 
HETATM    8  O   UNL     1      18.560  50.689  49.842  1.00  0.00    -0.318 OA
HETATM    9  C   UNL     1      18.428  51.964  49.378  1.00  0.00     0.049 A 
HETATM   10  C   UNL     1      17.241  52.721  49.827  1.00  0.00     0.076 C 
HETATM   11  C   UNL     1      19.478  52.275  48.543  1.00  0.00     0.035 A 
HETATM   12  C   UNL     1      20.299  51.124  48.486  1.00  0.00     0.037 A 
ENDBRANCH   6   7
ENDBRANCH   1   6
BRANCH   1  13
HETATM   13  C   UNL     1      19.652  47.405  47.508  1.00  0.00     0.092 C 
HETATM   14  C   UNL     1      19.133  48.229  46.321  1.00  0.00     0.053 C 
HETATM   15  C   UNL     1      17.953  49.146  46.613  1.00  0.00     0.237 C 
HETATM   16  N   UNL     1      16.874  48.437  47.400  1.00  0.00    -0.067 N 
HETATM   17  H   UNL     1      16.431  47.769  46.757  1.00  0.00     0.280 HD
HETATM   18  C   UNL     1      17.389  47.667  48.593  1.00  0.00     0.237 C 
HETATM   19  C   UNL     1      18.468  46.694  48.177  1.00  0.00     0.053 C 
BRANCH  16  20
HETATM   20  C   UNL     1      15.765  49.376  47.855  1.00  0.00     0.273 C 
BRANCH  20  21
HETATM   21  C   UNL     1      15.227  50.291  46.792  1.00  0.00    -0.033 A 
HETATM   22  C   UNL     1      14.499  49.785  45.705  1.00  0.00     0.009 A 
HETATM   23  C   UNL     1      14.007  50.650  44.727  1.00  0.00     0.001 A 
HETATM   24  C   UNL     1      14.241  52.021  44.820  1.00  0.00     0.000 A 
HETATM   25  C   UNL     1      14.965  52.534  45.893  1.00  0.00     0.001 A 
HETATM   26  C   UNL     1      15.456  51.675  46.874  1.00  0.00     0.009 A 
ENDBRANCH  20  21
ENDBRANCH  16  20
ENDBRANCH   1  13
BRANCH   3  27
HETATM   27  C   UNL     1      24.201  48.789  48.985  1.00  0.00     0.069 A 
HETATM   28  C   UNL     1      25.136  48.000  49.669  1.00  0.00     0.095 A 
HETATM   29  C   UNL     1      26.508  48.282  49.579  1.00  0.00     0.039 A 
HETATM   30  C   UNL     1      26.971  49.311  48.764  1.00  0.00     0.003 A 
HETATM   31  C   UNL     1      26.062  50.068  48.035  1.00  0.00     0.002 A 
HETATM   32  C   UNL     1      24.693  49.807  48.144  1.00  0.00     0.032 A 
BRANCH  28  33
HETATM   33  O   UNL     1      24.808  46.925  50.444  1.00  0.00    -0.354 OA
HETATM   34  C   UNL     1      24.832  45.727  49.669  1.00  0.00     0.210 C 
ENDBRANCH  28  33
ENDBRANCH   3  27
TORSDOF 7
ENDMDL
MODEL 7
REMARK VINA RESULT:      -9.2      2.358      8.569
REMARK  7 active torsions:
REMARK  status: ('A' for Active; 'I' for Inactive)
REMARK    1  A    between atoms: C_4  and  C_5 
REMARK    2  A    between atoms: C_5  and  N_6 
REMARK       I    between atoms: N_6  and  C_7 
REMARK    3  A    between atoms: N_6  and  C_18 
REMARK       I    between atoms: C_7  and  N_8 
REMARK    4  A    between atoms: N_8  and  C_9 
REMARK    5  A    between atoms: C_10  and  O_11 
REMARK    6  A    between atoms: N_21  and  C_23 
REMARK    7  A    between atoms: C_23  and  C_24 
ROOT
HETATM    1  N   UNL     1      27.338  44.550  52.833  1.00  0.00    -0.323 N 
HETATM    2  C   UNL     1      27.837  44.712  54.148  1.00  0.00     0.323 C 
HETATM    3  N   UNL     1      29.129  44.284  54.352  1.00  0.00    -0.306 N 
HETATM    4  O   UNL     1      27.116  45.228  54.995  1.00  0.00    -0.247 OA
HETATM    5  H   UNL     1      29.667  44.024  53.548  1.00  0.00     0.171 HD
ENDROOT
BRANCH   1   6
HETATM    6  C   UNL     1      28.165  44.132  51.696  1.00  0.00     0.193 C 
BRANCH   6   7
HETATM    7  C   UNL     1      28.224  42.655  51.604  1.00  0.00     0.071 A 
HETATM    8  O   UNL     1      27.499  42.086  50.597  1.00  0.00    -0.318 OA
HETATM    9  C   UNL     1      27.672  40.737  50.692  1.00  0.00     0.049 A 
HETATM   10  C   UNL     1      26.959  39.898  49.707  1.00  0.00     0.076 C 
HETATM   11  C   UNL     1      28.507  40.440  51.747  1.00  0.00     0.035 A 
HETATM   12  C   UNL     1      28.863  41.676  52.336  1.00  0.00     0.037 A 
ENDBRANCH   6   7
ENDBRANCH   1   6
BRANCH   1  13
HETATM   13  C   UNL     1      25.878  44.822  52.665  1.00  0.00     0.092 C 
HETATM   14  C   UNL     1      25.199  44.450  51.339  1.00  0.00     0.053 C 
HETATM   15  C   UNL     1      25.383  45.440  50.197  1.00  0.00     0.237 C 
HETATM   16  N   UNL     1      25.140  46.864  50.644  1.00  0.00    -0.067 N 
HETATM   17  H   UNL     1      24.128  46.954  50.803  1.00  0.00     0.280 HD
HETATM   18  C   UNL     1      25.849  47.235  51.926  1.00  0.00     0.237 C 
HETATM   19  C   UNL     1      25.501  46.264  53.031  1.00  0.00     0.053 C 
BRANCH  16  20
HETATM   20  C   UNL     1      25.486  47.886  49.570  1.00  0.00     0.273 C 
BRANCH  20  21
HETATM   21  C   UNL     1      24.332  48.712  49.080  1.00  0.00    -0.033 A 
HETATM   22  C   UNL     1      24.543  49.946  48.449  1.00  0.00     0.009 A 
HETATM   23  C   UNL     1      23.458  50.700  47.999  1.00  0.00     0.001 A 
HETATM   24  C   UNL     1      22.157  50.234  48.180  1.00  0.00     0.000 A 
HETATM   25  C   UNL     1      21.935  49.012  48.808  1.00  0.00     0.001 A 
HETATM   26  C   UNL     1      23.015  48.253  49.256  1.00  0.00     0.009 A 
ENDBRANCH  20  21
ENDBRANCH  16  20
ENDBRANCH   1  13
BRANCH   3  27
HETATM   27  C   UNL     1      29.906  44.284  55.540  1.00  0.00     0.069 A 
HETATM   28  C   UNL     1      29.937  45.266  56.540  1.00  0.00     0.095 A 
HETATM   29  C   UNL     1      30.811  45.145  57.632  1.00  0.00     0.039 A 
HETATM   30  C   UNL     1      31.621  44.021  57.773  1.00  0.00     0.003 A 
HETATM   31  C   UNL     1      31.563  43.012  56.821  1.00  0.00     0.002 A 
HETATM   32  C   UNL     1      30.713  43.142  55.718  1.00  0.00     0.032 A 
BRANCH  28  33
HETATM   33  O   UNL     1      29.144  46.377  56.546  1.00  0.00    -0.354 OA
HETATM   34  C   UNL     1      28.472  46.503  57.798  1.00  0.00     0.210 C 
ENDBRANCH  28  33
ENDBRANCH   3  27
TORSDOF 7
ENDMDL
MODEL 8
REMARK VINA RESULT:      -9.1      5.113     11.278
REMARK  7 active torsions:
REMARK  status: ('A' for Active; 'I' for Inactive)
REMARK    1  A    between atoms: C_4  and  C_5 
REMARK    2  A    between atoms: C_5  and  N_6 
REMARK       I    between atoms: N_6  and  C_7 
REMARK    3  A    between atoms: N_6  and  C_18 
REMARK       I    between atoms: C_7  and  N_8 
REMARK    4  A    between atoms: N_8  and  C_9 
REMARK    5  A    between atoms: C_10  and  O_11 
REMARK    6  A    between atoms: N_21  and  C_23 
REMARK    7  A    between atoms: C_23  and  C_24 
ROOT
HETATM    1  N   UNL     1      20.978  49.930  48.853  1.00  0.00    -0.323 N 
HETATM    2  C   UNL     1      22.311  49.984  49.327  1.00  0.00     0.323 C 
HETATM    3  N   UNL     1      23.220  49.214  48.638  1.00  0.00    -0.306 N 
HETATM    4  O   UNL     1      22.571  50.708  50.282  1.00  0.00    -0.247 OA
HETATM    5  H   UNL     1      22.918  48.788  47.782  1.00  0.00     0.171 HD
ENDROOT
BRANCH   1   6
HETATM    6  C   UNL     1      20.585  49.261  47.608  1.00  0.00     0.193 C 
BRANCH   6   7
HETATM    7  C   UNL     1      20.688  47.790  47.747  1.00  0.00     0.071 A 
HETATM    8  O   UNL     1      21.669  47.183  47.018  1.00  0.00    -0.318 OA
HETATM    9  C   UNL     1      21.588  45.846  47.271  1.00  0.00     0.049 A 
HETATM   10  C   UNL     1      22.550  44.971  46.569  1.00  0.00     0.076 C 
HETATM   11  C   UNL     1      20.568  45.594  48.162  1.00  0.00     0.035 A 
HETATM   12  C   UNL     1      19.986  46.846  48.469  1.00  0.00     0.037 A 
ENDBRANCH   6   7
ENDBRANCH   1   6
BRANCH   1  13
HETATM   13  C   UNL     1      19.963  50.599  49.722  1.00  0.00     0.092 C 
HETATM   14  C   UNL     1      18.684  49.835  50.097  1.00  0.00     0.053 C 
HETATM   15  C   UNL     1      17.585  49.822  49.044  1.00  0.00     0.237 C 
HETATM   16  N   UNL     1      17.343  51.199  48.468  1.00  0.00    -0.067 N 
HETATM   17  H   UNL     1      16.884  51.750  49.205  1.00  0.00     0.280 HD
HETATM   18  C   UNL     1      18.604  51.925  48.060  1.00  0.00     0.237 C 
HETATM   19  C   UNL     1      19.579  51.995  49.213  1.00  0.00     0.053 C 
BRANCH  16  20
HETATM   20  C   UNL     1      16.374  51.185  47.293  1.00  0.00     0.273 C 
BRANCH  20  21
HETATM   21  C   UNL     1      15.498  52.399  47.174  1.00  0.00    -0.033 A 
HETATM   22  C   UNL     1      15.004  53.048  48.315  1.00  0.00     0.009 A 
HETATM   23  C   UNL     1      14.192  54.175  48.186  1.00  0.00     0.001 A 
HETATM   24  C   UNL     1      13.861  54.659  46.922  1.00  0.00     0.000 A 
HETATM   25  C   UNL     1      14.342  54.022  45.782  1.00  0.00     0.001 A 
HETATM   26  C   UNL     1      15.157  52.898  45.906  1.00  0.00     0.009 A 
ENDBRANCH  20  21
ENDBRANCH  16  20
ENDBRANCH   1  13
BRANCH   3  27
HETATM   27  C   UNL     1      24.609  49.029  48.867  1.00  0.00     0.069 A 
HETATM   28  C   UNL     1      25.223  48.031  49.636  1.00  0.00     0.095 A 
HETATM   29  C   UNL     1      26.615  48.023  49.815  1.00  0.00     0.039 A 
HETATM   30  C   UNL     1      27.418  48.970  49.185  1.00  0.00     0.003 A 
HETATM   31  C   UNL     1      26.832  49.933  48.374  1.00  0.00     0.002 A 
HETATM   32  C   UNL     1      25.444  49.960  48.216  1.00  0.00     0.032 A 
BRANCH  28  33
HETATM   33  O   UNL     1      24.548  47.013  50.247  1.00  0.00    -0.354 OA
HETATM   34  C   UNL     1      24.993  45.752  49.749  1.00  0.00     0.210 C 
ENDBRANCH  28  33
ENDBRANCH   3  27
TORSDOF 7
ENDMDL
MODEL 9
REMARK VINA RESULT:      -8.8      5.237     11.106
REMARK  7 active torsions:
REMARK  status: ('A' for Active; 'I' for Inactive)
REMARK    1  A    between atoms: C_4  and  C_5 
REMARK    2  A    between atoms: C_5  and  N_6 
REMARK       I    between atoms: N_6  and  C_7 
REMARK    3  A    between atoms: N_6  and  C_18 
REMARK       I    between atoms: C_7  and  N_8 
REMARK    4  A    between atoms: N_8  and  C_9 
REMARK    5  A    between atoms: C_10  and  O_11 
REMARK    6  A    between atoms: N_21  and  C_23 
REMARK    7  A    between atoms: C_23  and  C_24 
ROOT
HETATM    1  N   UNL     1      20.326  47.100  48.120  1.00  0.00    -0.323 N 
HETATM    2  C   UNL     1      21.721  47.271  47.951  1.00  0.00     0.323 C 
HETATM    3  N   UNL     1      22.396  47.783  49.035  1.00  0.00    -0.306 N 
HETATM    4  O   UNL     1      22.232  46.944  46.884  1.00  0.00    -0.247 OA
HETATM    5  H   UNL     1      21.896  47.866  49.900  1.00  0.00     0.171 HD
ENDROOT
BRANCH   1   6
HETATM    6  C   UNL     1      19.638  47.269  49.406  1.00  0.00     0.193 C 
BRANCH   6   7
HETATM    7  C   UNL     1      19.313  48.694  49.644  1.00  0.00     0.071 A 
HETATM    8  O   UNL     1      19.855  49.589  48.768  1.00  0.00    -0.318 OA
HETATM    9  C   UNL     1      19.453  50.830  49.164  1.00  0.00     0.049 A 
HETATM   10  C   UNL     1      19.938  51.978  48.369  1.00  0.00     0.076 C 
HETATM   11  C   UNL     1      18.653  50.735  50.281  1.00  0.00     0.035 A 
HETATM   12  C   UNL     1      18.563  49.358  50.593  1.00  0.00     0.037 A 
ENDBRANCH   6   7
ENDBRANCH   1   6
BRANCH   1  13
HETATM   13  C   UNL     1      19.570  46.742  46.883  1.00  0.00     0.092 C 
HETATM   14  C   UNL     1      19.077  47.866  45.959  1.00  0.00     0.053 C 
HETATM   15  C   UNL     1      17.794  48.565  46.387  1.00  0.00     0.237 C 
HETATM   16  N   UNL     1      16.724  47.575  46.789  1.00  0.00    -0.067 N 
HETATM   17  H   UNL     1      16.405  47.119  45.925  1.00  0.00     0.280 HD
HETATM   18  C   UNL     1      17.206  46.499  47.734  1.00  0.00     0.237 C 
HETATM   19  C   UNL     1      18.406  45.781  47.161  1.00  0.00     0.053 C 
BRANCH  16  20
HETATM   20  C   UNL     1      15.495  48.246  47.385  1.00  0.00     0.273 C 
BRANCH  20  21
HETATM   21  C   UNL     1      15.431  49.736  47.204  1.00  0.00    -0.033 A 
HETATM   22  C   UNL     1      15.041  50.298  45.980  1.00  0.00     0.009 A 
HETATM   23  C   UNL     1      14.987  51.685  45.830  1.00  0.00     0.001 A 
HETATM   24  C   UNL     1      15.325  52.519  46.894  1.00  0.00     0.000 A 
HETATM   25  C   UNL     1      15.717  51.972  48.112  1.00  0.00     0.001 A 
HETATM   26  C   UNL     1      15.769  50.589  48.269  1.00  0.00     0.009 A 
ENDBRANCH  20  21
ENDBRANCH  16  20
ENDBRANCH   1  13
BRANCH   3  27
HETATM   27  C   UNL     1      23.774  48.093  49.181  1.00  0.00     0.069 A 
HETATM   28  C   UNL     1      24.513  49.052  48.476  1.00  0.00     0.095 A 
HETATM   29  C   UNL     1      25.892  49.194  48.697  1.00  0.00     0.039 A 
HETATM   30  C   UNL     1      26.540  48.428  49.661  1.00  0.00     0.003 A 
HETATM   31  C   UNL     1      25.813  47.511  50.409  1.00  0.00     0.002 A 
HETATM   32  C   UNL     1      24.444  47.348  50.172  1.00  0.00     0.032 A 
BRANCH  28  33
HETATM   33  O   UNL     1      23.977  49.906  47.555  1.00  0.00    -0.354 OA
HETATM   34  C   UNL     1      23.387  51.032  48.204  1.00  0.00     0.210 C 
ENDBRANCH  28  33
ENDBRANCH   3  27
TORSDOF 7
ENDMDL
MODEL 10
REMARK VINA RESULT:      -8.7      2.264      8.309
REMARK  7 active torsions:
REMARK  status: ('A' for Active; 'I' for Inactive)
REMARK    1  A    between atoms: C_4  and  C_5 
REMARK    2  A    between atoms: C_5  and  N_6 
REMARK       I    between atoms: N_6  and  C_7 
REMARK    3  A    between atoms: N_6  and  C_18 
REMARK       I    between atoms: C_7  and  N_8 
REMARK    4  A    between atoms: N_8  and  C_9 
REMARK    5  A    between atoms: C_10  and  O_11 
REMARK    6  A    between atoms: N_21  and  C_23 
REMARK    7  A    between atoms: C_23  and  C_24 
ROOT
HETATM    1  N   UNL     1      26.227  43.376  50.780  1.00  0.00    -0.323 N 
HETATM    2  C   UNL     1      26.718  43.361  52.108  1.00  0.00     0.323 C 
HETATM    3  N   UNL     1      27.901  44.031  52.314  1.00  0.00    -0.306 N 
HETATM    4  O   UNL     1      26.066  42.784  52.973  1.00  0.00    -0.247 OA
HETATM    5  H   UNL     1      28.257  44.592  51.564  1.00  0.00     0.171 HD
ENDROOT
BRANCH   1   6
HETATM    6  C   UNL     1      26.810  44.192  49.709  1.00  0.00     0.193 C 
BRANCH   6   7
HETATM    7  C   UNL     1      26.490  45.625  49.906  1.00  0.00     0.071 A 
HETATM    8  O   UNL     1      27.296  46.516  49.258  1.00  0.00    -0.318 OA
HETATM    9  C   UNL     1      26.850  47.764  49.577  1.00  0.00     0.049 A 
HETATM   10  C   UNL     1      27.589  48.908  49.002  1.00  0.00     0.076 C 
HETATM   11  C   UNL     1      25.762  47.678  50.418  1.00  0.00     0.035 A 
HETATM   12  C   UNL     1      25.529  46.299  50.631  1.00  0.00     0.037 A 
ENDBRANCH   6   7
ENDBRANCH   1   6
BRANCH   1  13
HETATM   13  C   UNL     1      25.060  42.480  50.518  1.00  0.00     0.092 C 
HETATM   14  C   UNL     1      24.946  41.785  49.154  1.00  0.00     0.053 C 
HETATM   15  C   UNL     1      24.385  42.633  48.020  1.00  0.00     0.237 C 
HETATM   16  N   UNL     1      23.143  43.384  48.443  1.00  0.00    -0.067 N 
HETATM   17  H   UNL     1      22.394  42.686  48.538  1.00  0.00     0.280 HD
HETATM   18  C   UNL     1      23.280  44.102  49.765  1.00  0.00     0.237 C 
HETATM   19  C   UNL     1      23.719  43.148  50.851  1.00  0.00     0.053 C 
BRANCH  16  20
HETATM   20  C   UNL     1      22.663  44.370  47.387  1.00  0.00     0.273 C 
BRANCH  20  21
HETATM   21  C   UNL     1      21.868  45.530  47.913  1.00  0.00    -0.033 A 
HETATM   22  C   UNL     1      20.499  45.401  48.191  1.00  0.00     0.009 A 
HETATM   23  C   UNL     1      19.776  46.490  48.680  1.00  0.00     0.001 A 
HETATM   24  C   UNL     1      20.407  47.714  48.890  1.00  0.00     0.000 A 
HETATM   25  C   UNL     1      21.765  47.855  48.615  1.00  0.00     0.001 A 
HETATM   26  C   UNL     1      22.492  46.771  48.130  1.00  0.00     0.009 A 
ENDBRANCH  20  21
ENDBRANCH  16  20
ENDBRANCH   1  13
BRANCH   3  27
HETATM   27  C   UNL     1      28.660  44.184  53.505  1.00  0.00     0.069 A 
HETATM   28  C   UNL     1      28.500  45.157  54.501  1.00  0.00     0.095 A 
HETATM   29  C   UNL     1      29.378  45.209  55.595  1.00  0.00     0.039 A 
HETATM   30  C   UNL     1      30.387  44.262  55.743  1.00  0.00     0.003 A 
HETATM   31  C   UNL     1      30.526  43.257  54.795  1.00  0.00     0.002 A 
HETATM   32  C   UNL     1      29.670  43.218  53.690  1.00  0.00     0.032 A 
BRANCH  28  33
HETATM   33  O   UNL     1      27.509  46.097  54.499  1.00  0.00    -0.354 OA
HETATM   34  C   UNL     1      27.915  47.250  55.235  1.00  0.00     0.210 C 
ENDBRANCH  28  33
ENDBRANCH   3  27
TORSDOF 7
ENDMDL
