MODEL 1
REMARK VINA RESULT:      -9.7      0.000      0.000
REMARK  8 active torsions:
REMARK  status: ('A' for Active; 'I' for Inactive)
REMARK    1  A    between atoms: C_7  and  C_8 
REMARK       I    between atoms: C_8  and  N_9 
REMARK    2  A    between atoms: N_9  and  N_10 
REMARK    3  A    between atoms: N_10  and  C_11 
REMARK    4  A    between atoms: C_11  and  N_12 
REMARK    5  A    between atoms: N_12  and  C_13 
REMARK    6  A    between atoms: N_15  and  C_16 
REMARK    7  A    between atoms: C_16  and  C_17 
REMARK    8  A    between atoms: C_29  and  C_30 
ROOT
HETATM    1  C   UNL     1      25.527  46.577  49.793  1.00  0.00     0.290 C 
HETATM    2  N   UNL     1      25.380  45.358  50.425  1.00  0.00    -0.262 N 
HETATM    3  O   UNL     1      26.603  47.097  49.508  1.00  0.00    -0.264 OA
HETATM    4  H   UNL     1      24.441  44.968  50.488  1.00  0.00     0.190 HD
ENDROOT
BRANCH   2   5
HETATM    5  N   UNL     1      26.466  44.501  50.590  1.00  0.00    -0.273 N 
HETATM    6  H   UNL     1      27.389  44.922  50.737  1.00  0.00     0.189 HD
BRANCH   5   7
HETATM    7  C   UNL     1      26.300  43.173  50.887  1.00  0.00     0.192 C 
HETATM    8  S   UNL     1      25.839  41.998  49.780  1.00  0.00    -0.039 SA
BRANCH   7   9
HETATM    9  N   UNL     1      26.512  42.788  52.181  1.00  0.00    -0.315 N 
HETATM   10  H   UNL     1      26.324  41.816  52.385  1.00  0.00     0.170 HD
BRANCH   9  11
HETATM   11  C   UNL     1      26.849  43.591  53.251  1.00  0.00     0.151 A 
HETATM   12  N   UNL     1      27.969  44.317  53.324  1.00  0.00    -0.154 NA
HETATM   13  N   UNL     1      27.867  44.971  54.500  1.00  0.00    -0.275 N 
HETATM   14  C   UNL     1      26.728  44.665  55.186  1.00  0.00     0.116 A 
HETATM   15  C   UNL     1      26.048  43.764  54.401  1.00  0.00     0.071 A 
BRANCH  13  16
HETATM   16  C   UNL     1      28.947  45.842  54.946  1.00  0.00     0.192 C 
BRANCH  16  17
HETATM   17  C   UNL     1      29.859  45.142  55.914  1.00  0.00     0.000 A 
HETATM   18  C   UNL     1      29.938  45.567  57.242  1.00  0.00     0.124 A 
HETATM   19  F   UNL     1      29.183  46.594  57.656  1.00  0.00    -0.205 F 
HETATM   20  C   UNL     1      30.782  44.941  58.154  1.00  0.00     0.043 A 
HETATM   21  C   UNL     1      31.571  43.870  57.740  1.00  0.00     0.003 A 
HETATM   22  C   UNL     1      31.515  43.436  56.414  1.00  0.00     0.001 A 
HETATM   23  C   UNL     1      30.667  44.071  55.503  1.00  0.00     0.012 A 
ENDBRANCH  16  17
ENDBRANCH  13  16
ENDBRANCH   9  11
ENDBRANCH   7   9
ENDBRANCH   5   7
ENDBRANCH   2   5
BRANCH   1  24
HETATM   24  C   UNL     1      24.227  47.195  49.486  1.00  0.00     0.150 A 
HETATM   25  N   UNL     1      23.931  48.454  49.885  1.00  0.00    -0.165 NA
HETATM   26  N   UNL     1      22.690  48.648  49.412  1.00  0.00    -0.240 N 
HETATM   27  C   UNL     1      22.135  47.547  48.825  1.00  0.00     0.123 A 
HETATM   28  C   UNL     1      21.990  49.906  49.593  1.00  0.00     0.221 C 
HETATM   29  N   UNL     1      20.845  47.538  48.424  1.00  0.00    -0.371 N 
HETATM   30  C   UNL     1      23.129  46.602  48.800  1.00  0.00     0.089 A 
HETATM   31  C   UNL     1      20.006  48.732  48.512  1.00  0.00     0.081 C 
HETATM   32  H   UNL     1      20.491  46.776  47.847  1.00  0.00     0.161 HD
HETATM   33  C   UNL     1      18.556  48.308  48.734  1.00  0.00     0.032 C 
HETATM   34  C   UNL     1      20.479  49.636  49.665  1.00  0.00     0.061 C 
BRANCH  28  35
HETATM   35  C   UNL     1      22.361  50.861  48.482  1.00  0.00     0.409 C 
HETATM   36  F   UNL     1      22.691  50.225  47.337  1.00  0.00    -0.169 F 
HETATM   37  F   UNL     1      21.388  51.751  48.188  1.00  0.00    -0.169 F 
HETATM   38  F   UNL     1      23.451  51.587  48.845  1.00  0.00    -0.169 F 
ENDBRANCH  28  35
ENDBRANCH   1  24
TORSDOF 8
ENDMDL
MODEL 2
REMARK VINA RESULT:      -9.6      2.598      3.960
REMARK  8 active torsions:
REMARK  status: ('A' for Active; 'I' for Inactive)
REMARK    1  A    between atoms: C_7  and  C_8 
REMARK       I    between atoms: C_8  and  N_9 
REMARK    2  A    between atoms: N_9  and  N_10 
REMARK    3  A    between atoms: N_10  and  C_11 
REMARK    4  A    between atoms: C_11  and  N_12 
REMARK    5  A    between atoms: N_12  and  C_13 
REMARK    6  A    between atoms: N_15  and  C_16 
REMARK    7  A    between atoms: C_16  and  C_17 
REMARK    8  A    between atoms: C_29  and  C_30 
ROOT
HETATM    1  C   UNL     1      19.855  45.832  48.755  1.00  0.00     0.290 C 
HETATM    2  N   UNL     1      21.180  45.845  49.144  1.00  0.00    -0.262 N 
HETATM    3  O   UNL     1      19.224  44.826  48.443  1.00  0.00    -0.264 OA
HETATM    4  H   UNL     1      21.558  46.720  49.508  1.00  0.00     0.190 HD
ENDROOT
BRANCH   2   5
HETATM    5  N   UNL     1      21.855  44.662  49.433  1.00  0.00    -0.273 N 
HETATM    6  H   UNL     1      21.337  43.782  49.341  1.00  0.00     0.189 HD
BRANCH   5   7
HETATM    7  C   UNL     1      23.223  44.609  49.507  1.00  0.00     0.192 C 
HETATM    8  S   UNL     1      24.156  43.307  49.004  1.00  0.00    -0.039 SA
BRANCH   7   9
HETATM    9  N   UNL     1      23.865  45.689  50.044  1.00  0.00    -0.315 N 
HETATM   10  H   UNL     1      23.836  46.534  49.490  1.00  0.00     0.170 HD
BRANCH   9  11
HETATM   11  C   UNL     1      24.628  45.726  51.192  1.00  0.00     0.151 A 
HETATM   12  N   UNL     1      24.620  44.775  52.131  1.00  0.00    -0.154 NA
HETATM   13  N   UNL     1      25.532  45.190  53.035  1.00  0.00    -0.275 N 
HETATM   14  C   UNL     1      26.102  46.387  52.710  1.00  0.00     0.116 A 
HETATM   15  C   UNL     1      25.528  46.764  51.518  1.00  0.00     0.071 A 
BRANCH  13  16
HETATM   16  C   UNL     1      25.768  44.412  54.244  1.00  0.00     0.192 C 
BRANCH  16  17
HETATM   17  C   UNL     1      27.190  43.936  54.328  1.00  0.00     0.000 A 
HETATM   18  C   UNL     1      28.153  44.703  54.987  1.00  0.00     0.124 A 
HETATM   19  F   UNL     1      27.801  45.863  55.559  1.00  0.00    -0.205 F 
HETATM   20  C   UNL     1      29.479  44.288  55.069  1.00  0.00     0.043 A 
HETATM   21  C   UNL     1      29.862  43.084  54.481  1.00  0.00     0.003 A 
HETATM   22  C   UNL     1      28.916  42.307  53.809  1.00  0.00     0.001 A 
HETATM   23  C   UNL     1      27.588  42.731  53.727  1.00  0.00     0.012 A 
ENDBRANCH  16  17
ENDBRANCH  13  16
ENDBRANCH   9  11
ENDBRANCH   7   9
ENDBRANCH   5   7
ENDBRANCH   2   5
BRANCH   1  24
HETATM   24  C   UNL     1      19.268  47.182  48.764  1.00  0.00     0.150 A 
HETATM   25  N   UNL     1      19.911  48.228  49.334  1.00  0.00    -0.165 NA
HETATM   26  N   UNL     1      19.076  49.258  49.127  1.00  0.00    -0.240 N 
HETATM   27  C   UNL     1      17.888  48.910  48.550  1.00  0.00     0.123 A 
HETATM   28  C   UNL     1      19.398  50.603  49.561  1.00  0.00     0.221 C 
HETATM   29  N   UNL     1      16.887  49.805  48.403  1.00  0.00    -0.371 N 
HETATM   30  C   UNL     1      18.002  47.577  48.244  1.00  0.00     0.089 A 
HETATM   31  C   UNL     1      17.057  51.211  48.766  1.00  0.00     0.081 C 
HETATM   32  H   UNL     1      16.074  49.579  47.831  1.00  0.00     0.161 HD
HETATM   33  C   UNL     1      15.712  51.776  49.217  1.00  0.00     0.032 C 
HETATM   34  C   UNL     1      18.098  51.352  49.891  1.00  0.00     0.061 C 
BRANCH  28  35
HETATM   35  C   UNL     1      20.220  51.299  48.499  1.00  0.00     0.409 C 
HETATM   36  F   UNL     1      21.536  51.336  48.799  1.00  0.00    -0.169 F 
HETATM   37  F   UNL     1      20.097  50.746  47.273  1.00  0.00    -0.169 F 
HETATM   38  F   UNL     1      19.818  52.592  48.381  1.00  0.00    -0.169 F 
ENDBRANCH  28  35
ENDBRANCH   1  24
TORSDOF 8
ENDMDL
MODEL 3
REMARK VINA RESULT:      -9.1      3.028      8.714
REMARK  8 active torsions:
REMARK  status: ('A' for Active; 'I' for Inactive)
REMARK    1  A    between atoms: C_7  and  C_8 
REMARK       I    between atoms: C_8  and  N_9 
REMARK    2  A    between atoms: N_9  and  N_10 
REMARK    3  A    between atoms: N_10  and  C_11 
REMARK    4  A    between atoms: C_11  and  N_12 
REMARK    5  A    between atoms: N_12  and  C_13 
REMARK    6  A    between atoms: N_15  and  C_16 
REMARK    7  A    between atoms: C_16  and  C_17 
REMARK    8  A    between atoms: C_29  and  C_30 
ROOT
HETATM    1  C   UNL     1      26.957  40.647  50.377  1.00  0.00     0.290 C 
HETATM    2  N   UNL     1      25.651  40.967  50.061  1.00  0.00    -0.262 N 
HETATM    3  O   UNL     1      27.642  39.819  49.784  1.00  0.00    -0.264 OA
HETATM    4  H   UNL     1      25.230  41.764  50.537  1.00  0.00     0.190 HD
ENDROOT
BRANCH   2   5
HETATM    5  N   UNL     1      25.071  40.523  48.875  1.00  0.00    -0.273 N 
HETATM    6  H   UNL     1      25.076  39.515  48.688  1.00  0.00     0.189 HD
BRANCH   5   7
HETATM    7  C   UNL     1      24.232  41.317  48.138  1.00  0.00     0.192 C 
HETATM    8  S   UNL     1      22.722  40.847  47.576  1.00  0.00    -0.039 SA
BRANCH   7   9
HETATM    9  N   UNL     1      24.668  42.576  47.831  1.00  0.00    -0.315 N 
HETATM   10  H   UNL     1      25.442  42.625  47.183  1.00  0.00     0.170 HD
BRANCH   9  11
HETATM   11  C   UNL     1      24.244  43.768  48.381  1.00  0.00     0.151 A 
HETATM   12  N   UNL     1      24.957  44.492  49.248  1.00  0.00    -0.154 NA
HETATM   13  N   UNL     1      24.193  45.580  49.483  1.00  0.00    -0.275 N 
HETATM   14  C   UNL     1      23.007  45.556  48.809  1.00  0.00     0.116 A 
HETATM   15  C   UNL     1      23.007  44.386  48.088  1.00  0.00     0.071 A 
BRANCH  13  16
HETATM   16  C   UNL     1      24.638  46.592  50.433  1.00  0.00     0.192 C 
BRANCH  16  17
HETATM   17  C   UNL     1      25.376  47.707  49.748  1.00  0.00     0.000 A 
HETATM   18  C   UNL     1      24.673  48.757  49.154  1.00  0.00     0.124 A 
HETATM   19  F   UNL     1      23.334  48.775  49.209  1.00  0.00    -0.205 F 
HETATM   20  C   UNL     1      25.333  49.797  48.506  1.00  0.00     0.043 A 
HETATM   21  C   UNL     1      26.726  49.794  48.441  1.00  0.00     0.003 A 
HETATM   22  C   UNL     1      27.446  48.748  49.020  1.00  0.00     0.001 A 
HETATM   23  C   UNL     1      26.777  47.706  49.666  1.00  0.00     0.012 A 
ENDBRANCH  16  17
ENDBRANCH  13  16
ENDBRANCH   9  11
ENDBRANCH   7   9
ENDBRANCH   5   7
ENDBRANCH   2   5
BRANCH   1  24
HETATM   24  C   UNL     1      27.449  41.430  51.523  1.00  0.00     0.150 A 
HETATM   25  N   UNL     1      27.056  42.709  51.726  1.00  0.00    -0.165 NA
HETATM   26  N   UNL     1      27.700  43.059  52.850  1.00  0.00    -0.240 N 
HETATM   27  C   UNL     1      28.565  42.112  53.319  1.00  0.00     0.123 A 
HETATM   28  C   UNL     1      27.533  44.368  53.452  1.00  0.00     0.221 C 
HETATM   29  N   UNL     1      29.389  42.364  54.359  1.00  0.00    -0.371 N 
HETATM   30  C   UNL     1      28.383  41.015  52.515  1.00  0.00     0.089 A 
HETATM   31  C   UNL     1      29.332  43.626  55.095  1.00  0.00     0.081 C 
HETATM   32  H   UNL     1      29.910  41.606  54.799  1.00  0.00     0.161 HD
HETATM   33  C   UNL     1      30.724  43.958  55.628  1.00  0.00     0.032 C 
HETATM   34  C   UNL     1      28.829  44.758  54.179  1.00  0.00     0.061 C 
BRANCH  28  35
HETATM   35  C   UNL     1      26.329  44.360  54.367  1.00  0.00     0.409 C 
HETATM   36  F   UNL     1      25.164  44.496  53.696  1.00  0.00    -0.169 F 
HETATM   37  F   UNL     1      26.235  43.246  55.125  1.00  0.00    -0.169 F 
HETATM   38  F   UNL     1      26.400  45.408  55.229  1.00  0.00    -0.169 F 
ENDBRANCH  28  35
ENDBRANCH   1  24
TORSDOF 8
ENDMDL
MODEL 4
REMARK VINA RESULT:      -8.9      1.900      2.495
REMARK  8 active torsions:
REMARK  status: ('A' for Active; 'I' for Inactive)
REMARK    1  A    between atoms: C_7  and  C_8 
REMARK       I    between atoms: C_8  and  N_9 
REMARK    2  A    between atoms: N_9  and  N_10 
REMARK    3  A    between atoms: N_10  and  C_11 
REMARK    4  A    between atoms: C_11  and  N_12 
REMARK    5  A    between atoms: N_12  and  C_13 
REMARK    6  A    between atoms: N_15  and  C_16 
REMARK    7  A    between atoms: C_16  and  C_17 
REMARK    8  A    between atoms: C_29  and  C_30 
ROOT
HETATM    1  C   UNL     1      22.910  44.664  48.345  1.00  0.00     0.290 C 
HETATM    2  N   UNL     1      24.282  44.543  48.248  1.00  0.00    -0.262 N 
HETATM    3  O   UNL     1      22.128  43.725  48.473  1.00  0.00    -0.264 OA
HETATM    4  H   UNL     1      24.836  45.399  48.280  1.00  0.00     0.190 HD
ENDROOT
BRANCH   2   5
HETATM    5  N   UNL     1      24.916  43.333  48.519  1.00  0.00    -0.273 N 
HETATM    6  H   UNL     1      24.652  42.518  47.956  1.00  0.00     0.189 HD
BRANCH   5   7
HETATM    7  C   UNL     1      26.073  43.271  49.253  1.00  0.00     0.192 C 
HETATM    8  S   UNL     1      26.875  41.852  49.652  1.00  0.00    -0.039 SA
BRANCH   7   9
HETATM    9  N   UNL     1      26.596  44.452  49.700  1.00  0.00    -0.315 N 
HETATM   10  H   UNL     1      27.212  44.929  49.057  1.00  0.00     0.170 HD
BRANCH   9  11
HETATM   11  C   UNL     1      26.463  45.005  50.957  1.00  0.00     0.151 A 
HETATM   12  N   UNL     1      26.679  44.342  52.097  1.00  0.00    -0.154 NA
HETATM   13  N   UNL     1      26.481  45.265  53.062  1.00  0.00    -0.275 N 
HETATM   14  C   UNL     1      26.124  46.486  52.570  1.00  0.00     0.116 A 
HETATM   15  C   UNL     1      26.097  46.347  51.202  1.00  0.00     0.071 A 
BRANCH  13  16
HETATM   16  C   UNL     1      26.588  44.887  54.466  1.00  0.00     0.192 C 
BRANCH  16  17
HETATM   17  C   UNL     1      28.009  44.595  54.854  1.00  0.00     0.000 A 
HETATM   18  C   UNL     1      28.750  45.533  55.577  1.00  0.00     0.124 A 
HETATM   19  F   UNL     1      28.181  46.692  55.937  1.00  0.00    -0.205 F 
HETATM   20  C   UNL     1      30.071  45.290  55.940  1.00  0.00     0.043 A 
HETATM   21  C   UNL     1      30.676  44.089  55.574  1.00  0.00     0.003 A 
HETATM   22  C   UNL     1      29.956  43.142  54.843  1.00  0.00     0.001 A 
HETATM   23  C   UNL     1      28.631  43.395  54.479  1.00  0.00     0.012 A 
ENDBRANCH  16  17
ENDBRANCH  13  16
ENDBRANCH   9  11
ENDBRANCH   7   9
ENDBRANCH   5   7
ENDBRANCH   2   5
BRANCH   1  24
HETATM   24  C   UNL     1      22.478  46.069  48.283  1.00  0.00     0.150 A 
HETATM   25  N   UNL     1      22.978  47.000  49.130  1.00  0.00    -0.165 NA
HETATM   26  N   UNL     1      22.359  48.129  48.754  1.00  0.00    -0.240 N 
HETATM   27  C   UNL     1      21.413  47.955  47.785  1.00  0.00     0.123 A 
HETATM   28  C   UNL     1      22.633  49.402  49.395  1.00  0.00     0.221 C 
HETATM   29  N   UNL     1      20.606  48.967  47.397  1.00  0.00    -0.371 N 
HETATM   30  C   UNL     1      21.506  46.638  47.412  1.00  0.00     0.089 A 
HETATM   31  C   UNL     1      20.767  50.320  47.926  1.00  0.00     0.081 C 
HETATM   32  H   UNL     1      20.020  48.870  46.569  1.00  0.00     0.161 HD
HETATM   33  C   UNL     1      19.404  51.010  47.954  1.00  0.00     0.032 C 
HETATM   34  C   UNL     1      21.370  50.275  49.342  1.00  0.00     0.061 C 
BRANCH  28  35
HETATM   35  C   UNL     1      23.826  50.058  48.736  1.00  0.00     0.409 C 
HETATM   36  F   UNL     1      25.002  49.542  49.156  1.00  0.00    -0.169 F 
HETATM   37  F   UNL     1      23.806  49.985  47.388  1.00  0.00    -0.169 F 
HETATM   38  F   UNL     1      23.854  51.380  49.051  1.00  0.00    -0.169 F 
ENDBRANCH  28  35
ENDBRANCH   1  24
TORSDOF 8
ENDMDL
MODEL 5
REMARK VINA RESULT:      -8.8      2.282      3.257
REMARK  8 active torsions:
REMARK  status: ('A' for Active; 'I' for Inactive)
REMARK    1  A    between atoms: C_7  and  C_8 
REMARK       I    between atoms: C_8  and  N_9 
REMARK    2  A    between atoms: N_9  and  N_10 
REMARK    3  A    between atoms: N_10  and  C_11 
REMARK    4  A    between atoms: C_11  and  N_12 
REMARK    5  A    between atoms: N_12  and  C_13 
REMARK    6  A    between atoms: N_15  and  C_16 
REMARK    7  A    between atoms: C_16  and  C_17 
REMARK    8  A    between atoms: C_29  and  C_30 
ROOT
HETATM    1  C   UNL     1      22.962  44.032  48.239  1.00  0.00     0.290 C 
HETATM    2  N   UNL     1      24.286  43.808  47.916  1.00  0.00    -0.262 N 
HETATM    3  O   UNL     1      22.111  43.157  48.366  1.00  0.00    -0.264 OA
HETATM    4  H   UNL     1      24.928  44.599  47.971  1.00  0.00     0.190 HD
ENDROOT
BRANCH   2   5
HETATM    5  N   UNL     1      24.819  42.521  47.929  1.00  0.00    -0.273 N 
HETATM    6  H   UNL     1      24.599  41.905  47.139  1.00  0.00     0.189 HD
BRANCH   5   7
HETATM    7  C   UNL     1      25.857  42.176  48.755  1.00  0.00     0.192 C 
HETATM    8  S   UNL     1      26.203  40.610  49.249  1.00  0.00    -0.039 SA
BRANCH   7   9
HETATM    9  N   UNL     1      26.653  43.186  49.219  1.00  0.00    -0.315 N 
HETATM   10  H   UNL     1      27.411  43.460  48.610  1.00  0.00     0.170 HD
BRANCH   9  11
HETATM   11  C   UNL     1      26.602  43.793  50.457  1.00  0.00     0.151 A 
HETATM   12  N   UNL     1      26.698  43.140  51.619  1.00  0.00    -0.154 NA
HETATM   13  N   UNL     1      26.645  44.112  52.554  1.00  0.00    -0.275 N 
HETATM   14  C   UNL     1      26.495  45.359  52.021  1.00  0.00     0.116 A 
HETATM   15  C   UNL     1      26.456  45.183  50.658  1.00  0.00     0.071 A 
BRANCH  13  16
HETATM   16  C   UNL     1      26.678  43.766  53.969  1.00  0.00     0.192 C 
BRANCH  16  17
HETATM   17  C   UNL     1      28.053  43.939  54.550  1.00  0.00     0.000 A 
HETATM   18  C   UNL     1      28.376  45.096  55.263  1.00  0.00     0.124 A 
HETATM   19  F   UNL     1      27.449  46.047  55.441  1.00  0.00    -0.205 F 
HETATM   20  C   UNL     1      29.645  45.284  55.802  1.00  0.00     0.043 A 
HETATM   21  C   UNL     1      30.621  44.304  55.627  1.00  0.00     0.003 A 
HETATM   22  C   UNL     1      30.320  43.145  54.909  1.00  0.00     0.001 A 
HETATM   23  C   UNL     1      29.045  42.964  54.368  1.00  0.00     0.012 A 
ENDBRANCH  16  17
ENDBRANCH  13  16
ENDBRANCH   9  11
ENDBRANCH   7   9
ENDBRANCH   5   7
ENDBRANCH   2   5
BRANCH   1  24
HETATM   24  C   UNL     1      22.680  45.465  48.426  1.00  0.00     0.150 A 
HETATM   25  N   UNL     1      21.713  46.093  47.716  1.00  0.00    -0.165 NA
HETATM   26  N   UNL     1      21.758  47.353  48.174  1.00  0.00    -0.240 N 
HETATM   27  C   UNL     1      22.769  47.593  49.061  1.00  0.00     0.123 A 
HETATM   28  C   UNL     1      20.849  48.375  47.692  1.00  0.00     0.221 C 
HETATM   29  N   UNL     1      23.035  48.840  49.506  1.00  0.00    -0.371 N 
HETATM   30  C   UNL     1      23.351  46.372  49.295  1.00  0.00     0.089 A 
HETATM   31  C   UNL     1      22.198  49.980  49.137  1.00  0.00     0.081 C 
HETATM   32  H   UNL     1      23.679  48.982  50.283  1.00  0.00     0.161 HD
HETATM   33  C   UNL     1      23.059  51.241  49.102  1.00  0.00     0.032 C 
HETATM   34  C   UNL     1      21.544  49.744  47.763  1.00  0.00     0.061 C 
BRANCH  28  35
HETATM   35  C   UNL     1      19.563  48.331  48.487  1.00  0.00     0.409 C 
HETATM   36  F   UNL     1      19.720  47.757  49.700  1.00  0.00    -0.169 F 
HETATM   37  F   UNL     1      19.007  49.547  48.681  1.00  0.00    -0.169 F 
HETATM   38  F   UNL     1      18.640  47.585  47.827  1.00  0.00    -0.169 F 
ENDBRANCH  28  35
ENDBRANCH   1  24
TORSDOF 8
ENDMDL
MODEL 6
REMARK VINA RESULT:      -8.8      3.040      4.617
REMARK  8 active torsions:
REMARK  status: ('A' for Active; 'I' for Inactive)
REMARK    1  A    between atoms: C_7  and  C_8 
REMARK       I    between atoms: C_8  and  N_9 
REMARK    2  A    between atoms: N_9  and  N_10 
REMARK    3  A    between atoms: N_10  and  C_11 
REMARK    4  A    between atoms: C_11  and  N_12 
REMARK    5  A    between atoms: N_12  and  C_13 
REMARK    6  A    between atoms: N_15  and  C_16 
REMARK    7  A    between atoms: C_16  and  C_17 
REMARK    8  A    between atoms: C_29  and  C_30 
ROOT
HETATM    1  C   UNL     1      22.252  48.741  48.597  1.00  0.00     0.290 C 
HETATM    2  N   UNL     1      22.513  47.799  49.572  1.00  0.00    -0.262 N 
HETATM    3  O   UNL     1      23.015  49.037  47.682  1.00  0.00    -0.264 OA
HETATM    4  H   UNL     1      21.752  47.543  50.200  1.00  0.00     0.190 HD
ENDROOT
BRANCH   2   5
HETATM    5  N   UNL     1      23.597  46.931  49.458  1.00  0.00    -0.273 N 
HETATM    6  H   UNL     1      24.457  47.173  49.962  1.00  0.00     0.189 HD
BRANCH   5   7
HETATM    7  C   UNL     1      23.453  45.651  48.991  1.00  0.00     0.192 C 
HETATM    8  S   UNL     1      22.002  44.981  48.477  1.00  0.00    -0.039 SA
BRANCH   7   9
HETATM    9  N   UNL     1      24.571  44.865  48.956  1.00  0.00    -0.315 N 
HETATM   10  H   UNL     1      24.742  44.385  48.084  1.00  0.00     0.170 HD
BRANCH   9  11
HETATM   11  C   UNL     1      25.423  44.574  50.001  1.00  0.00     0.151 A 
HETATM   12  N   UNL     1      25.038  44.452  51.275  1.00  0.00    -0.154 NA
HETATM   13  N   UNL     1      26.168  44.125  51.936  1.00  0.00    -0.275 N 
HETATM   14  C   UNL     1      27.263  44.058  51.124  1.00  0.00     0.116 A 
HETATM   15  C   UNL     1      26.811  44.352  49.859  1.00  0.00     0.071 A 
BRANCH  13  16
HETATM   16  C   UNL     1      26.142  43.950  53.383  1.00  0.00     0.192 C 
BRANCH  16  17
HETATM   17  C   UNL     1      27.099  44.882  54.071  1.00  0.00     0.000 A 
HETATM   18  C   UNL     1      28.247  44.384  54.689  1.00  0.00     0.124 A 
HETATM   19  F   UNL     1      28.502  43.069  54.655  1.00  0.00    -0.205 F 
HETATM   20  C   UNL     1      29.143  45.226  55.341  1.00  0.00     0.043 A 
HETATM   21  C   UNL     1      28.893  46.597  55.385  1.00  0.00     0.003 A 
HETATM   22  C   UNL     1      27.746  47.113  54.781  1.00  0.00     0.001 A 
HETATM   23  C   UNL     1      26.849  46.262  54.131  1.00  0.00     0.012 A 
ENDBRANCH  16  17
ENDBRANCH  13  16
ENDBRANCH   9  11
ENDBRANCH   7   9
ENDBRANCH   5   7
ENDBRANCH   2   5
BRANCH   1  24
HETATM   24  C   UNL     1      20.928  49.360  48.775  1.00  0.00     0.150 A 
HETATM   25  N   UNL     1      19.930  49.161  47.883  1.00  0.00    -0.165 NA
HETATM   26  N   UNL     1      18.909  49.865  48.394  1.00  0.00    -0.240 N 
HETATM   27  C   UNL     1      19.228  50.590  49.507  1.00  0.00     0.123 A 
HETATM   28  C   UNL     1      17.607  49.900  47.755  1.00  0.00     0.221 C 
HETATM   29  N   UNL     1      18.352  51.457  50.059  1.00  0.00    -0.371 N 
HETATM   30  C   UNL     1      20.517  50.237  49.819  1.00  0.00     0.089 A 
HETATM   31  C   UNL     1      16.988  51.595  49.552  1.00  0.00     0.081 C 
HETATM   32  H   UNL     1      18.540  51.867  50.972  1.00  0.00     0.161 HD
HETATM   33  C   UNL     1      16.513  53.029  49.780  1.00  0.00     0.032 C 
HETATM   34  C   UNL     1      16.936  51.250  48.052  1.00  0.00     0.061 C 
BRANCH  28  35
HETATM   35  C   UNL     1      16.779  48.722  48.216  1.00  0.00     0.409 C 
HETATM   36  F   UNL     1      17.205  48.216  49.394  1.00  0.00    -0.169 F 
HETATM   37  F   UNL     1      15.464  49.003  48.344  1.00  0.00    -0.169 F 
HETATM   38  F   UNL     1      16.872  47.713  47.310  1.00  0.00    -0.169 F 
ENDBRANCH  28  35
ENDBRANCH   1  24
TORSDOF 8
ENDMDL
MODEL 7
REMARK VINA RESULT:      -8.8      2.335      3.562
REMARK  8 active torsions:
REMARK  status: ('A' for Active; 'I' for Inactive)
REMARK    1  A    between atoms: C_7  and  C_8 
REMARK       I    between atoms: C_8  and  N_9 
REMARK    2  A    between atoms: N_9  and  N_10 
REMARK    3  A    between atoms: N_10  and  C_11 
REMARK    4  A    between atoms: C_11  and  N_12 
REMARK    5  A    between atoms: N_12  and  C_13 
REMARK    6  A    between atoms: N_15  and  C_16 
REMARK    7  A    between atoms: C_16  and  C_17 
REMARK    8  A    between atoms: C_29  and  C_30 
ROOT
HETATM    1  C   UNL     1      22.008  47.217  48.438  1.00  0.00     0.290 C 
HETATM    2  N   UNL     1      21.647  45.885  48.395  1.00  0.00    -0.262 N 
HETATM    3  O   UNL     1      23.154  47.632  48.583  1.00  0.00    -0.264 OA
HETATM    4  H   UNL     1      20.686  45.663  48.136  1.00  0.00     0.190 HD
ENDROOT
BRANCH   2   5
HETATM    5  N   UNL     1      22.610  44.885  48.287  1.00  0.00    -0.273 N 
HETATM    6  H   UNL     1      23.114  44.800  47.398  1.00  0.00     0.189 HD
BRANCH   5   7
HETATM    7  C   UNL     1      23.123  44.253  49.390  1.00  0.00     0.192 C 
HETATM    8  S   UNL     1      23.415  42.603  49.496  1.00  0.00    -0.039 SA
BRANCH   7   9
HETATM    9  N   UNL     1      23.401  45.025  50.483  1.00  0.00    -0.315 N 
HETATM   10  H   UNL     1      22.769  45.797  50.646  1.00  0.00     0.170 HD
BRANCH   9  11
HETATM   11  C   UNL     1      24.495  44.933  51.319  1.00  0.00     0.151 A 
HETATM   12  N   UNL     1      24.456  44.432  52.557  1.00  0.00    -0.154 NA
HETATM   13  N   UNL     1      25.735  44.494  52.983  1.00  0.00    -0.275 N 
HETATM   14  C   UNL     1      26.580  45.040  52.061  1.00  0.00     0.116 A 
HETATM   15  C   UNL     1      25.801  45.343  50.970  1.00  0.00     0.071 A 
BRANCH  13  16
HETATM   16  C   UNL     1      26.076  44.065  54.333  1.00  0.00     0.192 C 
BRANCH  16  17
HETATM   17  C   UNL     1      27.546  43.787  54.472  1.00  0.00     0.000 A 
HETATM   18  C   UNL     1      28.390  44.733  55.058  1.00  0.00     0.124 A 
HETATM   19  F   UNL     1      27.881  45.887  55.511  1.00  0.00    -0.205 F 
HETATM   20  C   UNL     1      29.756  44.503  55.189  1.00  0.00     0.043 A 
HETATM   21  C   UNL     1      30.302  43.308  54.725  1.00  0.00     0.003 A 
HETATM   22  C   UNL     1      29.476  42.353  54.127  1.00  0.00     0.001 A 
HETATM   23  C   UNL     1      28.106  42.592  53.995  1.00  0.00     0.012 A 
ENDBRANCH  16  17
ENDBRANCH  13  16
ENDBRANCH   9  11
ENDBRANCH   7   9
ENDBRANCH   5   7
ENDBRANCH   2   5
BRANCH   1  24
HETATM   24  C   UNL     1      20.844  48.105  48.280  1.00  0.00     0.150 A 
HETATM   25  N   UNL     1      20.311  48.765  49.334  1.00  0.00    -0.165 NA
HETATM   26  N   UNL     1      19.300  49.460  48.789  1.00  0.00    -0.240 N 
HETATM   27  C   UNL     1      19.090  49.200  47.465  1.00  0.00     0.123 A 
HETATM   28  C   UNL     1      18.467  50.346  49.580  1.00  0.00     0.221 C 
HETATM   29  N   UNL     1      18.027  49.711  46.807  1.00  0.00    -0.371 N 
HETATM   30  C   UNL     1      20.114  48.369  47.086  1.00  0.00     0.089 A 
HETATM   31  C   UNL     1      17.103  50.643  47.450  1.00  0.00     0.081 C 
HETATM   32  H   UNL     1      17.969  49.643  45.792  1.00  0.00     0.161 HD
HETATM   33  C   UNL     1      15.712  50.465  46.844  1.00  0.00     0.032 C 
HETATM   34  C   UNL     1      17.058  50.391  48.969  1.00  0.00     0.061 C 
BRANCH  28  35
HETATM   35  C   UNL     1      19.111  51.711  49.666  1.00  0.00     0.409 C 
HETATM   36  F   UNL     1      19.610  52.127  48.481  1.00  0.00    -0.169 F 
HETATM   37  F   UNL     1      18.277  52.673  50.118  1.00  0.00    -0.169 F 
HETATM   38  F   UNL     1      20.159  51.672  50.531  1.00  0.00    -0.169 F 
ENDBRANCH  28  35
ENDBRANCH   1  24
TORSDOF 8
ENDMDL
MODEL 8
REMARK VINA RESULT:      -8.8      3.064     10.263
REMARK  8 active torsions:
REMARK  status: ('A' for Active; 'I' for Inactive)
REMARK    1  A    between atoms: C_7  and  C_8 
REMARK       I    between atoms: C_8  and  N_9 
REMARK    2  A    between atoms: N_9  and  N_10 
REMARK    3  A    between atoms: N_10  and  C_11 
REMARK    4  A    between atoms: C_11  and  N_12 
REMARK    5  A    between atoms: N_12  and  C_13 
REMARK    6  A    between atoms: N_15  and  C_16 
REMARK    7  A    between atoms: C_16  and  C_17 
REMARK    8  A    between atoms: C_29  and  C_30 
ROOT
HETATM    1  C   UNL     1      24.275  44.247  49.993  1.00  0.00     0.290 C 
HETATM    2  N   UNL     1      23.138  45.007  50.183  1.00  0.00    -0.262 N 
HETATM    3  O   UNL     1      24.470  43.500  49.038  1.00  0.00    -0.264 OA
HETATM    4  H   UNL     1      23.145  45.689  50.941  1.00  0.00     0.190 HD
ENDROOT
BRANCH   2   5
HETATM    5  N   UNL     1      22.197  45.157  49.166  1.00  0.00    -0.273 N 
HETATM    6  H   UNL     1      21.306  44.661  49.263  1.00  0.00     0.189 HD
BRANCH   5   7
HETATM    7  C   UNL     1      22.285  46.168  48.245  1.00  0.00     0.192 C 
HETATM    8  S   UNL     1      21.342  46.281  46.860  1.00  0.00    -0.039 SA
BRANCH   7   9
HETATM    9  N   UNL     1      23.217  47.142  48.467  1.00  0.00    -0.315 N 
HETATM   10  H   UNL     1      24.177  46.829  48.504  1.00  0.00     0.170 HD
BRANCH   9  11
HETATM   11  C   UNL     1      22.988  48.473  48.749  1.00  0.00     0.151 A 
HETATM   12  N   UNL     1      22.033  48.914  49.575  1.00  0.00    -0.154 NA
HETATM   13  N   UNL     1      22.197  50.254  49.590  1.00  0.00    -0.275 N 
HETATM   14  C   UNL     1      23.211  50.678  48.781  1.00  0.00     0.116 A 
HETATM   15  C   UNL     1      23.741  49.542  48.215  1.00  0.00     0.071 A 
BRANCH  13  16
HETATM   16  C   UNL     1      21.289  51.091  50.364  1.00  0.00     0.192 C 
BRANCH  16  17
HETATM   17  C   UNL     1      19.961  51.247  49.680  1.00  0.00     0.000 A 
HETATM   18  C   UNL     1      18.850  50.527  50.125  1.00  0.00     0.124 A 
HETATM   19  F   UNL     1      18.969  49.704  51.176  1.00  0.00    -0.205 F 
HETATM   20  C   UNL     1      17.611  50.648  49.502  1.00  0.00     0.043 A 
HETATM   21  C   UNL     1      17.470  51.501  48.409  1.00  0.00     0.003 A 
HETATM   22  C   UNL     1      18.571  52.222  47.943  1.00  0.00     0.001 A 
HETATM   23  C   UNL     1      19.812  52.093  48.571  1.00  0.00     0.012 A 
ENDBRANCH  16  17
ENDBRANCH  13  16
ENDBRANCH   9  11
ENDBRANCH   7   9
ENDBRANCH   5   7
ENDBRANCH   2   5
BRANCH   1  24
HETATM   24  C   UNL     1      25.250  44.439  51.078  1.00  0.00     0.150 A 
HETATM   25  N   UNL     1      25.836  43.386  51.696  1.00  0.00    -0.165 NA
HETATM   26  N   UNL     1      26.648  43.964  52.595  1.00  0.00    -0.240 N 
HETATM   27  C   UNL     1      26.536  45.324  52.660  1.00  0.00     0.123 A 
HETATM   28  C   UNL     1      27.504  43.183  53.467  1.00  0.00     0.221 C 
HETATM   29  N   UNL     1      27.181  46.040  53.606  1.00  0.00    -0.371 N 
HETATM   30  C   UNL     1      25.680  45.672  51.645  1.00  0.00     0.089 A 
HETATM   31  C   UNL     1      28.104  45.409  54.548  1.00  0.00     0.081 C 
HETATM   32  H   UNL     1      27.219  47.057  53.546  1.00  0.00     0.161 HD
HETATM   33  C   UNL     1      28.081  46.184  55.864  1.00  0.00     0.032 C 
HETATM   34  C   UNL     1      27.705  43.941  54.788  1.00  0.00     0.061 C 
BRANCH  28  35
HETATM   35  C   UNL     1      28.808  42.879  52.763  1.00  0.00     0.409 C 
HETATM   36  F   UNL     1      29.175  43.853  51.903  1.00  0.00    -0.169 F 
HETATM   37  F   UNL     1      29.840  42.670  53.609  1.00  0.00    -0.169 F 
HETATM   38  F   UNL     1      28.678  41.745  52.026  1.00  0.00    -0.169 F 
ENDBRANCH  28  35
ENDBRANCH   1  24
TORSDOF 8
ENDMDL
MODEL 9
REMARK VINA RESULT:      -8.7      2.388      3.213
REMARK  8 active torsions:
REMARK  status: ('A' for Active; 'I' for Inactive)
REMARK    1  A    between atoms: C_7  and  C_8 
REMARK       I    between atoms: C_8  and  N_9 
REMARK    2  A    between atoms: N_9  and  N_10 
REMARK    3  A    between atoms: N_10  and  C_11 
REMARK    4  A    between atoms: C_11  and  N_12 
REMARK    5  A    between atoms: N_12  and  C_13 
REMARK    6  A    between atoms: N_15  and  C_16 
REMARK    7  A    between atoms: C_16  and  C_17 
REMARK    8  A    between atoms: C_29  and  C_30 
ROOT
HETATM    1  C   UNL     1      24.042  48.389  49.488  1.00  0.00     0.290 C 
HETATM    2  N   UNL     1      23.929  47.083  49.921  1.00  0.00    -0.262 N 
HETATM    3  O   UNL     1      25.102  48.971  49.275  1.00  0.00    -0.264 OA
HETATM    4  H   UNL     1      22.999  46.667  49.933  1.00  0.00     0.190 HD
ENDROOT
BRANCH   2   5
HETATM    5  N   UNL     1      25.034  46.235  49.936  1.00  0.00    -0.273 N 
HETATM    6  H   UNL     1      25.948  46.644  50.154  1.00  0.00     0.189 HD
BRANCH   5   7
HETATM    7  C   UNL     1      24.899  44.872  49.997  1.00  0.00     0.192 C 
HETATM    8  S   UNL     1      23.453  44.046  49.779  1.00  0.00    -0.039 SA
BRANCH   7   9
HETATM    9  N   UNL     1      26.021  44.141  50.270  1.00  0.00    -0.315 N 
HETATM   10  H   UNL     1      26.420  43.643  49.487  1.00  0.00     0.170 HD
BRANCH   9  11
HETATM   11  C   UNL     1      26.601  43.924  51.503  1.00  0.00     0.151 A 
HETATM   12  N   UNL     1      27.918  43.827  51.708  1.00  0.00    -0.154 NA
HETATM   13  N   UNL     1      28.037  43.665  53.043  1.00  0.00    -0.275 N 
HETATM   14  C   UNL     1      26.835  43.633  53.688  1.00  0.00     0.116 A 
HETATM   15  C   UNL     1      25.880  43.792  52.711  1.00  0.00     0.071 A 
BRANCH  13  16
HETATM   16  C   UNL     1      29.353  43.478  53.640  1.00  0.00     0.192 C 
BRANCH  16  17
HETATM   17  C   UNL     1      29.529  44.323  54.870  1.00  0.00     0.000 A 
HETATM   18  C   UNL     1      30.511  44.005  55.809  1.00  0.00     0.124 A 
HETATM   19  F   UNL     1      31.310  42.948  55.603  1.00  0.00    -0.205 F 
HETATM   20  C   UNL     1      30.688  44.766  56.961  1.00  0.00     0.043 A 
HETATM   21  C   UNL     1      29.867  45.869  57.189  1.00  0.00     0.003 A 
HETATM   22  C   UNL     1      28.872  46.198  56.267  1.00  0.00     0.001 A 
HETATM   23  C   UNL     1      28.699  45.427  55.115  1.00  0.00     0.012 A 
ENDBRANCH  16  17
ENDBRANCH  13  16
ENDBRANCH   9  11
ENDBRANCH   7   9
ENDBRANCH   5   7
ENDBRANCH   2   5
BRANCH   1  24
HETATM   24  C   UNL     1      22.725  49.019  49.298  1.00  0.00     0.150 A 
HETATM   25  N   UNL     1      21.710  48.363  48.689  1.00  0.00    -0.165 NA
HETATM   26  N   UNL     1      20.702  49.248  48.721  1.00  0.00    -0.240 N 
HETATM   27  C   UNL     1      21.045  50.472  49.222  1.00  0.00     0.123 A 
HETATM   28  C   UNL     1      19.389  48.933  48.191  1.00  0.00     0.221 C 
HETATM   29  N   UNL     1      20.184  51.511  49.194  1.00  0.00    -0.371 N 
HETATM   30  C   UNL     1      22.338  50.340  49.664  1.00  0.00     0.089 A 
HETATM   31  C   UNL     1      18.812  51.358  48.714  1.00  0.00     0.081 C 
HETATM   32  H   UNL     1      20.391  52.365  49.711  1.00  0.00     0.161 HD
HETATM   33  C   UNL     1      18.349  52.674  48.094  1.00  0.00     0.032 C 
HETATM   34  C   UNL     1      18.731  50.223  47.676  1.00  0.00     0.061 C 
BRANCH  28  35
HETATM   35  C   UNL     1      18.564  48.237  49.249  1.00  0.00     0.409 C 
HETATM   36  F   UNL     1      19.079  48.382  50.490  1.00  0.00    -0.169 F 
HETATM   37  F   UNL     1      17.279  48.652  49.290  1.00  0.00    -0.169 F 
HETATM   38  F   UNL     1      18.530  46.902  49.002  1.00  0.00    -0.169 F 
ENDBRANCH  28  35
ENDBRANCH   1  24
TORSDOF 8
ENDMDL
MODEL 10
REMARK VINA RESULT:      -8.6     13.706     14.474
REMARK  8 active torsions:
REMARK  status: ('A' for Active; 'I' for Inactive)
REMARK    1  A    between atoms: C_7  and  C_8 
REMARK       I    between atoms: C_8  and  N_9 
REMARK    2  A    between atoms: N_9  and  N_10 
REMARK    3  A    between atoms: N_10  and  C_11 
REMARK    4  A    between atoms: C_11  and  N_12 
REMARK    5  A    between atoms: N_12  and  C_13 
REMARK    6  A    between atoms: N_15  and  C_16 
REMARK    7  A    between atoms: C_16  and  C_17 
REMARK    8  A    between atoms: C_29  and  C_30 
ROOT
HETATM    1  C   UNL     1      32.540  51.627  43.923  1.00  0.00     0.290 C 
HETATM    2  N   UNL     1      33.763  51.803  43.307  1.00  0.00    -0.262 N 
HETATM    3  O   UNL     1      32.353  51.655  45.136  1.00  0.00    -0.264 OA
HETATM    4  H   UNL     1      33.773  51.893  42.291  1.00  0.00     0.190 HD
ENDROOT
BRANCH   2   5
HETATM    5  N   UNL     1      34.868  52.258  44.023  1.00  0.00    -0.273 N 
HETATM    6  H   UNL     1      34.737  52.480  45.015  1.00  0.00     0.189 HD
BRANCH   5   7
HETATM    7  C   UNL     1      36.147  52.106  43.553  1.00  0.00     0.192 C 
HETATM    8  S   UNL     1      36.584  52.183  41.933  1.00  0.00    -0.039 SA
BRANCH   7   9
HETATM    9  N   UNL     1      37.128  51.859  44.471  1.00  0.00    -0.315 N 
HETATM   10  H   UNL     1      37.299  50.884  44.678  1.00  0.00     0.170 HD
BRANCH   9  11
HETATM   11  C   UNL     1      37.831  52.783  45.216  1.00  0.00     0.151 A 
HETATM   12  N   UNL     1      38.600  52.475  46.265  1.00  0.00    -0.154 NA
HETATM   13  N   UNL     1      39.121  53.658  46.655  1.00  0.00    -0.275 N 
HETATM   14  C   UNL     1      38.688  54.709  45.901  1.00  0.00     0.116 A 
HETATM   15  C   UNL     1      37.841  54.172  44.960  1.00  0.00     0.071 A 
BRANCH  13  16
HETATM   16  C   UNL     1      39.993  53.721  47.821  1.00  0.00     0.192 C 
BRANCH  16  17
HETATM   17  C   UNL     1      41.391  54.123  47.446  1.00  0.00     0.000 A 
HETATM   18  C   UNL     1      42.227  53.227  46.778  1.00  0.00     0.124 A 
HETATM   19  F   UNL     1      41.773  52.007  46.458  1.00  0.00    -0.205 F 
HETATM   20  C   UNL     1      43.529  53.573  46.428  1.00  0.00     0.043 A 
HETATM   21  C   UNL     1      44.017  54.837  46.753  1.00  0.00     0.003 A 
HETATM   22  C   UNL     1      43.200  55.745  47.430  1.00  0.00     0.001 A 
HETATM   23  C   UNL     1      41.895  55.390  47.780  1.00  0.00     0.012 A 
ENDBRANCH  16  17
ENDBRANCH  13  16
ENDBRANCH   9  11
ENDBRANCH   7   9
ENDBRANCH   5   7
ENDBRANCH   2   5
BRANCH   1  24
HETATM   24  C   UNL     1      31.462  51.406  42.946  1.00  0.00     0.150 A 
HETATM   25  N   UNL     1      30.626  52.406  42.578  1.00  0.00    -0.165 NA
HETATM   26  N   UNL     1      29.812  51.820  41.686  1.00  0.00    -0.240 N 
HETATM   27  C   UNL     1      30.013  50.477  41.540  1.00  0.00     0.123 A 
HETATM   28  C   UNL     1      28.765  52.558  41.005  1.00  0.00     0.221 C 
HETATM   29  N   UNL     1      29.188  49.719  40.786  1.00  0.00    -0.371 N 
HETATM   30  C   UNL     1      31.118  50.185  42.299  1.00  0.00     0.089 A 
HETATM   31  C   UNL     1      28.096  50.309  40.013  1.00  0.00     0.081 C 
HETATM   32  H   UNL     1      29.438  48.758  40.557  1.00  0.00     0.161 HD
HETATM   33  C   UNL     1      26.954  49.301  39.910  1.00  0.00     0.032 C 
HETATM   34  C   UNL     1      27.603  51.605  40.685  1.00  0.00     0.061 C 
BRANCH  28  35
HETATM   35  C   UNL     1      29.330  53.226  39.772  1.00  0.00     0.409 C 
HETATM   36  F   UNL     1      28.487  53.168  38.717  1.00  0.00    -0.169 F 
HETATM   37  F   UNL     1      29.657  54.522  39.962  1.00  0.00    -0.169 F 
HETATM   38  F   UNL     1      30.469  52.593  39.387  1.00  0.00    -0.169 F 
ENDBRANCH  28  35
ENDBRANCH   1  24
TORSDOF 8
ENDMDL
