MODEL 1
REMARK VINA RESULT:      -8.3      0.000      0.000
REMARK  5 active torsions:
REMARK  status: ('A' for Active; 'I' for Inactive)
REMARK       I    between atoms: C_2  and  N_3 
REMARK    1  A    between atoms: N_3  and  C_4 
REMARK    2  A    between atoms: C_7  and  C_8 
REMARK    3  A    between atoms: C_8  and  N_9 
REMARK    4  A    between atoms: C_12  and  C_13 
REMARK    5  A    between atoms: C_14  and  O_15 
ROOT
HETATM    1  N   UNL     1      25.920  46.725  49.855  1.00  0.00    -0.060 N 
HETATM    2  H   UNL     1      25.405  46.692  50.741  1.00  0.00     0.280 HD
HETATM    3  C   UNL     1      27.275  46.037  50.054  1.00  0.00     0.272 C 
HETATM    4  C   UNL     1      27.220  44.585  50.597  1.00  0.00     0.190 C 
HETATM    5  O   UNL     1      26.576  43.718  49.633  1.00  0.00    -0.339 OA
HETATM    6  C   UNL     1      25.215  43.668  49.728  1.00  0.00     0.077 A 
HETATM    7  C   UNL     1      24.425  44.764  49.388  1.00  0.00     0.001 A 
HETATM    8  C   UNL     1      25.053  46.007  48.849  1.00  0.00     0.276 C 
HETATM    9  C   UNL     1      24.634  42.453  50.084  1.00  0.00     0.037 A 
HETATM   10  C   UNL     1      23.249  42.344  50.181  1.00  0.00     0.003 A 
HETATM   11  C   UNL     1      22.447  43.444  49.897  1.00  0.00     0.001 A 
HETATM   12  C   UNL     1      23.029  44.649  49.493  1.00  0.00     0.012 A 
ENDROOT
BRANCH   1  13
HETATM   13  C   UNL     1      26.059  48.180  49.463  1.00  0.00     0.273 C 
BRANCH  13  14
HETATM   14  C   UNL     1      24.770  48.864  49.095  1.00  0.00    -0.032 A 
HETATM   15  C   UNL     1      23.556  48.389  49.609  1.00  0.00     0.011 A 
HETATM   16  C   UNL     1      22.348  49.017  49.285  1.00  0.00     0.030 A 
HETATM   17  C   UNL     1      22.325  50.134  48.452  1.00  0.00     0.034 A 
HETATM   18  C   UNL     1      23.538  50.608  47.936  1.00  0.00     0.030 A 
HETATM   19  C   UNL     1      24.750  49.979  48.249  1.00  0.00     0.011 A 
BRANCH  17  20
HETATM   20  N   UNL     1      21.151  50.835  48.109  1.00  0.00    -0.328 N 
HETATM   21  C   UNL     1      20.246  51.425  48.977  1.00  0.00     0.218 C 
HETATM   22  C   UNL     1      19.136  52.156  48.263  1.00  0.00     0.117 C 
HETATM   23  O   UNL     1      20.298  51.414  50.202  1.00  0.00    -0.274 OA
HETATM   24  H   UNL     1      20.953  50.927  47.121  1.00  0.00     0.169 HD
ENDBRANCH  17  20
ENDBRANCH  13  14
ENDBRANCH   1  13
BRANCH   4  25
HETATM   25  C   UNL     1      26.841  44.358  52.066  1.00  0.00     0.006 A 
HETATM   26  C   UNL     1      27.604  43.452  52.844  1.00  0.00     0.077 A 
HETATM   27  C   UNL     1      27.261  43.204  54.177  1.00  0.00     0.037 A 
HETATM   28  C   UNL     1      26.190  43.870  54.766  1.00  0.00     0.003 A 
HETATM   29  C   UNL     1      25.468  44.804  54.035  1.00  0.00     0.001 A 
HETATM   30  C   UNL     1      25.797  45.056  52.701  1.00  0.00     0.012 A 
BRANCH  26  31
HETATM   31  O   UNL     1      28.681  42.884  52.211  1.00  0.00    -0.355 OA
HETATM   32  C   UNL     1      29.944  42.947  52.864  1.00  0.00     0.210 C 
ENDBRANCH  26  31
ENDBRANCH   4  25
TORSDOF 5
ENDMDL
MODEL 2
REMARK VINA RESULT:      -8.2      5.496     11.577
REMARK  5 active torsions:
REMARK  status: ('A' for Active; 'I' for Inactive)
REMARK       I    between atoms: C_2  and  N_3 
REMARK    1  A    between atoms: N_3  and  C_4 
REMARK    2  A    between atoms: C_7  and  C_8 
REMARK    3  A    between atoms: C_8  and  N_9 
REMARK    4  A    between atoms: C_12  and  C_13 
REMARK    5  A    between atoms: C_14  and  O_15 
ROOT
HETATM    1  N   UNL     1      17.459  50.560  47.962  1.00  0.00    -0.060 N 
HETATM    2  H   UNL     1      17.829  50.013  47.179  1.00  0.00     0.280 HD
HETATM    3  C   UNL     1      17.448  52.039  47.560  1.00  0.00     0.272 C 
HETATM    4  C   UNL     1      16.683  52.375  46.253  1.00  0.00     0.190 C 
HETATM    5  O   UNL     1      15.273  52.092  46.414  1.00  0.00    -0.339 OA
HETATM    6  C   UNL     1      14.913  50.803  46.142  1.00  0.00     0.077 A 
HETATM    7  C   UNL     1      15.300  49.752  46.971  1.00  0.00     0.001 A 
HETATM    8  C   UNL     1      16.072  50.024  48.220  1.00  0.00     0.276 C 
HETATM    9  C   UNL     1      14.064  50.583  45.059  1.00  0.00     0.037 A 
HETATM   10  C   UNL     1      13.655  49.289  44.746  1.00  0.00     0.003 A 
HETATM   11  C   UNL     1      14.075  48.221  45.533  1.00  0.00     0.001 A 
HETATM   12  C   UNL     1      14.887  48.450  46.647  1.00  0.00     0.012 A 
ENDROOT
BRANCH   1  13
HETATM   13  C   UNL     1      18.341  50.292  49.163  1.00  0.00     0.273 C 
BRANCH  13  14
HETATM   14  C   UNL     1      19.819  50.359  48.891  1.00  0.00    -0.032 A 
HETATM   15  C   UNL     1      20.677  50.950  49.828  1.00  0.00     0.011 A 
HETATM   16  C   UNL     1      22.055  51.014  49.597  1.00  0.00     0.030 A 
HETATM   17  C   UNL     1      22.608  50.483  48.433  1.00  0.00     0.034 A 
HETATM   18  C   UNL     1      21.752  49.894  47.493  1.00  0.00     0.030 A 
HETATM   19  C   UNL     1      20.370  49.835  47.715  1.00  0.00     0.011 A 
BRANCH  17  20
HETATM   20  N   UNL     1      23.990  50.484  48.148  1.00  0.00    -0.328 N 
HETATM   21  C   UNL     1      24.955  49.651  48.691  1.00  0.00     0.218 C 
HETATM   22  C   UNL     1      26.327  49.881  48.105  1.00  0.00     0.117 C 
HETATM   23  O   UNL     1      24.777  48.784  49.539  1.00  0.00    -0.274 OA
HETATM   24  H   UNL     1      24.309  51.158  47.464  1.00  0.00     0.169 HD
ENDBRANCH  17  20
ENDBRANCH  13  14
ENDBRANCH   1  13
BRANCH   4  25
HETATM   25  C   UNL     1      17.302  51.969  44.908  1.00  0.00     0.006 A 
HETATM   26  C   UNL     1      17.023  52.747  43.757  1.00  0.00     0.077 A 
HETATM   27  C   UNL     1      17.550  52.382  42.513  1.00  0.00     0.037 A 
HETATM   28  C   UNL     1      18.382  51.271  42.398  1.00  0.00     0.003 A 
HETATM   29  C   UNL     1      18.712  50.532  43.527  1.00  0.00     0.001 A 
HETATM   30  C   UNL     1      18.187  50.884  44.773  1.00  0.00     0.012 A 
BRANCH  26  31
HETATM   31  O   UNL     1      16.248  53.860  43.964  1.00  0.00    -0.355 OA
HETATM   32  C   UNL     1      15.003  53.939  43.277  1.00  0.00     0.210 C 
ENDBRANCH  26  31
ENDBRANCH   4  25
TORSDOF 5
ENDMDL
MODEL 3
REMARK VINA RESULT:      -8.1     11.289     14.378
REMARK  5 active torsions:
REMARK  status: ('A' for Active; 'I' for Inactive)
REMARK       I    between atoms: C_2  and  N_3 
REMARK    1  A    between atoms: N_3  and  C_4 
REMARK    2  A    between atoms: C_7  and  C_8 
REMARK    3  A    between atoms: C_8  and  N_9 
REMARK    4  A    between atoms: C_12  and  C_13 
REMARK    5  A    between atoms: C_14  and  O_15 
ROOT
HETATM    1  N   UNL     1      31.790  49.394  40.664  1.00  0.00    -0.060 N 
HETATM    2  H   UNL     1      30.987  49.525  41.287  1.00  0.00     0.280 HD
HETATM    3  C   UNL     1      31.399  48.397  39.568  1.00  0.00     0.272 C 
HETATM    4  C   UNL     1      30.130  48.758  38.752  1.00  0.00     0.190 C 
HETATM    5  O   UNL     1      30.354  49.972  37.995  1.00  0.00    -0.339 OA
HETATM    6  C   UNL     1      30.090  51.127  38.674  1.00  0.00     0.077 A 
HETATM    7  C   UNL     1      30.893  51.545  39.733  1.00  0.00     0.001 A 
HETATM    8  C   UNL     1      32.108  50.762  40.110  1.00  0.00     0.276 C 
HETATM    9  C   UNL     1      29.046  51.926  38.212  1.00  0.00     0.037 A 
HETATM   10  C   UNL     1      28.743  53.120  38.859  1.00  0.00     0.003 A 
HETATM   11  C   UNL     1      29.503  53.527  39.952  1.00  0.00     0.001 A 
HETATM   12  C   UNL     1      30.580  52.749  40.384  1.00  0.00     0.012 A 
ENDROOT
BRANCH   1  13
HETATM   13  C   UNL     1      32.947  48.904  41.509  1.00  0.00     0.273 C 
BRANCH  13  14
HETATM   14  C   UNL     1      33.816  49.989  42.085  1.00  0.00    -0.032 A 
HETATM   15  C   UNL     1      35.131  50.149  41.628  1.00  0.00     0.011 A 
HETATM   16  C   UNL     1      35.951  51.157  42.145  1.00  0.00     0.030 A 
HETATM   17  C   UNL     1      35.476  52.032  43.120  1.00  0.00     0.034 A 
HETATM   18  C   UNL     1      34.163  51.873  43.580  1.00  0.00     0.030 A 
HETATM   19  C   UNL     1      33.340  50.859  43.072  1.00  0.00     0.011 A 
BRANCH  17  20
HETATM   20  N   UNL     1      36.235  53.090  43.663  1.00  0.00    -0.328 N 
HETATM   21  C   UNL     1      37.129  53.021  44.720  1.00  0.00     0.218 C 
HETATM   22  C   UNL     1      37.821  54.334  44.991  1.00  0.00     0.117 C 
HETATM   23  O   UNL     1      37.393  52.027  45.386  1.00  0.00    -0.274 OA
HETATM   24  H   UNL     1      36.123  53.996  43.225  1.00  0.00     0.169 HD
ENDBRANCH  17  20
ENDBRANCH  13  14
ENDBRANCH   1  13
BRANCH   4  25
HETATM   25  C   UNL     1      28.756  48.627  39.423  1.00  0.00     0.006 A 
HETATM   26  C   UNL     1      27.762  47.825  38.809  1.00  0.00     0.077 A 
HETATM   27  C   UNL     1      26.491  47.713  39.383  1.00  0.00     0.037 A 
HETATM   28  C   UNL     1      26.199  48.358  40.583  1.00  0.00     0.003 A 
HETATM   29  C   UNL     1      27.181  49.100  41.227  1.00  0.00     0.001 A 
HETATM   30  C   UNL     1      28.451  49.224  40.660  1.00  0.00     0.012 A 
BRANCH  26  31
HETATM   31  O   UNL     1      28.146  47.172  37.665  1.00  0.00    -0.355 OA
HETATM   32  C   UNL     1      27.198  46.313  37.041  1.00  0.00     0.210 C 
ENDBRANCH  26  31
ENDBRANCH   4  25
TORSDOF 5
ENDMDL
MODEL 4
REMARK VINA RESULT:      -8.1      1.650      3.732
REMARK  5 active torsions:
REMARK  status: ('A' for Active; 'I' for Inactive)
REMARK       I    between atoms: C_2  and  N_3 
REMARK    1  A    between atoms: N_3  and  C_4 
REMARK    2  A    between atoms: C_7  and  C_8 
REMARK    3  A    between atoms: C_8  and  N_9 
REMARK    4  A    between atoms: C_12  and  C_13 
REMARK    5  A    between atoms: C_14  and  O_15 
ROOT
HETATM    1  N   UNL     1      25.926  46.614  50.496  1.00  0.00    -0.060 N 
HETATM    2  H   UNL     1      26.769  46.031  50.466  1.00  0.00     0.280 HD
HETATM    3  C   UNL     1      24.734  45.769  50.035  1.00  0.00     0.272 C 
HETATM    4  C   UNL     1      24.506  44.446  50.811  1.00  0.00     0.190 C 
HETATM    5  O   UNL     1      24.165  44.729  52.189  1.00  0.00    -0.339 OA
HETATM    6  C   UNL     1      25.235  44.885  53.023  1.00  0.00     0.077 A 
HETATM    7  C   UNL     1      26.078  45.989  52.922  1.00  0.00     0.001 A 
HETATM    8  C   UNL     1      25.790  47.067  51.929  1.00  0.00     0.276 C 
HETATM    9  C   UNL     1      25.401  43.951  54.044  1.00  0.00     0.037 A 
HETATM   10  C   UNL     1      26.467  44.071  54.931  1.00  0.00     0.003 A 
HETATM   11  C   UNL     1      27.350  45.140  54.811  1.00  0.00     0.001 A 
HETATM   12  C   UNL     1      27.154  46.101  53.817  1.00  0.00     0.012 A 
ENDROOT
BRANCH   1  13
HETATM   13  C   UNL     1      26.170  47.812  49.602  1.00  0.00     0.273 C 
BRANCH  13  14
HETATM   14  C   UNL     1      24.935  48.584  49.227  1.00  0.00    -0.032 A 
HETATM   15  C   UNL     1      23.668  48.068  49.530  1.00  0.00     0.011 A 
HETATM   16  C   UNL     1      22.508  48.776  49.197  1.00  0.00     0.030 A 
HETATM   17  C   UNL     1      22.586  50.014  48.563  1.00  0.00     0.034 A 
HETATM   18  C   UNL     1      23.852  50.531  48.257  1.00  0.00     0.030 A 
HETATM   19  C   UNL     1      25.016  49.823  48.580  1.00  0.00     0.011 A 
BRANCH  17  20
HETATM   20  N   UNL     1      21.462  50.797  48.227  1.00  0.00    -0.328 N 
HETATM   21  C   UNL     1      20.529  51.337  49.097  1.00  0.00     0.218 C 
HETATM   22  C   UNL     1      19.493  52.183  48.398  1.00  0.00     0.117 C 
HETATM   23  O   UNL     1      20.504  51.202  50.315  1.00  0.00    -0.274 OA
HETATM   24  H   UNL     1      21.330  50.996  47.243  1.00  0.00     0.169 HD
ENDBRANCH  17  20
ENDBRANCH  13  14
ENDBRANCH   1  13
BRANCH   4  25
HETATM   25  C   UNL     1      25.476  43.278  50.584  1.00  0.00     0.006 A 
HETATM   26  C   UNL     1      24.968  42.039  50.122  1.00  0.00     0.077 A 
HETATM   27  C   UNL     1      25.826  40.949  49.935  1.00  0.00     0.037 A 
HETATM   28  C   UNL     1      27.193  41.080  50.168  1.00  0.00     0.003 A 
HETATM   29  C   UNL     1      27.714  42.304  50.565  1.00  0.00     0.001 A 
HETATM   30  C   UNL     1      26.867  43.397  50.760  1.00  0.00     0.012 A 
BRANCH  26  31
HETATM   31  O   UNL     1      23.622  42.009  49.856  1.00  0.00    -0.355 OA
HETATM   32  C   UNL     1      23.216  41.746  48.517  1.00  0.00     0.210 C 
ENDBRANCH  26  31
ENDBRANCH   4  25
TORSDOF 5
ENDMDL
MODEL 5
REMARK VINA RESULT:      -8.0     19.234     22.384
REMARK  5 active torsions:
REMARK  status: ('A' for Active; 'I' for Inactive)
REMARK       I    between atoms: C_2  and  N_3 
REMARK    1  A    between atoms: N_3  and  C_4 
REMARK    2  A    between atoms: C_7  and  C_8 
REMARK    3  A    between atoms: C_8  and  N_9 
REMARK    4  A    between atoms: C_12  and  C_13 
REMARK    5  A    between atoms: C_14  and  O_15 
ROOT
HETATM    1  N   UNL     1      37.978  43.878  64.160  1.00  0.00    -0.060 N 
HETATM    2  H   UNL     1      38.483  43.590  65.004  1.00  0.00     0.280 HD
HETATM    3  C   UNL     1      36.866  44.850  64.567  1.00  0.00     0.272 C 
HETATM    4  C   UNL     1      37.320  46.091  65.379  1.00  0.00     0.190 C 
HETATM    5  O   UNL     1      38.177  46.930  64.568  1.00  0.00    -0.339 OA
HETATM    6  C   UNL     1      39.500  46.590  64.591  1.00  0.00     0.077 A 
HETATM    7  C   UNL     1      39.956  45.414  63.999  1.00  0.00     0.001 A 
HETATM    8  C   UNL     1      39.007  44.524  63.265  1.00  0.00     0.276 C 
HETATM    9  C   UNL     1      40.394  47.504  65.144  1.00  0.00     0.037 A 
HETATM   10  C   UNL     1      41.755  47.212  65.180  1.00  0.00     0.003 A 
HETATM   11  C   UNL     1      42.221  46.018  64.640  1.00  0.00     0.001 A 
HETATM   12  C   UNL     1      41.329  45.124  64.043  1.00  0.00     0.012 A 
ENDROOT
BRANCH   1  13
HETATM   13  C   UNL     1      37.441  42.625  63.501  1.00  0.00     0.273 C 
BRANCH  13  14
HETATM   14  C   UNL     1      38.326  41.415  63.623  1.00  0.00    -0.032 A 
HETATM   15  C   UNL     1      38.894  40.845  62.476  1.00  0.00     0.011 A 
HETATM   16  C   UNL     1      39.727  39.725  62.571  1.00  0.00     0.030 A 
HETATM   17  C   UNL     1      40.019  39.156  63.809  1.00  0.00     0.034 A 
HETATM   18  C   UNL     1      39.451  39.723  64.957  1.00  0.00     0.030 A 
HETATM   19  C   UNL     1      38.608  40.839  64.867  1.00  0.00     0.011 A 
BRANCH  17  20
HETATM   20  N   UNL     1      40.874  38.048  63.983  1.00  0.00    -0.328 N 
HETATM   21  C   UNL     1      42.205  38.072  64.369  1.00  0.00     0.218 C 
HETATM   22  C   UNL     1      42.797  36.693  64.524  1.00  0.00     0.117 C 
HETATM   23  O   UNL     1      42.880  39.070  64.598  1.00  0.00    -0.274 OA
HETATM   24  H   UNL     1      40.468  37.135  63.820  1.00  0.00     0.169 HD
ENDBRANCH  17  20
ENDBRANCH  13  14
ENDBRANCH   1  13
BRANCH   4  25
HETATM   25  C   UNL     1      37.750  45.904  66.841  1.00  0.00     0.006 A 
HETATM   26  C   UNL     1      37.539  46.958  67.763  1.00  0.00     0.077 A 
HETATM   27  C   UNL     1      37.949  46.825  69.094  1.00  0.00     0.037 A 
HETATM   28  C   UNL     1      38.536  45.641  69.536  1.00  0.00     0.003 A 
HETATM   29  C   UNL     1      38.697  44.578  68.658  1.00  0.00     0.001 A 
HETATM   30  C   UNL     1      38.297  44.701  67.326  1.00  0.00     0.012 A 
BRANCH  26  31
HETATM   31  O   UNL     1      36.899  48.065  67.266  1.00  0.00    -0.355 OA
HETATM   32  C   UNL     1      37.613  49.297  67.257  1.00  0.00     0.210 C 
ENDBRANCH  26  31
ENDBRANCH   4  25
TORSDOF 5
ENDMDL
MODEL 6
REMARK VINA RESULT:      -7.9     12.447     15.225
REMARK  5 active torsions:
REMARK  status: ('A' for Active; 'I' for Inactive)
REMARK       I    between atoms: C_2  and  N_3 
REMARK    1  A    between atoms: N_3  and  C_4 
REMARK    2  A    between atoms: C_7  and  C_8 
REMARK    3  A    between atoms: C_8  and  N_9 
REMARK    4  A    between atoms: C_12  and  C_13 
REMARK    5  A    between atoms: C_14  and  O_15 
ROOT
HETATM    1  N   UNL     1      33.194  49.989  41.321  1.00  0.00    -0.060 N 
HETATM    2  H   UNL     1      33.062  50.017  40.305  1.00  0.00     0.280 HD
HETATM    3  C   UNL     1      32.407  51.145  41.947  1.00  0.00     0.272 C 
HETATM    4  C   UNL     1      30.896  51.198  41.597  1.00  0.00     0.190 C 
HETATM    5  O   UNL     1      30.219  50.039  42.138  1.00  0.00    -0.339 OA
HETATM    6  C   UNL     1      30.236  48.937  41.332  1.00  0.00     0.077 A 
HETATM    7  C   UNL     1      31.415  48.234  41.090  1.00  0.00     0.001 A 
HETATM    8  C   UNL     1      32.684  48.640  41.765  1.00  0.00     0.276 C 
HETATM    9  C   UNL     1      29.018  48.480  40.833  1.00  0.00     0.037 A 
HETATM   10  C   UNL     1      28.977  47.353  40.017  1.00  0.00     0.003 A 
HETATM   11  C   UNL     1      30.153  46.670  39.723  1.00  0.00     0.001 A 
HETATM   12  C   UNL     1      31.367  47.101  40.263  1.00  0.00     0.012 A 
ENDROOT
BRANCH   1  13
HETATM   13  C   UNL     1      34.681  50.087  41.590  1.00  0.00     0.273 C 
BRANCH  13  14
HETATM   14  C   UNL     1      35.381  51.212  40.878  1.00  0.00    -0.032 A 
HETATM   15  C   UNL     1      36.423  51.901  41.514  1.00  0.00     0.011 A 
HETATM   16  C   UNL     1      37.092  52.944  40.865  1.00  0.00     0.030 A 
HETATM   17  C   UNL     1      36.743  53.318  39.568  1.00  0.00     0.034 A 
HETATM   18  C   UNL     1      35.700  52.632  38.932  1.00  0.00     0.030 A 
HETATM   19  C   UNL     1      35.021  51.592  39.580  1.00  0.00     0.011 A 
BRANCH  17  20
HETATM   20  N   UNL     1      37.393  54.337  38.843  1.00  0.00    -0.328 N 
HETATM   21  C   UNL     1      37.330  55.701  39.078  1.00  0.00     0.218 C 
HETATM   22  C   UNL     1      38.211  56.500  38.149  1.00  0.00     0.117 C 
HETATM   23  O   UNL     1      36.670  56.261  39.946  1.00  0.00    -0.274 OA
HETATM   24  H   UNL     1      37.980  54.039  38.074  1.00  0.00     0.169 HD
ENDBRANCH  17  20
ENDBRANCH  13  14
ENDBRANCH   1  13
BRANCH   4  25
HETATM   25  C   UNL     1      30.479  51.622  40.182  1.00  0.00     0.006 A 
HETATM   26  C   UNL     1      29.320  52.420  40.014  1.00  0.00     0.077 A 
HETATM   27  C   UNL     1      28.900  52.796  38.734  1.00  0.00     0.037 A 
HETATM   28  C   UNL     1      29.635  52.420  37.612  1.00  0.00     0.003 A 
HETATM   29  C   UNL     1      30.804  51.686  37.764  1.00  0.00     0.001 A 
HETATM   30  C   UNL     1      31.230  51.301  39.037  1.00  0.00     0.012 A 
BRANCH  26  31
HETATM   31  O   UNL     1      28.688  52.803  41.171  1.00  0.00    -0.355 OA
HETATM   32  C   UNL     1      27.377  52.300  41.408  1.00  0.00     0.210 C 
ENDBRANCH  26  31
ENDBRANCH   4  25
TORSDOF 5
ENDMDL
MODEL 7
REMARK VINA RESULT:      -7.8      4.426      8.929
REMARK  5 active torsions:
REMARK  status: ('A' for Active; 'I' for Inactive)
REMARK       I    between atoms: C_2  and  N_3 
REMARK    1  A    between atoms: N_3  and  C_4 
REMARK    2  A    between atoms: C_7  and  C_8 
REMARK    3  A    between atoms: C_8  and  N_9 
REMARK    4  A    between atoms: C_12  and  C_13 
REMARK    5  A    between atoms: C_14  and  O_15 
ROOT
HETATM    1  N   UNL     1      27.244  41.963  51.093  1.00  0.00    -0.060 N 
HETATM    2  H   UNL     1      27.427  42.568  50.285  1.00  0.00     0.280 HD
HETATM    3  C   UNL     1      27.084  42.846  52.335  1.00  0.00     0.272 C 
HETATM    4  C   UNL     1      26.008  43.959  52.236  1.00  0.00     0.190 C 
HETATM    5  O   UNL     1      24.692  43.369  52.108  1.00  0.00    -0.339 OA
HETATM    6  C   UNL     1      24.319  43.072  50.828  1.00  0.00     0.077 A 
HETATM    7  C   UNL     1      24.935  42.047  50.113  1.00  0.00     0.001 A 
HETATM    8  C   UNL     1      25.983  41.203  50.761  1.00  0.00     0.276 C 
HETATM    9  C   UNL     1      23.236  43.765  50.292  1.00  0.00     0.037 A 
HETATM   10  C   UNL     1      22.806  43.492  48.996  1.00  0.00     0.003 A 
HETATM   11  C   UNL     1      23.445  42.507  48.249  1.00  0.00     0.001 A 
HETATM   12  C   UNL     1      24.499  41.780  48.805  1.00  0.00     0.012 A 
ENDROOT
BRANCH   1  13
HETATM   13  C   UNL     1      28.406  41.000  51.211  1.00  0.00     0.273 C 
BRANCH  13  14
HETATM   14  C   UNL     1      28.510  39.992  50.098  1.00  0.00    -0.032 A 
HETATM   15  C   UNL     1      28.327  40.397  48.769  1.00  0.00     0.011 A 
HETATM   16  C   UNL     1      28.429  39.477  47.720  1.00  0.00     0.030 A 
HETATM   17  C   UNL     1      28.723  38.138  47.972  1.00  0.00     0.034 A 
HETATM   18  C   UNL     1      28.903  37.731  49.301  1.00  0.00     0.030 A 
HETATM   19  C   UNL     1      28.794  38.646  50.356  1.00  0.00     0.011 A 
BRANCH  17  20
HETATM   20  N   UNL     1      28.871  37.163  46.964  1.00  0.00    -0.328 N 
HETATM   21  C   UNL     1      27.881  36.351  46.435  1.00  0.00     0.218 C 
HETATM   22  C   UNL     1      28.380  35.468  45.317  1.00  0.00     0.117 C 
HETATM   23  O   UNL     1      26.704  36.321  46.775  1.00  0.00    -0.274 OA
HETATM   24  H   UNL     1      29.800  37.053  46.577  1.00  0.00     0.169 HD
ENDBRANCH  17  20
ENDBRANCH  13  14
ENDBRANCH   1  13
BRANCH   4  25
HETATM   25  C   UNL     1      26.286  45.181  51.350  1.00  0.00     0.006 A 
HETATM   26  C   UNL     1      25.876  46.463  51.794  1.00  0.00     0.077 A 
HETATM   27  C   UNL     1      26.091  47.589  50.994  1.00  0.00     0.037 A 
HETATM   28  C   UNL     1      26.741  47.470  49.768  1.00  0.00     0.003 A 
HETATM   29  C   UNL     1      27.201  46.230  49.345  1.00  0.00     0.001 A 
HETATM   30  C   UNL     1      26.987  45.097  50.133  1.00  0.00     0.012 A 
BRANCH  26  31
HETATM   31  O   UNL     1      25.300  46.505  53.039  1.00  0.00    -0.355 OA
HETATM   32  C   UNL     1      25.916  47.324  54.027  1.00  0.00     0.210 C 
ENDBRANCH  26  31
ENDBRANCH   4  25
TORSDOF 5
ENDMDL
MODEL 8
REMARK VINA RESULT:      -7.7      5.833      9.269
REMARK  5 active torsions:
REMARK  status: ('A' for Active; 'I' for Inactive)
REMARK       I    between atoms: C_2  and  N_3 
REMARK    1  A    between atoms: N_3  and  C_4 
REMARK    2  A    between atoms: C_7  and  C_8 
REMARK    3  A    between atoms: C_8  and  N_9 
REMARK    4  A    between atoms: C_12  and  C_13 
REMARK    5  A    between atoms: C_14  and  O_15 
ROOT
HETATM    1  N   UNL     1      18.443  50.977  49.390  1.00  0.00    -0.060 N 
HETATM    2  H   UNL     1      18.557  51.087  48.378  1.00  0.00     0.280 HD
HETATM    3  C   UNL     1      17.894  49.573  49.667  1.00  0.00     0.272 C 
HETATM    4  C   UNL     1      18.723  48.399  49.083  1.00  0.00     0.190 C 
HETATM    5  O   UNL     1      20.026  48.348  49.712  1.00  0.00    -0.339 OA
HETATM    6  C   UNL     1      20.974  49.139  49.129  1.00  0.00     0.077 A 
HETATM    7  C   UNL     1      20.905  50.528  49.204  1.00  0.00     0.001 A 
HETATM    8  C   UNL     1      19.814  51.186  49.984  1.00  0.00     0.276 C 
HETATM    9  C   UNL     1      22.068  48.510  48.538  1.00  0.00     0.037 A 
HETATM   10  C   UNL     1      23.071  49.270  47.942  1.00  0.00     0.003 A 
HETATM   11  C   UNL     1      22.990  50.659  47.962  1.00  0.00     0.001 A 
HETATM   12  C   UNL     1      21.917  51.289  48.597  1.00  0.00     0.012 A 
ENDROOT
BRANCH   1  13
HETATM   13  C   UNL     1      17.508  52.069  49.865  1.00  0.00     0.273 C 
BRANCH  13  14
HETATM   14  C   UNL     1      16.487  52.513  48.853  1.00  0.00    -0.032 A 
HETATM   15  C   UNL     1      16.589  52.086  47.522  1.00  0.00     0.011 A 
HETATM   16  C   UNL     1      15.644  52.481  46.569  1.00  0.00     0.030 A 
HETATM   17  C   UNL     1      14.574  53.302  46.923  1.00  0.00     0.034 A 
HETATM   18  C   UNL     1      14.472  53.732  48.252  1.00  0.00     0.030 A 
HETATM   19  C   UNL     1      15.420  53.347  49.209  1.00  0.00     0.011 A 
BRANCH  17  20
HETATM   20  N   UNL     1      13.569  53.713  46.024  1.00  0.00    -0.328 N 
HETATM   21  C   UNL     1      13.388  54.981  45.495  1.00  0.00     0.218 C 
HETATM   22  C   UNL     1      12.251  55.050  44.506  1.00  0.00     0.117 C 
HETATM   23  O   UNL     1      14.060  55.977  45.743  1.00  0.00    -0.274 OA
HETATM   24  H   UNL     1      12.915  53.002  45.722  1.00  0.00     0.169 HD
ENDBRANCH  17  20
ENDBRANCH  13  14
ENDBRANCH   1  13
BRANCH   4  25
HETATM   25  C   UNL     1      18.697  48.157  47.567  1.00  0.00     0.006 A 
HETATM   26  C   UNL     1      18.819  46.833  47.078  1.00  0.00     0.077 A 
HETATM   27  C   UNL     1      18.828  46.587  45.700  1.00  0.00     0.037 A 
HETATM   28  C   UNL     1      18.683  47.636  44.796  1.00  0.00     0.003 A 
HETATM   29  C   UNL     1      18.504  48.933  45.261  1.00  0.00     0.001 A 
HETATM   30  C   UNL     1      18.499  49.191  46.633  1.00  0.00     0.012 A 
BRANCH  26  31
HETATM   31  O   UNL     1      18.894  45.850  48.032  1.00  0.00    -0.355 OA
HETATM   32  C   UNL     1      20.123  45.145  48.163  1.00  0.00     0.210 C 
ENDBRANCH  26  31
ENDBRANCH   4  25
TORSDOF 5
ENDMDL
MODEL 9
REMARK VINA RESULT:      -7.5     10.188     12.337
REMARK  5 active torsions:
REMARK  status: ('A' for Active; 'I' for Inactive)
REMARK       I    between atoms: C_2  and  N_3 
REMARK    1  A    between atoms: N_3  and  C_4 
REMARK    2  A    between atoms: C_7  and  C_8 
REMARK    3  A    between atoms: C_8  and  N_9 
REMARK    4  A    between atoms: C_12  and  C_13 
REMARK    5  A    between atoms: C_14  and  O_15 
ROOT
HETATM    1  N   UNL     1      29.380  48.473  40.109  1.00  0.00    -0.060 N 
HETATM    2  H   UNL     1      30.173  48.811  39.554  1.00  0.00     0.280 HD
HETATM    3  C   UNL     1      29.785  48.470  41.586  1.00  0.00     0.272 C 
HETATM    4  C   UNL     1      30.301  49.822  42.145  1.00  0.00     0.190 C 
HETATM    5  O   UNL     1      29.241  50.808  42.121  1.00  0.00    -0.339 OA
HETATM    6  C   UNL     1      29.118  51.488  40.943  1.00  0.00     0.077 A 
HETATM    7  C   UNL     1      28.666  50.857  39.786  1.00  0.00     0.001 A 
HETATM    8  C   UNL     1      28.244  49.425  39.826  1.00  0.00     0.276 C 
HETATM    9  C   UNL     1      29.368  52.858  40.957  1.00  0.00     0.037 A 
HETATM   10  C   UNL     1      29.244  53.602  39.786  1.00  0.00     0.003 A 
HETATM   11  C   UNL     1      28.845  52.976  38.609  1.00  0.00     0.001 A 
HETATM   12  C   UNL     1      28.548  51.611  38.608  1.00  0.00     0.012 A 
ENDROOT
BRANCH   1  13
HETATM   13  C   UNL     1      29.026  47.090  39.601  1.00  0.00     0.273 C 
BRANCH  13  14
HETATM   14  C   UNL     1      27.582  46.705  39.766  1.00  0.00    -0.032 A 
HETATM   15  C   UNL     1      27.096  46.332  41.026  1.00  0.00     0.011 A 
HETATM   16  C   UNL     1      25.754  45.980  41.201  1.00  0.00     0.030 A 
HETATM   17  C   UNL     1      24.866  45.999  40.127  1.00  0.00     0.034 A 
HETATM   18  C   UNL     1      25.350  46.369  38.865  1.00  0.00     0.030 A 
HETATM   19  C   UNL     1      26.695  46.715  38.683  1.00  0.00     0.011 A 
BRANCH  17  20
HETATM   20  N   UNL     1      23.495  45.687  40.235  1.00  0.00    -0.328 N 
HETATM   21  C   UNL     1      22.453  46.569  40.473  1.00  0.00     0.218 C 
HETATM   22  C   UNL     1      21.100  45.900  40.456  1.00  0.00     0.117 C 
HETATM   23  O   UNL     1      22.549  47.776  40.660  1.00  0.00    -0.274 OA
HETATM   24  H   UNL     1      23.243  44.714  40.113  1.00  0.00     0.169 HD
ENDBRANCH  17  20
ENDBRANCH  13  14
ENDBRANCH   1  13
BRANCH   4  25
HETATM   25  C   UNL     1      31.691  50.317  41.720  1.00  0.00     0.006 A 
HETATM   26  C   UNL     1      32.568  50.839  42.703  1.00  0.00     0.077 A 
HETATM   27  C   UNL     1      33.828  51.325  42.338  1.00  0.00     0.037 A 
HETATM   28  C   UNL     1      34.249  51.269  41.011  1.00  0.00     0.003 A 
HETATM   29  C   UNL     1      33.424  50.707  40.046  1.00  0.00     0.001 A 
HETATM   30  C   UNL     1      32.161  50.224  40.397  1.00  0.00     0.012 A 
BRANCH  26  31
HETATM   31  O   UNL     1      32.106  50.801  43.994  1.00  0.00    -0.355 OA
HETATM   32  C   UNL     1      32.453  51.880  44.855  1.00  0.00     0.210 C 
ENDBRANCH  26  31
ENDBRANCH   4  25
TORSDOF 5
ENDMDL
MODEL 10
REMARK VINA RESULT:      -7.4     18.784     22.012
REMARK  5 active torsions:
REMARK  status: ('A' for Active; 'I' for Inactive)
REMARK       I    between atoms: C_2  and  N_3 
REMARK    1  A    between atoms: N_3  and  C_4 
REMARK    2  A    between atoms: C_7  and  C_8 
REMARK    3  A    between atoms: C_8  and  N_9 
REMARK    4  A    between atoms: C_12  and  C_13 
REMARK    5  A    between atoms: C_14  and  O_15 
ROOT
HETATM    1  N   UNL     1      37.087  46.241  64.714  1.00  0.00    -0.060 N 
HETATM    2  H   UNL     1      38.042  46.144  65.073  1.00  0.00     0.280 HD
HETATM    3  C   UNL     1      36.107  45.845  65.823  1.00  0.00     0.272 C 
HETATM    4  C   UNL     1      36.264  46.608  67.165  1.00  0.00     0.190 C 
HETATM    5  O   UNL     1      35.961  48.011  66.977  1.00  0.00    -0.339 OA
HETATM    6  C   UNL     1      37.017  48.775  66.567  1.00  0.00     0.077 A 
HETATM    7  C   UNL     1      37.556  48.638  65.289  1.00  0.00     0.001 A 
HETATM    8  C   UNL     1      36.945  47.689  64.312  1.00  0.00     0.276 C 
HETATM    9  C   UNL     1      37.477  49.763  67.434  1.00  0.00     0.037 A 
HETATM   10  C   UNL     1      38.542  50.579  67.059  1.00  0.00     0.003 A 
HETATM   11  C   UNL     1      39.126  50.421  65.806  1.00  0.00     0.001 A 
HETATM   12  C   UNL     1      38.632  49.461  64.919  1.00  0.00     0.012 A 
ENDROOT
BRANCH   1  13
HETATM   13  C   UNL     1      36.968  45.357  63.491  1.00  0.00     0.273 C 
BRANCH  13  14
HETATM   14  C   UNL     1      37.837  44.130  63.509  1.00  0.00    -0.032 A 
HETATM   15  C   UNL     1      39.188  44.234  63.865  1.00  0.00     0.011 A 
HETATM   16  C   UNL     1      40.010  43.103  63.897  1.00  0.00     0.030 A 
HETATM   17  C   UNL     1      39.502  41.843  63.583  1.00  0.00     0.034 A 
HETATM   18  C   UNL     1      38.152  41.737  63.224  1.00  0.00     0.030 A 
HETATM   19  C   UNL     1      37.326  42.868  63.182  1.00  0.00     0.011 A 
BRANCH  17  20
HETATM   20  N   UNL     1      40.263  40.657  63.624  1.00  0.00    -0.328 N 
HETATM   21  C   UNL     1      40.599  39.918  64.748  1.00  0.00     0.218 C 
HETATM   22  C   UNL     1      41.365  38.660  64.417  1.00  0.00     0.117 C 
HETATM   23  O   UNL     1      40.315  40.188  65.909  1.00  0.00    -0.274 OA
HETATM   24  H   UNL     1      40.588  40.299  62.735  1.00  0.00     0.169 HD
ENDBRANCH  17  20
ENDBRANCH  13  14
ENDBRANCH   1  13
BRANCH   4  25
HETATM   25  C   UNL     1      37.471  46.293  68.059  1.00  0.00     0.006 A 
HETATM   26  C   UNL     1      37.354  46.462  69.461  1.00  0.00     0.077 A 
HETATM   27  C   UNL     1      38.448  46.211  70.296  1.00  0.00     0.037 A 
HETATM   28  C   UNL     1      39.653  45.759  69.763  1.00  0.00     0.003 A 
HETATM   29  C   UNL     1      39.766  45.534  68.398  1.00  0.00     0.001 A 
HETATM   30  C   UNL     1      38.683  45.786  67.554  1.00  0.00     0.012 A 
BRANCH  26  31
HETATM   31  O   UNL     1      36.118  46.848  69.913  1.00  0.00    -0.355 OA
HETATM   32  C   UNL     1      36.017  48.103  70.577  1.00  0.00     0.210 C 
ENDBRANCH  26  31
ENDBRANCH   4  25
TORSDOF 5
ENDMDL
