MODEL 1
REMARK VINA RESULT:      -9.1      0.000      0.000
REMARK  3 active torsions:
REMARK  status: ('A' for Active; 'I' for Inactive)
REMARK    1  A    between atoms: C_4  and  N_5 
REMARK       I    between atoms: N_5  and  C_6 
REMARK    2  A    between atoms: C_6  and  C_7 
REMARK    3  A    between atoms: C_7  and  C_8 
ROOT
HETATM    1  C   UNL     1      26.334  45.587  52.266  1.00  0.00     0.286 C 
HETATM    2  N   UNL     1      25.678  46.813  51.638  1.00  0.00    -0.056 N 
HETATM    3  H   UNL     1      24.662  46.742  51.863  1.00  0.00     0.278 HD
HETATM    4  H   UNL     1      26.004  47.670  52.099  1.00  0.00     0.278 HD
HETATM    5  C   UNL     1      25.874  46.886  50.145  1.00  0.00     0.209 C 
HETATM    6  C   UNL     1      25.324  45.591  49.493  1.00  0.00     0.115 C 
HETATM    7  N   UNL     1      25.854  44.391  50.133  1.00  0.00    -0.353 N 
HETATM    8  C   UNL     1      26.083  44.279  51.481  1.00  0.00     0.249 C 
HETATM    9  O   UNL     1      26.179  43.171  51.995  1.00  0.00    -0.271 OA
HETATM   10  C   UNL     1      25.195  48.145  49.607  1.00  0.00     0.035 C 
HETATM   11  C   UNL     1      23.670  48.062  49.618  1.00  0.00     0.002 C 
HETATM   12  C   UNL     1      23.174  46.810  48.904  1.00  0.00     0.002 C 
HETATM   13  C   UNL     1      23.788  45.543  49.486  1.00  0.00     0.027 C 
HETATM   14  H   UNL     1      25.703  43.494  49.674  1.00  0.00     0.163 HD
ENDROOT
BRANCH   1  15
HETATM   15  C   UNL     1      25.924  45.423  53.737  1.00  0.00     0.146 C 
BRANCH  15  16
HETATM   16  C   UNL     1      26.559  46.516  54.566  1.00  0.00     0.224 C 
HETATM   17  N   UNL     1      27.738  46.350  55.214  1.00  0.00    -0.327 N 
HETATM   18  H   UNL     1      27.917  47.081  55.896  1.00  0.00     0.169 HD
HETATM   19  O   UNL     1      25.947  47.588  54.681  1.00  0.00    -0.273 OA
BRANCH  17  20
HETATM   20  C   UNL     1      28.693  45.319  55.176  1.00  0.00     0.035 A 
HETATM   21  C   UNL     1      28.825  44.408  54.128  1.00  0.00     0.036 A 
HETATM   22  C   UNL     1      29.808  43.407  54.171  1.00  0.00    -0.059 A 
HETATM   23  C   UNL     1      29.985  42.453  53.026  1.00  0.00     0.048 C 
HETATM   24  C   UNL     1      30.676  43.342  55.268  1.00  0.00     0.013 A 
HETATM   25  C   UNL     1      30.568  44.258  56.318  1.00  0.00    -0.059 A 
HETATM   26  C   UNL     1      29.593  45.260  56.248  1.00  0.00     0.036 A 
HETATM   27  C   UNL     1      31.519  44.198  57.478  1.00  0.00     0.048 C 
ENDBRANCH  17  20
ENDBRANCH  15  16
ENDBRANCH   1  15
TORSDOF 3
ENDMDL
MODEL 2
REMARK VINA RESULT:      -9.0      2.396      7.285
REMARK  3 active torsions:
REMARK  status: ('A' for Active; 'I' for Inactive)
REMARK    1  A    between atoms: C_4  and  N_5 
REMARK       I    between atoms: N_5  and  C_6 
REMARK    2  A    between atoms: C_6  and  C_7 
REMARK    3  A    between atoms: C_7  and  C_8 
ROOT
HETATM    1  C   UNL     1      26.144  43.389  50.962  1.00  0.00     0.286 C 
HETATM    2  N   UNL     1      26.550  43.748  52.387  1.00  0.00    -0.056 N 
HETATM    3  H   UNL     1      27.244  44.523  52.301  1.00  0.00     0.278 HD
HETATM    4  H   UNL     1      25.754  44.146  52.898  1.00  0.00     0.278 HD
HETATM    5  C   UNL     1      27.158  42.590  53.137  1.00  0.00     0.209 C 
HETATM    6  C   UNL     1      28.382  42.056  52.349  1.00  0.00     0.115 C 
HETATM    7  N   UNL     1      28.058  41.793  50.950  1.00  0.00    -0.353 N 
HETATM    8  C   UNL     1      27.211  42.569  50.200  1.00  0.00     0.249 C 
HETATM    9  O   UNL     1      27.256  42.517  48.977  1.00  0.00    -0.271 OA
HETATM   10  C   UNL     1      27.524  43.039  54.551  1.00  0.00     0.035 C 
HETATM   11  C   UNL     1      28.728  43.978  54.595  1.00  0.00     0.002 C 
HETATM   12  C   UNL     1      29.929  43.380  53.870  1.00  0.00     0.002 C 
HETATM   13  C   UNL     1      29.593  43.000  52.433  1.00  0.00     0.027 C 
HETATM   14  H   UNL     1      28.732  41.273  50.389  1.00  0.00     0.163 HD
ENDROOT
BRANCH   1  15
HETATM   15  C   UNL     1      25.745  44.636  50.159  1.00  0.00     0.146 C 
BRANCH  15  16
HETATM   16  C   UNL     1      24.389  45.122  50.618  1.00  0.00     0.224 C 
HETATM   17  N   UNL     1      24.000  46.416  50.500  1.00  0.00    -0.327 N 
HETATM   18  H   UNL     1      23.170  46.627  51.047  1.00  0.00     0.169 HD
HETATM   19  O   UNL     1      23.629  44.305  51.157  1.00  0.00    -0.273 OA
BRANCH  17  20
HETATM   20  C   UNL     1      24.580  47.515  49.844  1.00  0.00     0.035 A 
HETATM   21  C   UNL     1      25.948  47.791  49.832  1.00  0.00     0.036 A 
HETATM   22  C   UNL     1      26.444  48.914  49.151  1.00  0.00    -0.059 A 
HETATM   23  C   UNL     1      27.919  49.189  49.096  1.00  0.00     0.048 C 
HETATM   24  C   UNL     1      25.557  49.746  48.460  1.00  0.00     0.013 A 
HETATM   25  C   UNL     1      24.185  49.474  48.448  1.00  0.00    -0.059 A 
HETATM   26  C   UNL     1      23.712  48.340  49.118  1.00  0.00     0.036 A 
HETATM   27  C   UNL     1      23.243  50.358  47.682  1.00  0.00     0.048 C 
ENDBRANCH  17  20
ENDBRANCH  15  16
ENDBRANCH   1  15
TORSDOF 3
ENDMDL
MODEL 3
REMARK VINA RESULT:      -9.0      2.326      3.105
REMARK  3 active torsions:
REMARK  status: ('A' for Active; 'I' for Inactive)
REMARK    1  A    between atoms: C_4  and  N_5 
REMARK       I    between atoms: N_5  and  C_6 
REMARK    2  A    between atoms: C_6  and  C_7 
REMARK    3  A    between atoms: C_7  and  C_8 
ROOT
HETATM    1  C   UNL     1      27.063  43.172  50.964  1.00  0.00     0.286 C 
HETATM    2  N   UNL     1      27.106  44.697  50.970  1.00  0.00    -0.056 N 
HETATM    3  H   UNL     1      26.439  45.000  51.713  1.00  0.00     0.278 HD
HETATM    4  H   UNL     1      28.028  45.029  51.274  1.00  0.00     0.278 HD
HETATM    5  C   UNL     1      26.716  45.303  49.645  1.00  0.00     0.209 C 
HETATM    6  C   UNL     1      25.300  44.809  49.254  1.00  0.00     0.115 C 
HETATM    7  N   UNL     1      25.189  43.355  49.331  1.00  0.00    -0.353 N 
HETATM    8  C   UNL     1      25.796  42.591  50.295  1.00  0.00     0.249 C 
HETATM    9  O   UNL     1      25.389  41.457  50.522  1.00  0.00    -0.271 OA
HETATM   10  C   UNL     1      26.798  46.826  49.743  1.00  0.00     0.035 C 
HETATM   11  C   UNL     1      25.686  47.438  50.593  1.00  0.00     0.002 C 
HETATM   12  C   UNL     1      24.309  46.981  50.125  1.00  0.00     0.002 C 
HETATM   13  C   UNL     1      24.195  45.461  50.099  1.00  0.00     0.027 C 
HETATM   14  H   UNL     1      24.365  42.913  48.925  1.00  0.00     0.163 HD
ENDROOT
BRANCH   1  15
HETATM   15  C   UNL     1      27.240  42.600  52.378  1.00  0.00     0.146 C 
BRANCH  15  16
HETATM   16  C   UNL     1      28.532  41.820  52.452  1.00  0.00     0.224 C 
HETATM   17  N   UNL     1      29.579  42.214  53.218  1.00  0.00    -0.327 N 
HETATM   18  H   UNL     1      30.438  41.720  52.993  1.00  0.00     0.169 HD
HETATM   19  O   UNL     1      28.640  40.805  51.749  1.00  0.00    -0.273 OA
BRANCH  17  20
HETATM   20  C   UNL     1      29.707  43.226  54.185  1.00  0.00     0.035 A 
HETATM   21  C   UNL     1      28.949  44.397  54.202  1.00  0.00     0.036 A 
HETATM   22  C   UNL     1      29.142  45.359  55.206  1.00  0.00    -0.059 A 
HETATM   23  C   UNL     1      28.297  46.599  55.255  1.00  0.00     0.048 C 
HETATM   24  C   UNL     1      30.088  45.124  56.210  1.00  0.00     0.013 A 
HETATM   25  C   UNL     1      30.844  43.948  56.217  1.00  0.00    -0.059 A 
HETATM   26  C   UNL     1      30.624  42.993  55.218  1.00  0.00     0.036 A 
HETATM   27  C   UNL     1      31.838  43.692  57.313  1.00  0.00     0.048 C 
ENDBRANCH  17  20
ENDBRANCH  15  16
ENDBRANCH   1  15
TORSDOF 3
ENDMDL
MODEL 4
REMARK VINA RESULT:      -8.8      2.751      6.514
REMARK  3 active torsions:
REMARK  status: ('A' for Active; 'I' for Inactive)
REMARK    1  A    between atoms: C_4  and  N_5 
REMARK       I    between atoms: N_5  and  C_6 
REMARK    2  A    between atoms: C_6  and  C_7 
REMARK    3  A    between atoms: C_7  and  C_8 
ROOT
HETATM    1  C   UNL     1      26.862  41.649  50.955  1.00  0.00     0.286 C 
HETATM    2  N   UNL     1      26.942  42.581  52.160  1.00  0.00    -0.056 N 
HETATM    3  H   UNL     1      27.576  43.360  51.878  1.00  0.00     0.278 HD
HETATM    4  H   UNL     1      26.030  43.017  52.337  1.00  0.00     0.278 HD
HETATM    5  C   UNL     1      27.473  41.901  53.397  1.00  0.00     0.209 C 
HETATM    6  C   UNL     1      28.870  41.302  53.091  1.00  0.00     0.115 C 
HETATM    7  N   UNL     1      28.858  40.480  51.883  1.00  0.00    -0.353 N 
HETATM    8  C   UNL     1      28.123  40.774  50.764  1.00  0.00     0.249 C 
HETATM    9  O   UNL     1      28.420  40.269  49.687  1.00  0.00    -0.271 OA
HETATM   10  C   UNL     1      27.507  42.905  54.549  1.00  0.00     0.035 C 
HETATM   11  C   UNL     1      28.600  43.961  54.399  1.00  0.00     0.002 C 
HETATM   12  C   UNL     1      29.966  43.323  54.172  1.00  0.00     0.002 C 
HETATM   13  C   UNL     1      29.960  42.379  52.976  1.00  0.00     0.027 C 
HETATM   14  H   UNL     1      29.670  39.895  51.692  1.00  0.00     0.163 HD
ENDROOT
BRANCH   1  15
HETATM   15  C   UNL     1      26.539  42.421  49.667  1.00  0.00     0.146 C 
BRANCH  15  16
HETATM   16  C   UNL     1      25.056  42.707  49.606  1.00  0.00     0.224 C 
HETATM   17  N   UNL     1      24.514  43.855  50.084  1.00  0.00    -0.327 N 
HETATM   18  H   UNL     1      23.503  43.803  50.174  1.00  0.00     0.169 HD
HETATM   19  O   UNL     1      24.314  41.834  49.134  1.00  0.00    -0.273 OA
BRANCH  17  20
HETATM   20  C   UNL     1      25.096  45.044  50.554  1.00  0.00     0.035 A 
HETATM   21  C   UNL     1      25.553  46.074  49.731  1.00  0.00     0.036 A 
HETATM   22  C   UNL     1      26.124  47.231  50.284  1.00  0.00    -0.059 A 
HETATM   23  C   UNL     1      26.575  48.361  49.406  1.00  0.00     0.048 C 
HETATM   24  C   UNL     1      26.212  47.357  51.676  1.00  0.00     0.013 A 
HETATM   25  C   UNL     1      25.743  46.341  52.514  1.00  0.00    -0.059 A 
HETATM   26  C   UNL     1      25.160  45.203  51.944  1.00  0.00     0.036 A 
HETATM   27  C   UNL     1      25.816  46.495  54.006  1.00  0.00     0.048 C 
ENDBRANCH  17  20
ENDBRANCH  15  16
ENDBRANCH   1  15
TORSDOF 3
ENDMDL
MODEL 5
REMARK VINA RESULT:      -8.7      2.043      3.636
REMARK  3 active torsions:
REMARK  status: ('A' for Active; 'I' for Inactive)
REMARK    1  A    between atoms: C_4  and  N_5 
REMARK       I    between atoms: N_5  and  C_6 
REMARK    2  A    between atoms: C_6  and  C_7 
REMARK    3  A    between atoms: C_7  and  C_8 
ROOT
HETATM    1  C   UNL     1      26.069  43.507  51.740  1.00  0.00     0.286 C 
HETATM    2  N   UNL     1      25.482  42.725  50.569  1.00  0.00    -0.056 N 
HETATM    3  H   UNL     1      25.963  43.085  49.715  1.00  0.00     0.278 HD
HETATM    4  H   UNL     1      25.739  41.734  50.634  1.00  0.00     0.278 HD
HETATM    5  C   UNL     1      23.990  42.897  50.434  1.00  0.00     0.209 C 
HETATM    6  C   UNL     1      23.659  44.405  50.291  1.00  0.00     0.115 C 
HETATM    7  N   UNL     1      24.287  45.203  51.342  1.00  0.00    -0.353 N 
HETATM    8  C   UNL     1      25.537  44.954  51.848  1.00  0.00     0.249 C 
HETATM    9  O   UNL     1      26.140  45.838  52.446  1.00  0.00    -0.271 OA
HETATM   10  C   UNL     1      23.492  42.074  49.246  1.00  0.00     0.035 C 
HETATM   11  C   UNL     1      23.897  42.658  47.895  1.00  0.00     0.002 C 
HETATM   12  C   UNL     1      23.487  44.121  47.772  1.00  0.00     0.002 C 
HETATM   13  C   UNL     1      24.045  44.964  48.913  1.00  0.00     0.027 C 
HETATM   14  H   UNL     1      23.991  46.172  51.450  1.00  0.00     0.163 HD
ENDROOT
BRANCH   1  15
HETATM   15  C   UNL     1      27.604  43.495  51.711  1.00  0.00     0.146 C 
BRANCH  15  16
HETATM   16  C   UNL     1      28.114  42.211  52.323  1.00  0.00     0.224 C 
HETATM   17  N   UNL     1      28.900  42.191  53.428  1.00  0.00    -0.327 N 
HETATM   18  H   UNL     1      29.336  41.287  53.583  1.00  0.00     0.169 HD
HETATM   19  O   UNL     1      27.828  41.144  51.761  1.00  0.00    -0.273 OA
BRANCH  17  20
HETATM   20  C   UNL     1      29.283  43.202  54.327  1.00  0.00     0.035 A 
HETATM   21  C   UNL     1      28.652  44.443  54.430  1.00  0.00     0.036 A 
HETATM   22  C   UNL     1      29.100  45.398  55.357  1.00  0.00    -0.059 A 
HETATM   23  C   UNL     1      28.396  46.715  55.503  1.00  0.00     0.048 C 
HETATM   24  C   UNL     1      30.175  45.087  56.198  1.00  0.00     0.013 A 
HETATM   25  C   UNL     1      30.807  43.843  56.119  1.00  0.00    -0.059 A 
HETATM   26  C   UNL     1      30.334  42.898  55.201  1.00  0.00     0.036 A 
HETATM   27  C   UNL     1      31.942  43.509  57.043  1.00  0.00     0.048 C 
ENDBRANCH  17  20
ENDBRANCH  15  16
ENDBRANCH   1  15
TORSDOF 3
ENDMDL
MODEL 6
REMARK VINA RESULT:      -8.6      1.443      1.959
REMARK  3 active torsions:
REMARK  status: ('A' for Active; 'I' for Inactive)
REMARK    1  A    between atoms: C_4  and  N_5 
REMARK       I    between atoms: N_5  and  C_6 
REMARK    2  A    between atoms: C_6  and  C_7 
REMARK    3  A    between atoms: C_7  and  C_8 
ROOT
HETATM    1  C   UNL     1      25.850  45.548  51.430  1.00  0.00     0.286 C 
HETATM    2  N   UNL     1      24.405  45.555  50.939  1.00  0.00    -0.056 N 
HETATM    3  H   UNL     1      23.962  44.701  51.342  1.00  0.00     0.278 HD
HETATM    4  H   UNL     1      23.893  46.348  51.342  1.00  0.00     0.278 HD
HETATM    5  C   UNL     1      24.293  45.537  49.436  1.00  0.00     0.209 C 
HETATM    6  C   UNL     1      25.041  44.298  48.881  1.00  0.00     0.115 C 
HETATM    7  N   UNL     1      26.400  44.201  49.407  1.00  0.00    -0.353 N 
HETATM    8  C   UNL     1      26.750  44.532  50.691  1.00  0.00     0.249 C 
HETATM    9  O   UNL     1      27.794  44.102  51.170  1.00  0.00    -0.271 OA
HETATM   10  C   UNL     1      22.817  45.556  49.039  1.00  0.00     0.035 C 
HETATM   11  C   UNL     1      22.099  44.238  49.322  1.00  0.00     0.002 C 
HETATM   12  C   UNL     1      22.832  43.056  48.697  1.00  0.00     0.002 C 
HETATM   13  C   UNL     1      24.285  42.986  49.149  1.00  0.00     0.027 C 
HETATM   14  H   UNL     1      27.037  43.533  48.973  1.00  0.00     0.163 HD
ENDROOT
BRANCH   1  15
HETATM   15  C   UNL     1      25.927  45.336  52.949  1.00  0.00     0.146 C 
BRANCH  15  16
HETATM   16  C   UNL     1      26.162  46.661  53.635  1.00  0.00     0.224 C 
HETATM   17  N   UNL     1      27.115  46.833  54.584  1.00  0.00    -0.327 N 
HETATM   18  H   UNL     1      27.002  47.701  55.100  1.00  0.00     0.169 HD
HETATM   19  O   UNL     1      25.421  47.610  53.338  1.00  0.00    -0.273 OA
BRANCH  17  20
HETATM   20  C   UNL     1      28.154  46.000  55.032  1.00  0.00     0.035 A 
HETATM   21  C   UNL     1      28.628  44.889  54.334  1.00  0.00     0.036 A 
HETATM   22  C   UNL     1      29.672  44.109  54.856  1.00  0.00    -0.059 A 
HETATM   23  C   UNL     1      30.217  42.940  54.087  1.00  0.00     0.048 C 
HETATM   24  C   UNL     1      30.255  44.469  56.077  1.00  0.00     0.013 A 
HETATM   25  C   UNL     1      29.803  45.589  56.780  1.00  0.00    -0.059 A 
HETATM   26  C   UNL     1      28.774  46.364  56.235  1.00  0.00     0.036 A 
HETATM   27  C   UNL     1      30.451  45.982  58.077  1.00  0.00     0.048 C 
ENDBRANCH  17  20
ENDBRANCH  15  16
ENDBRANCH   1  15
TORSDOF 3
ENDMDL
MODEL 7
REMARK VINA RESULT:      -8.5      1.743      3.205
REMARK  3 active torsions:
REMARK  status: ('A' for Active; 'I' for Inactive)
REMARK    1  A    between atoms: C_4  and  N_5 
REMARK       I    between atoms: N_5  and  C_6 
REMARK    2  A    between atoms: C_6  and  C_7 
REMARK    3  A    between atoms: C_7  and  C_8 
ROOT
HETATM    1  C   UNL     1      25.750  46.727  52.116  1.00  0.00     0.286 C 
HETATM    2  N   UNL     1      25.495  45.225  52.198  1.00  0.00    -0.056 N 
HETATM    3  H   UNL     1      26.422  44.769  52.046  1.00  0.00     0.278 HD
HETATM    4  H   UNL     1      25.209  44.961  53.147  1.00  0.00     0.278 HD
HETATM    5  C   UNL     1      24.505  44.738  51.171  1.00  0.00     0.209 C 
HETATM    6  C   UNL     1      25.006  45.121  49.755  1.00  0.00     0.115 C 
HETATM    7  N   UNL     1      25.354  46.536  49.663  1.00  0.00    -0.353 N 
HETATM    8  C   UNL     1      25.953  47.244  50.673  1.00  0.00     0.249 C 
HETATM    9  O   UNL     1      26.534  48.294  50.423  1.00  0.00    -0.271 OA
HETATM   10  C   UNL     1      24.306  43.231  51.335  1.00  0.00     0.035 C 
HETATM   11  C   UNL     1      25.510  42.411  50.876  1.00  0.00     0.002 C 
HETATM   12  C   UNL     1      25.922  42.770  49.452  1.00  0.00     0.002 C 
HETATM   13  C   UNL     1      26.196  44.261  49.300  1.00  0.00     0.027 C 
HETATM   14  H   UNL     1      25.520  46.931  48.739  1.00  0.00     0.163 HD
ENDROOT
BRANCH   1  15
HETATM   15  C   UNL     1      26.923  47.148  53.013  1.00  0.00     0.146 C 
BRANCH  15  16
HETATM   16  C   UNL     1      26.550  46.950  54.464  1.00  0.00     0.224 C 
HETATM   17  N   UNL     1      27.105  45.982  55.235  1.00  0.00    -0.327 N 
HETATM   18  H   UNL     1      26.599  45.834  56.103  1.00  0.00     0.169 HD
HETATM   19  O   UNL     1      25.673  47.682  54.945  1.00  0.00    -0.273 OA
BRANCH  17  20
HETATM   20  C   UNL     1      28.178  45.103  55.010  1.00  0.00     0.035 A 
HETATM   21  C   UNL     1      29.286  44.984  55.849  1.00  0.00     0.036 A 
HETATM   22  C   UNL     1      30.316  44.078  55.549  1.00  0.00    -0.059 A 
HETATM   23  C   UNL     1      31.488  43.914  56.472  1.00  0.00     0.048 C 
HETATM   24  C   UNL     1      30.213  43.273  54.408  1.00  0.00     0.013 A 
HETATM   25  C   UNL     1      29.100  43.368  53.567  1.00  0.00    -0.059 A 
HETATM   26  C   UNL     1      28.076  44.264  53.893  1.00  0.00     0.036 A 
HETATM   27  C   UNL     1      28.985  42.482  52.360  1.00  0.00     0.048 C 
ENDBRANCH  17  20
ENDBRANCH  15  16
ENDBRANCH   1  15
TORSDOF 3
ENDMDL
MODEL 8
REMARK VINA RESULT:      -8.5      2.064      7.027
REMARK  3 active torsions:
REMARK  status: ('A' for Active; 'I' for Inactive)
REMARK    1  A    between atoms: C_4  and  N_5 
REMARK       I    between atoms: N_5  and  C_6 
REMARK    2  A    between atoms: C_6  and  C_7 
REMARK    3  A    between atoms: C_7  and  C_8 
ROOT
HETATM    1  C   UNL     1      26.795  45.701  52.655  1.00  0.00     0.286 C 
HETATM    2  N   UNL     1      26.969  44.363  51.942  1.00  0.00    -0.056 N 
HETATM    3  H   UNL     1      26.258  43.723  52.357  1.00  0.00     0.278 HD
HETATM    4  H   UNL     1      26.719  44.450  50.950  1.00  0.00     0.278 HD
HETATM    5  C   UNL     1      28.350  43.782  52.109  1.00  0.00     0.209 C 
HETATM    6  C   UNL     1      28.661  43.628  53.620  1.00  0.00     0.115 C 
HETATM    7  N   UNL     1      28.411  44.864  54.357  1.00  0.00    -0.353 N 
HETATM    8  C   UNL     1      27.373  45.719  54.089  1.00  0.00     0.249 C 
HETATM    9  O   UNL     1      27.007  46.523  54.939  1.00  0.00    -0.271 OA
HETATM   10  C   UNL     1      28.434  42.454  51.356  1.00  0.00     0.035 C 
HETATM   11  C   UNL     1      27.646  41.330  52.025  1.00  0.00     0.002 C 
HETATM   12  C   UNL     1      28.037  41.168  53.490  1.00  0.00     0.002 C 
HETATM   13  C   UNL     1      27.883  42.471  54.266  1.00  0.00     0.027 C 
HETATM   14  H   UNL     1      28.751  44.929  55.316  1.00  0.00     0.163 HD
ENDROOT
BRANCH   1  15
HETATM   15  C   UNL     1      25.326  46.149  52.658  1.00  0.00     0.146 C 
BRANCH  15  16
HETATM   16  C   UNL     1      24.565  45.400  51.588  1.00  0.00     0.224 C 
HETATM   17  N   UNL     1      24.217  45.967  50.407  1.00  0.00    -0.327 N 
HETATM   18  H   UNL     1      23.528  45.421  49.897  1.00  0.00     0.169 HD
HETATM   19  O   UNL     1      24.217  44.235  51.829  1.00  0.00    -0.273 OA
BRANCH  17  20
HETATM   20  C   UNL     1      24.563  47.195  49.817  1.00  0.00     0.035 A 
HETATM   21  C   UNL     1      23.639  48.124  49.337  1.00  0.00     0.036 A 
HETATM   22  C   UNL     1      24.071  49.330  48.760  1.00  0.00    -0.059 A 
HETATM   23  C   UNL     1      23.081  50.352  48.284  1.00  0.00     0.048 C 
HETATM   24  C   UNL     1      25.442  49.606  48.691  1.00  0.00     0.013 A 
HETATM   25  C   UNL     1      26.379  48.693  49.184  1.00  0.00    -0.059 A 
HETATM   26  C   UNL     1      25.928  47.505  49.771  1.00  0.00     0.036 A 
HETATM   27  C   UNL     1      27.846  49.008  49.129  1.00  0.00     0.048 C 
ENDBRANCH  17  20
ENDBRANCH  15  16
ENDBRANCH   1  15
TORSDOF 3
ENDMDL
MODEL 9
REMARK VINA RESULT:      -8.3     12.511     14.372
REMARK  3 active torsions:
REMARK  status: ('A' for Active; 'I' for Inactive)
REMARK    1  A    between atoms: C_4  and  N_5 
REMARK       I    between atoms: N_5  and  C_6 
REMARK    2  A    between atoms: C_6  and  C_7 
REMARK    3  A    between atoms: C_7  and  C_8 
ROOT
HETATM    1  C   UNL     1      29.775  51.910  39.656  1.00  0.00     0.286 C 
HETATM    2  N   UNL     1      29.400  50.721  40.537  1.00  0.00    -0.056 N 
HETATM    3  H   UNL     1      29.753  49.874  40.039  1.00  0.00     0.278 HD
HETATM    4  H   UNL     1      29.916  50.755  41.424  1.00  0.00     0.278 HD
HETATM    5  C   UNL     1      27.915  50.605  40.770  1.00  0.00     0.209 C 
HETATM    6  C   UNL     1      27.189  50.510  39.404  1.00  0.00     0.115 C 
HETATM    7  N   UNL     1      27.595  51.577  38.494  1.00  0.00    -0.353 N 
HETATM    8  C   UNL     1      28.874  52.065  38.409  1.00  0.00     0.249 C 
HETATM    9  O   UNL     1      29.228  52.683  37.411  1.00  0.00    -0.271 OA
HETATM   10  C   UNL     1      27.638  49.398  41.666  1.00  0.00     0.035 C 
HETATM   11  C   UNL     1      27.849  48.061  40.960  1.00  0.00     0.002 C 
HETATM   12  C   UNL     1      27.058  47.985  39.658  1.00  0.00     0.002 C 
HETATM   13  C   UNL     1      27.387  49.144  38.726  1.00  0.00     0.027 C 
HETATM   14  H   UNL     1      27.052  51.717  37.643  1.00  0.00     0.163 HD
ENDROOT
BRANCH   1  15
HETATM   15  C   UNL     1      31.256  51.866  39.253  1.00  0.00     0.146 C 
BRANCH  15  16
HETATM   16  C   UNL     1      31.743  50.436  39.263  1.00  0.00     0.224 C 
HETATM   17  N   UNL     1      32.678  49.989  40.137  1.00  0.00    -0.327 N 
HETATM   18  H   UNL     1      33.057  49.083  39.877  1.00  0.00     0.169 HD
HETATM   19  O   UNL     1      31.291  49.661  38.407  1.00  0.00    -0.273 OA
BRANCH  17  20
HETATM   20  C   UNL     1      33.270  50.584  41.265  1.00  0.00     0.035 A 
HETATM   21  C   UNL     1      32.570  50.971  42.408  1.00  0.00     0.036 A 
HETATM   22  C   UNL     1      33.241  51.560  43.491  1.00  0.00    -0.059 A 
HETATM   23  C   UNL     1      32.501  51.936  44.742  1.00  0.00     0.048 C 
HETATM   24  C   UNL     1      34.628  51.738  43.427  1.00  0.00     0.013 A 
HETATM   25  C   UNL     1      35.346  51.340  42.295  1.00  0.00    -0.059 A 
HETATM   26  C   UNL     1      34.662  50.738  41.233  1.00  0.00     0.036 A 
HETATM   27  C   UNL     1      36.837  51.510  42.244  1.00  0.00     0.048 C 
ENDBRANCH  17  20
ENDBRANCH  15  16
ENDBRANCH   1  15
TORSDOF 3
ENDMDL
MODEL 10
REMARK VINA RESULT:      -8.2     15.493     17.379
REMARK  3 active torsions:
REMARK  status: ('A' for Active; 'I' for Inactive)
REMARK    1  A    between atoms: C_4  and  N_5 
REMARK       I    between atoms: N_5  and  C_6 
REMARK    2  A    between atoms: C_6  and  C_7 
REMARK    3  A    between atoms: C_7  and  C_8 
ROOT
HETATM    1  C   UNL     1      36.890  44.568  66.042  1.00  0.00     0.286 C 
HETATM    2  N   UNL     1      38.283  44.338  65.463  1.00  0.00    -0.056 N 
HETATM    3  H   UNL     1      38.225  44.615  64.459  1.00  0.00     0.278 HD
HETATM    4  H   UNL     1      38.959  44.982  65.889  1.00  0.00     0.278 HD
HETATM    5  C   UNL     1      38.741  42.906  65.579  1.00  0.00     0.209 C 
HETATM    6  C   UNL     1      37.712  41.981  64.881  1.00  0.00     0.115 C 
HETATM    7  N   UNL     1      36.349  42.239  65.338  1.00  0.00    -0.353 N 
HETATM    8  C   UNL     1      35.863  43.487  65.632  1.00  0.00     0.249 C 
HETATM    9  O   UNL     1      34.653  43.682  65.658  1.00  0.00    -0.271 OA
HETATM   10  C   UNL     1      40.143  42.775  64.985  1.00  0.00     0.035 C 
HETATM   11  C   UNL     1      40.167  42.883  63.462  1.00  0.00     0.002 C 
HETATM   12  C   UNL     1      39.192  41.905  62.817  1.00  0.00     0.002 C 
HETATM   13  C   UNL     1      37.775  42.082  63.349  1.00  0.00     0.027 C 
HETATM   14  H   UNL     1      35.622  41.572  65.082  1.00  0.00     0.163 HD
ENDROOT
BRANCH   1  15
HETATM   15  C   UNL     1      36.365  45.971  65.704  1.00  0.00     0.146 C 
BRANCH  15  16
HETATM   16  C   UNL     1      36.842  46.374  64.328  1.00  0.00     0.224 C 
HETATM   17  N   UNL     1      37.560  47.502  64.106  1.00  0.00    -0.327 N 
HETATM   18  H   UNL     1      37.611  47.747  63.121  1.00  0.00     0.169 HD
HETATM   19  O   UNL     1      36.525  45.656  63.368  1.00  0.00    -0.273 OA
BRANCH  17  20
HETATM   20  C   UNL     1      38.154  48.425  64.983  1.00  0.00     0.035 A 
HETATM   21  C   UNL     1      37.647  49.698  65.248  1.00  0.00     0.036 A 
HETATM   22  C   UNL     1      38.305  50.559  66.140  1.00  0.00    -0.059 A 
HETATM   23  C   UNL     1      37.739  51.911  66.463  1.00  0.00     0.048 C 
HETATM   24  C   UNL     1      39.468  50.121  66.785  1.00  0.00     0.013 A 
HETATM   25  C   UNL     1      39.980  48.843  66.545  1.00  0.00    -0.059 A 
HETATM   26  C   UNL     1      39.299  47.993  65.665  1.00  0.00     0.036 A 
HETATM   27  C   UNL     1      41.213  48.372  67.261  1.00  0.00     0.048 C 
ENDBRANCH  17  20
ENDBRANCH  15  16
ENDBRANCH   1  15
TORSDOF 3
ENDMDL
