MODEL 1
REMARK VINA RESULT:     -10.7      0.000      0.000
REMARK  5 active torsions:
REMARK  status: ('A' for Active; 'I' for Inactive)
REMARK    1  A    between atoms: C_4  and  C_5 
REMARK    2  A    between atoms: C_5  and  C_6 
REMARK    3  A    between atoms: C_12  and  S_13 
REMARK    4  A    between atoms: S_13  and  C_14 
REMARK    5  A    between atoms: C_14  and  C_15 
ROOT
HETATM    1  C   UNL     1      26.146  45.656  50.706  1.00  0.00     0.283 C 
HETATM    2  O   UNL     1      25.660  44.757  51.692  1.00  0.00    -0.303 OA
HETATM    3  C   UNL     1      26.195  43.507  51.509  1.00  0.00     0.201 A 
HETATM    4  C   UNL     1      25.650  42.677  50.545  1.00  0.00     0.144 A 
HETATM    5  N   UNL     1      26.070  41.401  50.484  1.00  0.00    -0.142 NA
HETATM    6  N   UNL     1      27.029  40.987  51.367  1.00  0.00    -0.122 NA
HETATM    7  C   UNL     1      27.529  41.854  52.280  1.00  0.00     0.212 A 
HETATM    8  N   UNL     1      27.129  43.130  52.404  1.00  0.00    -0.195 NA
HETATM    9  C   UNL     1      24.647  43.146  49.593  1.00  0.00     0.020 A 
HETATM   10  C   UNL     1      24.757  44.439  49.029  1.00  0.00     0.023 A 
HETATM   11  N   UNL     1      25.860  45.277  49.297  1.00  0.00    -0.259 NA
HETATM   12  C   UNL     1      23.568  42.325  49.218  1.00  0.00     0.016 A 
HETATM   13  C   UNL     1      22.609  42.772  48.309  1.00  0.00     0.001 A 
HETATM   14  C   UNL     1      22.725  44.038  47.747  1.00  0.00     0.002 A 
HETATM   15  C   UNL     1      23.799  44.859  48.094  1.00  0.00     0.024 A 
HETATM   16  H   UNL     1      25.769  46.152  48.768  1.00  0.00     0.130 HD
ENDROOT
BRANCH   7  17
HETATM   17  S   UNL     1      28.779  41.288  53.406  1.00  0.00    -0.084 SA
BRANCH  17  18
HETATM   18  C   UNL     1      29.981  42.641  53.222  1.00  0.00     0.121 C 
BRANCH  18  19
HETATM   19  C   UNL     1      30.071  43.482  54.474  1.00  0.00    -0.048 A 
HETATM   20  C   UNL     1      31.019  43.181  55.466  1.00  0.00     0.009 A 
HETATM   21  C   UNL     1      31.108  43.961  56.620  1.00  0.00     0.024 A 
HETATM   22  C   UNL     1      30.248  45.043  56.794  1.00  0.00     0.034 A 
HETATM   23 CL   UNL     1      30.362  46.006  58.216  1.00  0.00    -0.084 Cl
HETATM   24  C   UNL     1      29.296  45.349  55.824  1.00  0.00     0.024 A 
HETATM   25  C   UNL     1      29.206  44.570  54.668  1.00  0.00     0.009 A 
ENDBRANCH  18  19
ENDBRANCH  17  18
ENDBRANCH   7  17
BRANCH   1  26
HETATM   26  C   UNL     1      25.551  47.074  50.926  1.00  0.00     0.203 C 
HETATM   27  O   UNL     1      24.947  47.360  51.967  1.00  0.00    -0.288 OA
BRANCH  26  28
HETATM   28  C   UNL     1      25.677  48.111  49.867  1.00  0.00     0.014 A 
HETATM   29  C   UNL     1      26.960  48.603  49.584  1.00  0.00     0.015 A 
HETATM   30  C   UNL     1      27.142  49.573  48.598  1.00  0.00     0.001 A 
HETATM   31  C   UNL     1      26.042  50.064  47.897  1.00  0.00     0.000 A 
HETATM   32  C   UNL     1      24.761  49.590  48.185  1.00  0.00     0.001 A 
HETATM   33  C   UNL     1      24.574  48.618  49.171  1.00  0.00     0.015 A 
ENDBRANCH  26  28
ENDBRANCH   1  26
TORSDOF 5
ENDMDL
MODEL 2
REMARK VINA RESULT:     -10.4      4.398      8.750
REMARK  5 active torsions:
REMARK  status: ('A' for Active; 'I' for Inactive)
REMARK    1  A    between atoms: C_4  and  C_5 
REMARK    2  A    between atoms: C_5  and  C_6 
REMARK    3  A    between atoms: C_12  and  S_13 
REMARK    4  A    between atoms: S_13  and  C_14 
REMARK    5  A    between atoms: C_14  and  C_15 
ROOT
HETATM    1  C   UNL     1      25.841  47.243  54.080  1.00  0.00     0.283 C 
HETATM    2  O   UNL     1      26.520  47.403  52.843  1.00  0.00    -0.303 OA
HETATM    3  C   UNL     1      25.758  46.917  51.810  1.00  0.00     0.201 A 
HETATM    4  C   UNL     1      25.737  45.553  51.575  1.00  0.00     0.144 A 
HETATM    5  N   UNL     1      25.122  45.103  50.466  1.00  0.00    -0.142 NA
HETATM    6  N   UNL     1      24.533  46.012  49.632  1.00  0.00    -0.122 NA
HETATM    7  C   UNL     1      24.581  47.334  49.927  1.00  0.00     0.212 A 
HETATM    8  N   UNL     1      25.202  47.843  51.004  1.00  0.00    -0.195 NA
HETATM    9  C   UNL     1      26.348  44.597  52.492  1.00  0.00     0.020 A 
HETATM   10  C   UNL     1      26.241  44.789  53.890  1.00  0.00     0.023 A 
HETATM   11  N   UNL     1      25.485  45.845  54.441  1.00  0.00    -0.259 NA
HETATM   12  C   UNL     1      27.043  43.473  52.007  1.00  0.00     0.016 A 
HETATM   13  C   UNL     1      27.629  42.559  52.882  1.00  0.00     0.001 A 
HETATM   14  C   UNL     1      27.511  42.743  54.255  1.00  0.00     0.002 A 
HETATM   15  C   UNL     1      26.810  43.841  54.755  1.00  0.00     0.024 A 
HETATM   16  H   UNL     1      25.505  45.790  55.465  1.00  0.00     0.130 HD
ENDROOT
BRANCH   7  17
HETATM   17  S   UNL     1      23.798  48.487  48.828  1.00  0.00    -0.084 SA
BRANCH  17  18
HETATM   18  C   UNL     1      22.085  47.881  48.930  1.00  0.00     0.121 C 
BRANCH  18  19
HETATM   19  C   UNL     1      21.104  49.011  49.138  1.00  0.00    -0.048 A 
HETATM   20  C   UNL     1      19.840  48.760  49.696  1.00  0.00     0.009 A 
HETATM   21  C   UNL     1      18.935  49.805  49.895  1.00  0.00     0.024 A 
HETATM   22  C   UNL     1      19.284  51.103  49.535  1.00  0.00     0.034 A 
HETATM   23 CL   UNL     1      18.169  52.390  49.784  1.00  0.00    -0.084 Cl
HETATM   24  C   UNL     1      20.531  51.367  48.971  1.00  0.00     0.024 A 
HETATM   25  C   UNL     1      21.437  50.324  48.771  1.00  0.00     0.009 A 
ENDBRANCH  18  19
ENDBRANCH  17  18
ENDBRANCH   7  17
BRANCH   1  26
HETATM   26  C   UNL     1      26.700  47.809  55.244  1.00  0.00     0.203 C 
HETATM   27  O   UNL     1      26.465  48.921  55.732  1.00  0.00    -0.288 OA
BRANCH  26  28
HETATM   28  C   UNL     1      27.846  47.025  55.779  1.00  0.00     0.014 A 
HETATM   29  C   UNL     1      27.853  46.731  57.151  1.00  0.00     0.015 A 
HETATM   30  C   UNL     1      28.898  45.993  57.708  1.00  0.00     0.001 A 
HETATM   31  C   UNL     1      29.947  45.556  56.901  1.00  0.00     0.000 A 
HETATM   32  C   UNL     1      29.953  45.859  55.539  1.00  0.00     0.001 A 
HETATM   33  C   UNL     1      28.908  46.595  54.975  1.00  0.00     0.015 A 
ENDBRANCH  26  28
ENDBRANCH   1  26
TORSDOF 5
ENDMDL
MODEL 3
REMARK VINA RESULT:     -10.3      3.867      8.273
REMARK  5 active torsions:
REMARK  status: ('A' for Active; 'I' for Inactive)
REMARK    1  A    between atoms: C_4  and  C_5 
REMARK    2  A    between atoms: C_5  and  C_6 
REMARK    3  A    between atoms: C_12  and  S_13 
REMARK    4  A    between atoms: S_13  and  C_14 
REMARK    5  A    between atoms: C_14  and  C_15 
ROOT
HETATM    1  C   UNL     1      27.828  43.208  52.494  1.00  0.00     0.283 C 
HETATM    2  O   UNL     1      28.067  44.102  51.416  1.00  0.00    -0.303 OA
HETATM    3  C   UNL     1      26.909  44.334  50.718  1.00  0.00     0.201 A 
HETATM    4  C   UNL     1      26.483  43.397  49.792  1.00  0.00     0.144 A 
HETATM    5  N   UNL     1      25.442  43.706  48.998  1.00  0.00    -0.142 NA
HETATM    6  N   UNL     1      24.842  44.925  49.155  1.00  0.00    -0.122 NA
HETATM    7  C   UNL     1      25.302  45.792  50.088  1.00  0.00     0.212 A 
HETATM    8  N   UNL     1      26.352  45.549  50.890  1.00  0.00    -0.195 NA
HETATM    9  C   UNL     1      27.120  42.090  49.660  1.00  0.00     0.020 A 
HETATM   10  C   UNL     1      27.539  41.387  50.814  1.00  0.00     0.023 A 
HETATM   11  N   UNL     1      27.290  41.875  52.115  1.00  0.00    -0.259 NA
HETATM   12  C   UNL     1      27.320  41.508  48.394  1.00  0.00     0.016 A 
HETATM   13  C   UNL     1      27.929  40.261  48.266  1.00  0.00     0.001 A 
HETATM   14  C   UNL     1      28.329  39.566  49.402  1.00  0.00     0.002 A 
HETATM   15  C   UNL     1      28.122  40.119  50.667  1.00  0.00     0.024 A 
HETATM   16  H   UNL     1      27.640  41.206  52.810  1.00  0.00     0.130 HD
ENDROOT
BRANCH   7  17
HETATM   17  S   UNL     1      24.495  47.363  50.272  1.00  0.00    -0.084 SA
BRANCH  17  18
HETATM   18  C   UNL     1      23.254  47.218  48.949  1.00  0.00     0.121 C 
BRANCH  18  19
HETATM   19  C   UNL     1      22.414  48.468  48.833  1.00  0.00    -0.048 A 
HETATM   20  C   UNL     1      21.012  48.387  48.868  1.00  0.00     0.009 A 
HETATM   21  C   UNL     1      20.234  49.542  48.768  1.00  0.00     0.024 A 
HETATM   22  C   UNL     1      20.849  50.783  48.626  1.00  0.00     0.034 A 
HETATM   23 CL   UNL     1      19.889  52.206  48.506  1.00  0.00    -0.084 Cl
HETATM   24  C   UNL     1      22.239  50.879  48.579  1.00  0.00     0.024 A 
HETATM   25  C   UNL     1      23.019  49.725  48.679  1.00  0.00     0.009 A 
ENDBRANCH  18  19
ENDBRANCH  17  18
ENDBRANCH   7  17
BRANCH   1  26
HETATM   26  C   UNL     1      29.138  42.961  53.291  1.00  0.00     0.203 C 
HETATM   27  O   UNL     1      29.904  42.036  52.995  1.00  0.00    -0.288 OA
BRANCH  26  28
HETATM   28  C   UNL     1      29.483  43.826  54.452  1.00  0.00     0.014 A 
HETATM   29  C   UNL     1      30.581  43.453  55.241  1.00  0.00     0.015 A 
HETATM   30  C   UNL     1      30.955  44.229  56.340  1.00  0.00     0.001 A 
HETATM   31  C   UNL     1      30.228  45.374  56.661  1.00  0.00     0.000 A 
HETATM   32  C   UNL     1      29.126  45.741  55.888  1.00  0.00     0.001 A 
HETATM   33  C   UNL     1      28.748  44.969  54.787  1.00  0.00     0.015 A 
ENDBRANCH  26  28
ENDBRANCH   1  26
TORSDOF 5
ENDMDL
MODEL 4
REMARK VINA RESULT:     -10.1      3.455      4.797
REMARK  5 active torsions:
REMARK  status: ('A' for Active; 'I' for Inactive)
REMARK    1  A    between atoms: C_4  and  C_5 
REMARK    2  A    between atoms: C_5  and  C_6 
REMARK    3  A    between atoms: C_12  and  S_13 
REMARK    4  A    between atoms: S_13  and  C_14 
REMARK    5  A    between atoms: C_14  and  C_15 
ROOT
HETATM    1  C   UNL     1      23.353  49.146  48.853  1.00  0.00     0.283 C 
HETATM    2  O   UNL     1      23.378  48.244  49.949  1.00  0.00    -0.303 OA
HETATM    3  C   UNL     1      23.902  47.035  49.565  1.00  0.00     0.201 A 
HETATM    4  C   UNL     1      23.092  46.134  48.896  1.00  0.00     0.144 A 
HETATM    5  N   UNL     1      23.562  44.893  48.669  1.00  0.00    -0.142 NA
HETATM    6  N   UNL     1      24.824  44.587  49.096  1.00  0.00    -0.122 NA
HETATM    7  C   UNL     1      25.570  45.519  49.736  1.00  0.00     0.212 A 
HETATM    8  N   UNL     1      25.144  46.763  50.012  1.00  0.00    -0.195 NA
HETATM    9  C   UNL     1      21.758  46.490  48.424  1.00  0.00     0.020 A 
HETATM   10  C   UNL     1      21.523  47.769  47.866  1.00  0.00     0.023 A 
HETATM   11  N   UNL     1      22.565  48.701  47.673  1.00  0.00    -0.259 NA
HETATM   12  C   UNL     1      20.693  45.574  48.509  1.00  0.00     0.016 A 
HETATM   13  C   UNL     1      19.417  45.913  48.059  1.00  0.00     0.001 A 
HETATM   14  C   UNL     1      19.191  47.166  47.500  1.00  0.00     0.002 A 
HETATM   15  C   UNL     1      20.240  48.081  47.391  1.00  0.00     0.024 A 
HETATM   16  H   UNL     1      22.195  49.548  47.227  1.00  0.00     0.130 HD
ENDROOT
BRANCH   7  17
HETATM   17  S   UNL     1      27.208  45.091  50.268  1.00  0.00    -0.084 SA
BRANCH  17  18
HETATM   18  C   UNL     1      26.797  43.847  51.530  1.00  0.00     0.121 C 
BRANCH  18  19
HETATM   19  C   UNL     1      27.850  43.779  52.611  1.00  0.00    -0.048 A 
HETATM   20  C   UNL     1      28.951  42.917  52.478  1.00  0.00     0.009 A 
HETATM   21  C   UNL     1      29.928  42.859  53.473  1.00  0.00     0.024 A 
HETATM   22  C   UNL     1      29.810  43.655  54.609  1.00  0.00     0.034 A 
HETATM   23 CL   UNL     1      31.017  43.584  55.834  1.00  0.00    -0.084 Cl
HETATM   24  C   UNL     1      28.718  44.507  54.762  1.00  0.00     0.024 A 
HETATM   25  C   UNL     1      27.740  44.568  53.767  1.00  0.00     0.009 A 
ENDBRANCH  18  19
ENDBRANCH  17  18
ENDBRANCH   7  17
BRANCH   1  26
HETATM   26  C   UNL     1      22.775  50.518  49.296  1.00  0.00     0.203 C 
HETATM   27  O   UNL     1      23.518  51.453  49.617  1.00  0.00    -0.288 OA
BRANCH  26  28
HETATM   28  C   UNL     1      21.303  50.722  49.366  1.00  0.00     0.014 A 
HETATM   29  C   UNL     1      20.722  51.611  48.449  1.00  0.00     0.015 A 
HETATM   30  C   UNL     1      19.345  51.839  48.463  1.00  0.00     0.001 A 
HETATM   31  C   UNL     1      18.544  51.188  49.399  1.00  0.00     0.000 A 
HETATM   32  C   UNL     1      19.118  50.315  50.324  1.00  0.00     0.001 A 
HETATM   33  C   UNL     1      20.496  50.083  50.313  1.00  0.00     0.015 A 
ENDBRANCH  26  28
ENDBRANCH   1  26
TORSDOF 5
ENDMDL
MODEL 5
REMARK VINA RESULT:     -10.1      5.170      8.996
REMARK  5 active torsions:
REMARK  status: ('A' for Active; 'I' for Inactive)
REMARK    1  A    between atoms: C_4  and  C_5 
REMARK    2  A    between atoms: C_5  and  C_6 
REMARK    3  A    between atoms: C_12  and  S_13 
REMARK    4  A    between atoms: S_13  and  C_14 
REMARK    5  A    between atoms: C_14  and  C_15 
ROOT
HETATM    1  C   UNL     1      24.973  45.992  51.469  1.00  0.00     0.283 C 
HETATM    2  O   UNL     1      25.263  46.594  50.216  1.00  0.00    -0.303 OA
HETATM    3  C   UNL     1      24.132  47.158  49.681  1.00  0.00     0.201 A 
HETATM    4  C   UNL     1      23.219  46.345  49.031  1.00  0.00     0.144 A 
HETATM    5  N   UNL     1      22.201  46.924  48.369  1.00  0.00    -0.142 NA
HETATM    6  N   UNL     1      22.107  48.288  48.383  1.00  0.00    -0.122 NA
HETATM    7  C   UNL     1      23.028  49.026  49.047  1.00  0.00     0.212 A 
HETATM    8  N   UNL     1      24.079  48.505  49.703  1.00  0.00    -0.195 NA
HETATM    9  C   UNL     1      23.323  44.889  49.051  1.00  0.00     0.020 A 
HETATM   10  C   UNL     1      23.716  44.225  50.237  1.00  0.00     0.023 A 
HETATM   11  N   UNL     1      23.940  44.922  51.443  1.00  0.00    -0.259 NA
HETATM   12  C   UNL     1      23.029  44.128  47.905  1.00  0.00     0.016 A 
HETATM   13  C   UNL     1      23.128  42.737  47.922  1.00  0.00     0.001 A 
HETATM   14  C   UNL     1      23.503  42.085  49.092  1.00  0.00     0.002 A 
HETATM   15  C   UNL     1      23.781  42.823  50.244  1.00  0.00     0.024 A 
HETATM   16  H   UNL     1      24.182  44.260  52.188  1.00  0.00     0.130 HD
ENDROOT
BRANCH   7  17
HETATM   17  S   UNL     1      22.871  50.794  49.054  1.00  0.00    -0.084 SA
BRANCH  17  18
HETATM   18  C   UNL     1      21.615  50.977  50.357  1.00  0.00     0.121 C 
BRANCH  18  19
HETATM   19  C   UNL     1      20.228  51.132  49.779  1.00  0.00    -0.048 A 
HETATM   20  C   UNL     1      19.142  50.444  50.343  1.00  0.00     0.009 A 
HETATM   21  C   UNL     1      17.858  50.591  49.814  1.00  0.00     0.024 A 
HETATM   22  C   UNL     1      17.653  51.420  48.715  1.00  0.00     0.034 A 
HETATM   23 CL   UNL     1      16.069  51.604  48.065  1.00  0.00    -0.084 Cl
HETATM   24  C   UNL     1      18.722  52.102  48.136  1.00  0.00     0.024 A 
HETATM   25  C   UNL     1      20.006  51.956  48.665  1.00  0.00     0.009 A 
ENDBRANCH  18  19
ENDBRANCH  17  18
ENDBRANCH   7  17
BRANCH   1  26
HETATM   26  C   UNL     1      26.258  45.370  52.080  1.00  0.00     0.203 C 
HETATM   27  O   UNL     1      26.815  44.401  51.550  1.00  0.00    -0.288 OA
BRANCH  26  28
HETATM   28  C   UNL     1      26.830  45.919  53.339  1.00  0.00     0.014 A 
HETATM   29  C   UNL     1      27.702  45.100  54.072  1.00  0.00     0.015 A 
HETATM   30  C   UNL     1      28.274  45.562  55.258  1.00  0.00     0.001 A 
HETATM   31  C   UNL     1      27.970  46.841  55.723  1.00  0.00     0.000 A 
HETATM   32  C   UNL     1      27.091  47.654  55.006  1.00  0.00     0.001 A 
HETATM   33  C   UNL     1      26.517  47.196  53.817  1.00  0.00     0.015 A 
ENDBRANCH  26  28
ENDBRANCH   1  26
TORSDOF 5
ENDMDL
MODEL 6
REMARK VINA RESULT:     -10.0      2.813      5.275
REMARK  5 active torsions:
REMARK  status: ('A' for Active; 'I' for Inactive)
REMARK    1  A    between atoms: C_4  and  C_5 
REMARK    2  A    between atoms: C_5  and  C_6 
REMARK    3  A    between atoms: C_12  and  S_13 
REMARK    4  A    between atoms: S_13  and  C_14 
REMARK    5  A    between atoms: C_14  and  C_15 
ROOT
HETATM    1  C   UNL     1      22.610  45.504  48.903  1.00  0.00     0.283 C 
HETATM    2  O   UNL     1      24.021  45.486  48.746  1.00  0.00    -0.303 OA
HETATM    3  C   UNL     1      24.637  45.963  49.876  1.00  0.00     0.201 A 
HETATM    4  C   UNL     1      24.718  47.331  50.069  1.00  0.00     0.144 A 
HETATM    5  N   UNL     1      25.463  47.792  51.091  1.00  0.00    -0.142 NA
HETATM    6  N   UNL     1      26.091  46.886  51.900  1.00  0.00    -0.122 NA
HETATM    7  C   UNL     1      25.962  45.559  51.661  1.00  0.00     0.212 A 
HETATM    8  N   UNL     1      25.253  45.043  50.643  1.00  0.00    -0.195 NA
HETATM    9  C   UNL     1      24.017  48.281  49.211  1.00  0.00     0.020 A 
HETATM   10  C   UNL     1      22.707  47.992  48.758  1.00  0.00     0.023 A 
HETATM   11  N   UNL     1      22.012  46.838  49.177  1.00  0.00    -0.259 NA
HETATM   12  C   UNL     1      24.622  49.492  48.827  1.00  0.00     0.016 A 
HETATM   13  C   UNL     1      23.954  50.400  48.006  1.00  0.00     0.001 A 
HETATM   14  C   UNL     1      22.663  50.120  47.572  1.00  0.00     0.002 A 
HETATM   15  C   UNL     1      22.040  48.932  47.958  1.00  0.00     0.024 A 
HETATM   16  H   UNL     1      21.072  46.831  48.766  1.00  0.00     0.130 HD
ENDROOT
BRANCH   7  17
HETATM   17  S   UNL     1      26.782  44.409  52.736  1.00  0.00    -0.084 SA
BRANCH  17  18
HETATM   18  C   UNL     1      27.382  45.564  54.007  1.00  0.00     0.121 C 
BRANCH  18  19
HETATM   19  C   UNL     1      28.569  45.005  54.755  1.00  0.00    -0.048 A 
HETATM   20  C   UNL     1      29.128  43.772  54.381  1.00  0.00     0.009 A 
HETATM   21  C   UNL     1      30.230  43.256  55.067  1.00  0.00     0.024 A 
HETATM   22  C   UNL     1      30.776  43.965  56.133  1.00  0.00     0.034 A 
HETATM   23 CL   UNL     1      32.136  43.330  56.976  1.00  0.00    -0.084 Cl
HETATM   24  C   UNL     1      30.227  45.185  56.524  1.00  0.00     0.024 A 
HETATM   25  C   UNL     1      29.125  45.702  55.839  1.00  0.00     0.009 A 
ENDBRANCH  18  19
ENDBRANCH  17  18
ENDBRANCH   7  17
BRANCH   1  26
HETATM   26  C   UNL     1      21.918  44.948  47.628  1.00  0.00     0.203 C 
HETATM   27  O   UNL     1      22.489  44.136  46.891  1.00  0.00    -0.288 OA
BRANCH  26  28
HETATM   28  C   UNL     1      20.552  45.409  47.256  1.00  0.00     0.014 A 
HETATM   29  C   UNL     1      20.421  46.201  46.106  1.00  0.00     0.015 A 
HETATM   30  C   UNL     1      19.165  46.658  45.705  1.00  0.00     0.001 A 
HETATM   31  C   UNL     1      18.036  46.335  46.456  1.00  0.00     0.000 A 
HETATM   32  C   UNL     1      18.163  45.560  47.610  1.00  0.00     0.001 A 
HETATM   33  C   UNL     1      19.418  45.099  48.015  1.00  0.00     0.015 A 
ENDBRANCH  26  28
ENDBRANCH   1  26
TORSDOF 5
ENDMDL
MODEL 7
REMARK VINA RESULT:      -9.9      5.141      7.497
REMARK  5 active torsions:
REMARK  status: ('A' for Active; 'I' for Inactive)
REMARK    1  A    between atoms: C_4  and  C_5 
REMARK    2  A    between atoms: C_5  and  C_6 
REMARK    3  A    between atoms: C_12  and  S_13 
REMARK    4  A    between atoms: S_13  and  C_14 
REMARK    5  A    between atoms: C_14  and  C_15 
ROOT
HETATM    1  C   UNL     1      19.821  46.955  49.020  1.00  0.00     0.283 C 
HETATM    2  O   UNL     1      20.895  47.228  48.131  1.00  0.00    -0.303 OA
HETATM    3  C   UNL     1      21.982  47.701  48.821  1.00  0.00     0.201 A 
HETATM    4  C   UNL     1      22.011  49.033  49.197  1.00  0.00     0.144 A 
HETATM    5  N   UNL     1      23.146  49.526  49.726  1.00  0.00    -0.142 NA
HETATM    6  N   UNL     1      24.212  48.684  49.881  1.00  0.00    -0.122 NA
HETATM    7  C   UNL     1      24.114  47.388  49.502  1.00  0.00     0.212 A 
HETATM    8  N   UNL     1      23.017  46.847  48.946  1.00  0.00    -0.195 NA
HETATM    9  C   UNL     1      20.853  49.908  49.048  1.00  0.00     0.020 A 
HETATM   10  C   UNL     1      19.555  49.417  49.323  1.00  0.00     0.023 A 
HETATM   11  N   UNL     1      19.341  48.114  49.820  1.00  0.00    -0.259 NA
HETATM   12  C   UNL     1      21.006  51.246  48.638  1.00  0.00     0.016 A 
HETATM   13  C   UNL     1      19.901  52.083  48.494  1.00  0.00     0.001 A 
HETATM   14  C   UNL     1      18.627  51.602  48.777  1.00  0.00     0.002 A 
HETATM   15  C   UNL     1      18.458  50.283  49.202  1.00  0.00     0.024 A 
HETATM   16  H   UNL     1      18.340  47.964  49.985  1.00  0.00     0.130 HD
ENDROOT
BRANCH   7  17
HETATM   17  S   UNL     1      25.513  46.318  49.727  1.00  0.00    -0.084 SA
BRANCH  17  18
HETATM   18  C   UNL     1      24.963  45.413  51.206  1.00  0.00     0.121 C 
BRANCH  18  19
HETATM   19  C   UNL     1      25.835  45.715  52.402  1.00  0.00    -0.048 A 
HETATM   20  C   UNL     1      25.743  46.955  53.053  1.00  0.00     0.009 A 
HETATM   21  C   UNL     1      26.544  47.233  54.164  1.00  0.00     0.024 A 
HETATM   22  C   UNL     1      27.444  46.276  54.626  1.00  0.00     0.034 A 
HETATM   23 CL   UNL     1      28.427  46.618  55.996  1.00  0.00    -0.084 Cl
HETATM   24  C   UNL     1      27.554  45.044  53.984  1.00  0.00     0.024 A 
HETATM   25  C   UNL     1      26.754  44.765  52.874  1.00  0.00     0.009 A 
ENDBRANCH  18  19
ENDBRANCH  17  18
ENDBRANCH   7  17
BRANCH   1  26
HETATM   26  C   UNL     1      18.598  46.404  48.237  1.00  0.00     0.203 C 
HETATM   27  O   UNL     1      18.357  45.192  48.195  1.00  0.00    -0.288 OA
BRANCH  26  28
HETATM   28  C   UNL     1      17.703  47.334  47.496  1.00  0.00     0.014 A 
HETATM   29  C   UNL     1      16.413  47.543  48.005  1.00  0.00     0.015 A 
HETATM   30  C   UNL     1      15.531  48.409  47.356  1.00  0.00     0.001 A 
HETATM   31  C   UNL     1      15.929  49.060  46.191  1.00  0.00     0.000 A 
HETATM   32  C   UNL     1      17.206  48.844  45.671  1.00  0.00     0.001 A 
HETATM   33  C   UNL     1      18.094  47.980  46.318  1.00  0.00     0.015 A 
ENDBRANCH  26  28
ENDBRANCH   1  26
TORSDOF 5
ENDMDL
MODEL 8
REMARK VINA RESULT:      -9.6      4.815      9.179
REMARK  5 active torsions:
REMARK  status: ('A' for Active; 'I' for Inactive)
REMARK    1  A    between atoms: C_4  and  C_5 
REMARK    2  A    between atoms: C_5  and  C_6 
REMARK    3  A    between atoms: C_12  and  S_13 
REMARK    4  A    between atoms: S_13  and  C_14 
REMARK    5  A    between atoms: C_14  and  C_15 
ROOT
HETATM    1  C   UNL     1      25.658  43.712  49.358  1.00  0.00     0.283 C 
HETATM    2  O   UNL     1      24.562  44.310  50.036  1.00  0.00    -0.303 OA
HETATM    3  C   UNL     1      24.688  45.677  50.041  1.00  0.00     0.201 A 
HETATM    4  C   UNL     1      25.529  46.270  50.966  1.00  0.00     0.144 A 
HETATM    5  N   UNL     1      25.521  47.612  51.073  1.00  0.00    -0.142 NA
HETATM    6  N   UNL     1      24.694  48.326  50.251  1.00  0.00    -0.122 NA
HETATM    7  C   UNL     1      23.903  47.683  49.360  1.00  0.00     0.212 A 
HETATM    8  N   UNL     1      23.850  46.347  49.226  1.00  0.00    -0.195 NA
HETATM    9  C   UNL     1      26.425  45.491  51.814  1.00  0.00     0.020 A 
HETATM   10  C   UNL     1      27.101  44.366  51.284  1.00  0.00     0.023 A 
HETATM   11  N   UNL     1      27.001  44.010  49.923  1.00  0.00    -0.259 NA
HETATM   12  C   UNL     1      26.636  45.844  53.160  1.00  0.00     0.016 A 
HETATM   13  C   UNL     1      27.490  45.100  53.972  1.00  0.00     0.001 A 
HETATM   14  C   UNL     1      28.163  44.003  53.446  1.00  0.00     0.002 A 
HETATM   15  C   UNL     1      27.981  43.648  52.109  1.00  0.00     0.024 A 
HETATM   16  H   UNL     1      27.590  43.192  49.733  1.00  0.00     0.130 HD
ENDROOT
BRANCH   7  17
HETATM   17  S   UNL     1      22.848  48.641  48.301  1.00  0.00    -0.084 SA
BRANCH  17  18
HETATM   18  C   UNL     1      21.228  48.138  48.959  1.00  0.00     0.121 C 
BRANCH  18  19
HETATM   19  C   UNL     1      20.310  49.322  49.151  1.00  0.00    -0.048 A 
HETATM   20  C   UNL     1      19.111  49.183  49.868  1.00  0.00     0.009 A 
HETATM   21  C   UNL     1      18.266  50.279  50.053  1.00  0.00     0.024 A 
HETATM   22  C   UNL     1      18.609  51.517  49.518  1.00  0.00     0.034 A 
HETATM   23 CL   UNL     1      17.567  52.868  49.749  1.00  0.00    -0.084 Cl
HETATM   24  C   UNL     1      19.790  51.669  48.794  1.00  0.00     0.024 A 
HETATM   25  C   UNL     1      20.637  50.575  48.609  1.00  0.00     0.009 A 
ENDBRANCH  18  19
ENDBRANCH  17  18
ENDBRANCH   7  17
BRANCH   1  26
HETATM   26  C   UNL     1      25.504  42.167  49.340  1.00  0.00     0.203 C 
HETATM   27  O   UNL     1      24.398  41.632  49.478  1.00  0.00    -0.288 OA
BRANCH  26  28
HETATM   28  C   UNL     1      26.701  41.297  49.180  1.00  0.00     0.014 A 
HETATM   29  C   UNL     1      27.304  41.243  47.915  1.00  0.00     0.015 A 
HETATM   30  C   UNL     1      28.433  40.449  47.706  1.00  0.00     0.001 A 
HETATM   31  C   UNL     1      28.957  39.698  48.756  1.00  0.00     0.000 A 
HETATM   32  C   UNL     1      28.352  39.736  50.013  1.00  0.00     0.001 A 
HETATM   33  C   UNL     1      27.222  40.530  50.228  1.00  0.00     0.015 A 
ENDBRANCH  26  28
ENDBRANCH   1  26
TORSDOF 5
ENDMDL
MODEL 9
REMARK VINA RESULT:      -9.6      2.356      5.295
REMARK  5 active torsions:
REMARK  status: ('A' for Active; 'I' for Inactive)
REMARK    1  A    between atoms: C_4  and  C_5 
REMARK    2  A    between atoms: C_5  and  C_6 
REMARK    3  A    between atoms: C_12  and  S_13 
REMARK    4  A    between atoms: S_13  and  C_14 
REMARK    5  A    between atoms: C_14  and  C_15 
ROOT
HETATM    1  C   UNL     1      22.834  45.185  48.891  1.00  0.00     0.283 C 
HETATM    2  O   UNL     1      24.246  45.285  48.779  1.00  0.00    -0.303 OA
HETATM    3  C   UNL     1      24.785  45.784  49.938  1.00  0.00     0.201 A 
HETATM    4  C   UNL     1      24.748  47.150  50.163  1.00  0.00     0.144 A 
HETATM    5  N   UNL     1      25.422  47.645  51.217  1.00  0.00    -0.142 NA
HETATM    6  N   UNL     1      26.097  46.775  52.026  1.00  0.00    -0.122 NA
HETATM    7  C   UNL     1      26.084  45.448  51.756  1.00  0.00     0.212 A 
HETATM    8  N   UNL     1      25.452  44.899  50.705  1.00  0.00    -0.195 NA
HETATM    9  C   UNL     1      23.998  48.059  49.302  1.00  0.00     0.020 A 
HETATM   10  C   UNL     1      22.731  47.675  48.801  1.00  0.00     0.023 A 
HETATM   11  N   UNL     1      22.120  46.459  49.173  1.00  0.00    -0.259 NA
HETATM   12  C   UNL     1      24.514  49.324  48.963  1.00  0.00     0.016 A 
HETATM   13  C   UNL     1      23.799  50.193  48.140  1.00  0.00     0.001 A 
HETATM   14  C   UNL     1      22.549  49.819  47.659  1.00  0.00     0.002 A 
HETATM   15  C   UNL     1      22.013  48.576  48.000  1.00  0.00     0.024 A 
HETATM   16  H   UNL     1      21.197  46.385  48.733  1.00  0.00     0.130 HD
ENDROOT
BRANCH   7  17
HETATM   17  S   UNL     1      26.963  44.343  52.833  1.00  0.00    -0.084 SA
BRANCH  17  18
HETATM   18  C   UNL     1      27.589  45.545  54.047  1.00  0.00     0.121 C 
BRANCH  18  19
HETATM   19  C   UNL     1      28.755  44.991  54.832  1.00  0.00    -0.048 A 
HETATM   20  C   UNL     1      29.261  43.713  54.545  1.00  0.00     0.009 A 
HETATM   21  C   UNL     1      30.344  43.203  55.264  1.00  0.00     0.024 A 
HETATM   22  C   UNL     1      30.923  43.962  56.277  1.00  0.00     0.034 A 
HETATM   23 CL   UNL     1      32.260  43.333  57.161  1.00  0.00    -0.084 Cl
HETATM   24  C   UNL     1      30.426  45.228  56.581  1.00  0.00     0.024 A 
HETATM   25  C   UNL     1      29.343  45.740  55.863  1.00  0.00     0.009 A 
ENDBRANCH  18  19
ENDBRANCH  17  18
ENDBRANCH   7  17
BRANCH   1  26
HETATM   26  C   UNL     1      22.228  44.604  47.583  1.00  0.00     0.203 C 
HETATM   27  O   UNL     1      21.345  45.208  46.963  1.00  0.00    -0.288 OA
BRANCH  26  28
HETATM   28  C   UNL     1      22.689  43.287  47.066  1.00  0.00     0.014 A 
HETATM   29  C   UNL     1      22.791  42.226  47.979  1.00  0.00     0.015 A 
HETATM   30  C   UNL     1      23.212  40.966  47.551  1.00  0.00     0.001 A 
HETATM   31  C   UNL     1      23.542  40.763  46.212  1.00  0.00     0.000 A 
HETATM   32  C   UNL     1      23.458  41.818  45.303  1.00  0.00     0.001 A 
HETATM   33  C   UNL     1      23.035  43.081  45.726  1.00  0.00     0.015 A 
ENDBRANCH  26  28
ENDBRANCH   1  26
TORSDOF 5
ENDMDL
MODEL 10
REMARK VINA RESULT:      -9.4      4.223      9.004
REMARK  5 active torsions:
REMARK  status: ('A' for Active; 'I' for Inactive)
REMARK    1  A    between atoms: C_4  and  C_5 
REMARK    2  A    between atoms: C_5  and  C_6 
REMARK    3  A    between atoms: C_12  and  S_13 
REMARK    4  A    between atoms: S_13  and  C_14 
REMARK    5  A    between atoms: C_14  and  C_15 
ROOT
HETATM    1  C   UNL     1      27.237  43.174  51.317  1.00  0.00     0.283 C 
HETATM    2  O   UNL     1      25.963  43.579  51.796  1.00  0.00    -0.303 OA
HETATM    3  C   UNL     1      25.770  44.919  51.574  1.00  0.00     0.201 A 
HETATM    4  C   UNL     1      26.341  45.833  52.443  1.00  0.00     0.144 A 
HETATM    5  N   UNL     1      26.012  47.132  52.316  1.00  0.00    -0.142 NA
HETATM    6  N   UNL     1      25.143  47.490  51.323  1.00  0.00    -0.122 NA
HETATM    7  C   UNL     1      24.628  46.546  50.499  1.00  0.00     0.212 A 
HETATM    8  N   UNL     1      24.899  45.234  50.595  1.00  0.00    -0.195 NA
HETATM    9  C   UNL     1      27.288  45.433  53.479  1.00  0.00     0.020 A 
HETATM   10  C   UNL     1      28.261  44.443  53.204  1.00  0.00     0.023 A 
HETATM   11  N   UNL     1      28.402  43.873  51.921  1.00  0.00    -0.259 NA
HETATM   12  C   UNL     1      27.256  46.026  54.755  1.00  0.00     0.016 A 
HETATM   13  C   UNL     1      28.160  45.645  55.746  1.00  0.00     0.001 A 
HETATM   14  C   UNL     1      29.123  44.680  55.470  1.00  0.00     0.002 A 
HETATM   15  C   UNL     1      29.181  44.095  54.204  1.00  0.00     0.024 A 
HETATM   16  H   UNL     1      29.181  43.206  51.921  1.00  0.00     0.130 HD
ENDROOT
BRANCH   7  17
HETATM   17  S   UNL     1      23.510  47.046  49.214  1.00  0.00    -0.084 SA
BRANCH  17  18
HETATM   18  C   UNL     1      23.956  48.806  49.097  1.00  0.00     0.121 C 
BRANCH  18  19
HETATM   19  C   UNL     1      22.736  49.681  48.926  1.00  0.00    -0.048 A 
HETATM   20  C   UNL     1      22.260  50.454  49.997  1.00  0.00     0.009 A 
HETATM   21  C   UNL     1      21.137  51.269  49.838  1.00  0.00     0.024 A 
HETATM   22  C   UNL     1      20.481  51.312  48.611  1.00  0.00     0.034 A 
HETATM   23 CL   UNL     1      19.099  52.319  48.415  1.00  0.00    -0.084 Cl
HETATM   24  C   UNL     1      20.934  50.543  47.541  1.00  0.00     0.024 A 
HETATM   25  C   UNL     1      22.057  49.728  47.698  1.00  0.00     0.009 A 
ENDBRANCH  18  19
ENDBRANCH  17  18
ENDBRANCH   7  17
BRANCH   1  26
HETATM   26  C   UNL     1      27.445  41.653  51.555  1.00  0.00     0.203 C 
HETATM   27  O   UNL     1      27.252  41.146  52.666  1.00  0.00    -0.288 OA
BRANCH  26  28
HETATM   28  C   UNL     1      27.911  40.779  50.444  1.00  0.00     0.014 A 
HETATM   29  C   UNL     1      27.514  41.111  49.140  1.00  0.00     0.015 A 
HETATM   30  C   UNL     1      27.924  40.331  48.058  1.00  0.00     0.001 A 
HETATM   31  C   UNL     1      28.723  39.210  48.274  1.00  0.00     0.000 A 
HETATM   32  C   UNL     1      29.108  38.866  49.570  1.00  0.00     0.001 A 
HETATM   33  C   UNL     1      28.701  39.644  50.657  1.00  0.00     0.015 A 
ENDBRANCH  26  28
ENDBRANCH   1  26
TORSDOF 5
ENDMDL
