MODEL 1
REMARK VINA RESULT:      -8.4      0.000      0.000
REMARK  5 active torsions:
REMARK  status: ('A' for Active; 'I' for Inactive)
REMARK    1  A    between atoms: C_4  and  C_5 
REMARK    2  A    between atoms: C_10  and  C_11 
REMARK       I    between atoms: C_11  and  N_12 
REMARK    3  A    between atoms: N_12  and  C_13 
REMARK    4  A    between atoms: C_13  and  C_14 
REMARK    5  A    between atoms: C_22  and  C_23 
ROOT
HETATM    1  C   UNL     1      18.048  48.601  49.537  1.00  0.00     0.118 C 
HETATM    2  N   UNL     1      19.324  47.912  49.371  1.00  0.00    -0.365 N 
HETATM    3  C   UNL     1      20.469  48.588  49.109  1.00  0.00     0.141 A 
HETATM    4  N   UNL     1      20.531  49.950  49.207  1.00  0.00    -0.238 N 
HETATM    5  N   UNL     1      21.747  50.464  48.958  1.00  0.00    -0.163 NA
HETATM    6  C   UNL     1      22.498  49.383  48.623  1.00  0.00     0.165 A 
HETATM    7  C   UNL     1      21.726  48.197  48.723  1.00  0.00     0.092 A 
HETATM    8 BR   UNL     1      22.287  46.444  48.378  1.00  0.00    -0.044 Br
HETATM    9  C   UNL     1      19.414  50.796  49.583  1.00  0.00     0.221 C 
HETATM   10  C   UNL     1      18.288  49.960  50.221  1.00  0.00     0.066 C 
HETATM   11  H   UNL     1      19.258  46.917  49.156  1.00  0.00     0.162 HD
ENDROOT
BRANCH   6  12
HETATM   12  C   UNL     1      23.897  49.549  48.198  1.00  0.00     0.273 C 
HETATM   13  N   UNL     1      24.784  48.874  49.008  1.00  0.00    -0.353 N 
HETATM   14  H   UNL     1      24.379  48.424  49.826  1.00  0.00     0.162 HD
HETATM   15  O   UNL     1      24.252  50.243  47.250  1.00  0.00    -0.266 OA
BRANCH  13  16
HETATM   16  C   UNL     1      26.222  49.036  48.944  1.00  0.00     0.155 C 
BRANCH  16  17
HETATM   17  C   UNL     1      26.984  48.067  49.861  1.00  0.00     0.139 C 
HETATM   18  O   UNL     1      27.456  46.945  49.085  1.00  0.00    -0.384 OA
HETATM   19  C   UNL     1      26.968  45.736  49.681  1.00  0.00     0.168 C 
HETATM   20  C   UNL     1      25.798  46.119  50.556  1.00  0.00     0.029 C 
HETATM   21  C   UNL     1      26.180  47.500  51.024  1.00  0.00     0.035 C 
ENDBRANCH  16  17
ENDBRANCH  13  16
ENDBRANCH   6  12
BRANCH   9  22
HETATM   22  C   UNL     1      18.968  51.630  48.400  1.00  0.00     0.409 C 
HETATM   23  F   UNL     1      17.668  51.974  48.433  1.00  0.00    -0.169 F 
HETATM   24  F   UNL     1      19.687  52.782  48.343  1.00  0.00    -0.169 F 
HETATM   25  F   UNL     1      19.185  50.994  47.225  1.00  0.00    -0.169 F 
ENDBRANCH   9  22
BRANCH   1  26
HETATM   26  C   UNL     1      17.223  48.656  48.260  1.00  0.00    -0.035 A 
HETATM   27  C   UNL     1      17.650  48.087  47.049  1.00  0.00     0.009 A 
HETATM   28  C   UNL     1      16.857  48.155  45.900  1.00  0.00     0.001 A 
HETATM   29  C   UNL     1      15.618  48.785  45.944  1.00  0.00     0.000 A 
HETATM   30  C   UNL     1      15.166  49.340  47.136  1.00  0.00     0.001 A 
HETATM   31  C   UNL     1      15.959  49.273  48.285  1.00  0.00     0.009 A 
ENDBRANCH   1  26
TORSDOF 5
ENDMDL
MODEL 2
REMARK VINA RESULT:      -8.1     13.406     15.190
REMARK  5 active torsions:
REMARK  status: ('A' for Active; 'I' for Inactive)
REMARK    1  A    between atoms: C_4  and  C_5 
REMARK    2  A    between atoms: C_10  and  C_11 
REMARK       I    between atoms: C_11  and  N_12 
REMARK    3  A    between atoms: N_12  and  C_13 
REMARK    4  A    between atoms: C_13  and  C_14 
REMARK    5  A    between atoms: C_22  and  C_23 
ROOT
HETATM    1  C   UNL     1      32.495  49.191  41.043  1.00  0.00     0.118 C 
HETATM    2  N   UNL     1      33.920  49.511  41.035  1.00  0.00    -0.365 N 
HETATM    3  C   UNL     1      34.439  50.470  41.839  1.00  0.00     0.141 A 
HETATM    4  N   UNL     1      33.705  51.027  42.850  1.00  0.00    -0.238 N 
HETATM    5  N   UNL     1      34.376  51.931  43.583  1.00  0.00    -0.163 NA
HETATM    6  C   UNL     1      35.590  52.006  42.979  1.00  0.00     0.165 A 
HETATM    7  C   UNL     1      35.659  51.093  41.895  1.00  0.00     0.092 A 
HETATM    8 BR   UNL     1      37.109  50.800  40.746  1.00  0.00    -0.044 Br
HETATM    9  C   UNL     1      32.333  50.671  43.158  1.00  0.00     0.221 C 
HETATM   10  C   UNL     1      31.947  49.345  42.475  1.00  0.00     0.066 C 
HETATM   11  H   UNL     1      34.429  49.211  40.203  1.00  0.00     0.162 HD
ENDROOT
BRANCH   6  12
HETATM   12  C   UNL     1      36.601  52.966  43.452  1.00  0.00     0.273 C 
HETATM   13  N   UNL     1      37.061  52.676  44.717  1.00  0.00    -0.353 N 
HETATM   14  H   UNL     1      36.598  51.901  45.188  1.00  0.00     0.162 HD
HETATM   15  O   UNL     1      36.973  53.945  42.812  1.00  0.00    -0.266 OA
BRANCH  13  16
HETATM   16  C   UNL     1      37.894  53.566  45.498  1.00  0.00     0.155 C 
BRANCH  16  17
HETATM   17  C   UNL     1      38.647  52.854  46.634  1.00  0.00     0.139 C 
HETATM   18  O   UNL     1      38.279  53.448  47.897  1.00  0.00    -0.384 OA
HETATM   19  C   UNL     1      39.470  53.883  48.565  1.00  0.00     0.168 C 
HETATM   20  C   UNL     1      40.549  53.992  47.513  1.00  0.00     0.029 C 
HETATM   21  C   UNL     1      40.167  52.904  46.542  1.00  0.00     0.035 C 
ENDBRANCH  16  17
ENDBRANCH  13  16
ENDBRANCH   6  12
BRANCH   9  22
HETATM   22  C   UNL     1      31.406  51.824  42.832  1.00  0.00     0.409 C 
HETATM   23  F   UNL     1      31.838  52.604  41.825  1.00  0.00    -0.169 F 
HETATM   24  F   UNL     1      30.181  51.353  42.480  1.00  0.00    -0.169 F 
HETATM   25  F   UNL     1      31.206  52.627  43.904  1.00  0.00    -0.169 F 
ENDBRANCH   9  22
BRANCH   1  26
HETATM   26  C   UNL     1      31.708  49.923  39.968  1.00  0.00    -0.035 A 
HETATM   27  C   UNL     1      32.287  50.871  39.107  1.00  0.00     0.009 A 
HETATM   28  C   UNL     1      31.527  51.515  38.128  1.00  0.00     0.001 A 
HETATM   29  C   UNL     1      30.176  51.216  37.983  1.00  0.00     0.000 A 
HETATM   30  C   UNL     1      29.585  50.269  38.811  1.00  0.00     0.001 A 
HETATM   31  C   UNL     1      30.344  49.625  39.792  1.00  0.00     0.009 A 
ENDBRANCH   1  26
TORSDOF 5
ENDMDL
MODEL 3
REMARK VINA RESULT:      -8.1      9.208     11.338
REMARK  5 active torsions:
REMARK  status: ('A' for Active; 'I' for Inactive)
REMARK    1  A    between atoms: C_4  and  C_5 
REMARK    2  A    between atoms: C_10  and  C_11 
REMARK       I    between atoms: C_11  and  N_12 
REMARK    3  A    between atoms: N_12  and  C_13 
REMARK    4  A    between atoms: C_13  and  C_14 
REMARK    5  A    between atoms: C_22  and  C_23 
ROOT
HETATM    1  C   UNL     1      26.177  43.835  54.407  1.00  0.00     0.118 C 
HETATM    2  N   UNL     1      25.479  43.510  53.166  1.00  0.00    -0.365 N 
HETATM    3  C   UNL     1      26.087  42.831  52.163  1.00  0.00     0.141 A 
HETATM    4  N   UNL     1      27.298  42.224  52.346  1.00  0.00    -0.238 N 
HETATM    5  N   UNL     1      27.745  41.555  51.270  1.00  0.00    -0.163 NA
HETATM    6  C   UNL     1      26.802  41.790  50.322  1.00  0.00     0.165 A 
HETATM    7  C   UNL     1      25.747  42.573  50.860  1.00  0.00     0.092 A 
HETATM    8 BR   UNL     1      24.206  43.165  49.976  1.00  0.00    -0.044 Br
HETATM    9  C   UNL     1      28.047  42.246  53.588  1.00  0.00     0.221 C 
HETATM   10  C   UNL     1      27.149  42.691  54.758  1.00  0.00     0.066 C 
HETATM   11  H   UNL     1      24.649  44.072  52.973  1.00  0.00     0.162 HD
ENDROOT
BRANCH   6  12
HETATM   12  C   UNL     1      26.976  41.280  48.953  1.00  0.00     0.273 C 
HETATM   13  N   UNL     1      26.342  40.074  48.748  1.00  0.00    -0.353 N 
HETATM   14  H   UNL     1      25.912  39.657  49.571  1.00  0.00     0.162 HD
HETATM   15  O   UNL     1      27.643  41.840  48.088  1.00  0.00    -0.266 OA
BRANCH  13  16
HETATM   16  C   UNL     1      26.524  39.255  47.568  1.00  0.00     0.155 C 
BRANCH  16  17
HETATM   17  C   UNL     1      27.276  37.944  47.848  1.00  0.00     0.139 C 
HETATM   18  O   UNL     1      27.142  37.605  49.245  1.00  0.00    -0.384 OA
HETATM   19  C   UNL     1      28.451  37.449  49.808  1.00  0.00     0.168 C 
HETATM   20  C   UNL     1      29.414  38.155  48.882  1.00  0.00     0.029 C 
HETATM   21  C   UNL     1      28.767  37.966  47.535  1.00  0.00     0.035 C 
ENDBRANCH  16  17
ENDBRANCH  13  16
ENDBRANCH   6  12
BRANCH   9  22
HETATM   22  C   UNL     1      29.305  43.075  53.428  1.00  0.00     0.409 C 
HETATM   23  F   UNL     1      29.161  44.135  52.613  1.00  0.00    -0.169 F 
HETATM   24  F   UNL     1      29.710  43.547  54.635  1.00  0.00    -0.169 F 
HETATM   25  F   UNL     1      30.334  42.338  52.949  1.00  0.00    -0.169 F 
ENDBRANCH   9  22
BRANCH   1  26
HETATM   26  C   UNL     1      26.790  45.226  54.406  1.00  0.00    -0.035 A 
HETATM   27  C   UNL     1      26.385  46.240  53.521  1.00  0.00     0.009 A 
HETATM   28  C   UNL     1      26.971  47.508  53.559  1.00  0.00     0.001 A 
HETATM   29  C   UNL     1      27.966  47.789  54.490  1.00  0.00     0.000 A 
HETATM   30  C   UNL     1      28.372  46.807  55.387  1.00  0.00     0.001 A 
HETATM   31  C   UNL     1      27.786  45.539  55.349  1.00  0.00     0.009 A 
ENDBRANCH   1  26
TORSDOF 5
ENDMDL
MODEL 4
REMARK VINA RESULT:      -8.0     23.691     25.357
REMARK  5 active torsions:
REMARK  status: ('A' for Active; 'I' for Inactive)
REMARK    1  A    between atoms: C_4  and  C_5 
REMARK    2  A    between atoms: C_10  and  C_11 
REMARK       I    between atoms: C_11  and  N_12 
REMARK    3  A    between atoms: N_12  and  C_13 
REMARK    4  A    between atoms: C_13  and  C_14 
REMARK    5  A    between atoms: C_22  and  C_23 
ROOT
HETATM    1  C   UNL     1      37.484  42.923  63.112  1.00  0.00     0.118 C 
HETATM    2  N   UNL     1      36.762  43.512  64.237  1.00  0.00    -0.365 N 
HETATM    3  C   UNL     1      37.303  44.496  64.994  1.00  0.00     0.141 A 
HETATM    4  N   UNL     1      38.448  45.140  64.614  1.00  0.00    -0.238 N 
HETATM    5  N   UNL     1      38.831  46.120  65.450  1.00  0.00    -0.163 NA
HETATM    6  C   UNL     1      37.918  46.069  66.454  1.00  0.00     0.165 A 
HETATM    7  C   UNL     1      36.945  45.072  66.186  1.00  0.00     0.092 A 
HETATM    8 BR   UNL     1      35.473  44.606  67.246  1.00  0.00    -0.044 Br
HETATM    9  C   UNL     1      39.191  44.845  63.403  1.00  0.00     0.221 C 
HETATM   10  C   UNL     1      38.336  44.010  62.430  1.00  0.00     0.066 C 
HETATM   11  H   UNL     1      35.993  42.950  64.602  1.00  0.00     0.162 HD
ENDROOT
BRANCH   6  12
HETATM   12  C   UNL     1      38.046  46.953  67.624  1.00  0.00     0.273 C 
HETATM   13  N   UNL     1      38.007  48.289  67.290  1.00  0.00    -0.353 N 
HETATM   14  H   UNL     1      37.978  48.494  66.293  1.00  0.00     0.162 HD
HETATM   15  O   UNL     1      38.208  46.555  68.773  1.00  0.00    -0.266 OA
BRANCH  13  16
HETATM   16  C   UNL     1      38.319  49.362  68.211  1.00  0.00     0.155 C 
BRANCH  16  17
HETATM   17  C   UNL     1      39.079  50.525  67.555  1.00  0.00     0.139 C 
HETATM   18  O   UNL     1      38.984  51.694  68.397  1.00  0.00    -0.384 OA
HETATM   19  C   UNL     1      38.438  52.773  67.626  1.00  0.00     0.168 C 
HETATM   20  C   UNL     1      37.748  52.155  66.433  1.00  0.00     0.029 C 
HETATM   21  C   UNL     1      38.586  50.930  66.171  1.00  0.00     0.035 C 
ENDBRANCH  16  17
ENDBRANCH  13  16
ENDBRANCH   6  12
BRANCH   9  22
HETATM   22  C   UNL     1      40.525  44.216  63.747  1.00  0.00     0.409 C 
HETATM   23  F   UNL     1      40.519  43.513  64.894  1.00  0.00    -0.169 F 
HETATM   24  F   UNL     1      40.909  43.368  62.757  1.00  0.00    -0.169 F 
HETATM   25  F   UNL     1      41.506  45.143  63.848  1.00  0.00    -0.169 F 
ENDBRANCH   9  22
BRANCH   1  26
HETATM   26  C   UNL     1      38.232  41.651  63.478  1.00  0.00    -0.035 A 
HETATM   27  C   UNL     1      38.229  41.107  64.773  1.00  0.00     0.009 A 
HETATM   28  C   UNL     1      38.926  39.931  65.064  1.00  0.00     0.001 A 
HETATM   29  C   UNL     1      39.628  39.270  64.062  1.00  0.00     0.000 A 
HETATM   30  C   UNL     1      39.631  39.779  62.768  1.00  0.00     0.001 A 
HETATM   31  C   UNL     1      38.936  40.956  62.477  1.00  0.00     0.009 A 
ENDBRANCH   1  26
TORSDOF 5
ENDMDL
MODEL 5
REMARK VINA RESULT:      -8.0     11.443     14.618
REMARK  5 active torsions:
REMARK  status: ('A' for Active; 'I' for Inactive)
REMARK    1  A    between atoms: C_4  and  C_5 
REMARK    2  A    between atoms: C_10  and  C_11 
REMARK       I    between atoms: C_11  and  N_12 
REMARK    3  A    between atoms: N_12  and  C_13 
REMARK    4  A    between atoms: C_13  and  C_14 
REMARK    5  A    between atoms: C_22  and  C_23 
ROOT
HETATM    1  C   UNL     1      32.529  51.326  42.472  1.00  0.00     0.118 C 
HETATM    2  N   UNL     1      31.442  52.085  41.860  1.00  0.00    -0.365 N 
HETATM    3  C   UNL     1      30.422  51.472  41.213  1.00  0.00     0.141 A 
HETATM    4  N   UNL     1      30.238  50.119  41.293  1.00  0.00    -0.238 N 
HETATM    5  N   UNL     1      29.157  49.671  40.632  1.00  0.00    -0.163 NA
HETATM    6  C   UNL     1      28.647  50.785  40.046  1.00  0.00     0.165 A 
HETATM    7  C   UNL     1      29.411  51.925  40.405  1.00  0.00     0.092 A 
HETATM    8 BR   UNL     1      29.126  53.698  39.873  1.00  0.00    -0.044 Br
HETATM    9  C   UNL     1      31.092  49.218  42.045  1.00  0.00     0.221 C 
HETATM   10  C   UNL     1      31.973  50.004  43.035  1.00  0.00     0.066 C 
HETATM   11  H   UNL     1      31.647  53.068  41.676  1.00  0.00     0.162 HD
ENDROOT
BRANCH   6  12
HETATM   12  C   UNL     1      27.480  50.691  39.154  1.00  0.00     0.273 C 
HETATM   13  N   UNL     1      26.367  50.178  39.783  1.00  0.00    -0.353 N 
HETATM   14  H   UNL     1      26.509  49.860  40.740  1.00  0.00     0.162 HD
HETATM   15  O   UNL     1      27.495  50.998  37.966  1.00  0.00    -0.266 OA
BRANCH  13  16
HETATM   16  C   UNL     1      25.157  49.786  39.093  1.00  0.00     0.155 C 
BRANCH  16  17
HETATM   17  C   UNL     1      25.090  48.281  38.788  1.00  0.00     0.139 C 
HETATM   18  O   UNL     1      25.918  47.565  39.730  1.00  0.00    -0.384 OA
HETATM   19  C   UNL     1      26.868  46.777  39.001  1.00  0.00     0.168 C 
HETATM   20  C   UNL     1      26.947  47.361  37.610  1.00  0.00     0.029 C 
HETATM   21  C   UNL     1      25.548  47.876  37.393  1.00  0.00     0.035 C 
ENDBRANCH  16  17
ENDBRANCH  13  16
ENDBRANCH   6  12
BRANCH   9  22
HETATM   22  C   UNL     1      31.870  48.325  41.102  1.00  0.00     0.409 C 
HETATM   23  F   UNL     1      33.041  47.890  41.603  1.00  0.00    -0.169 F 
HETATM   24  F   UNL     1      31.135  47.227  40.786  1.00  0.00    -0.169 F 
HETATM   25  F   UNL     1      32.141  48.945  39.930  1.00  0.00    -0.169 F 
ENDBRANCH   9  22
BRANCH   1  26
HETATM   26  C   UNL     1      33.746  51.184  41.571  1.00  0.00    -0.035 A 
HETATM   27  C   UNL     1      33.796  51.703  40.266  1.00  0.00     0.009 A 
HETATM   28  C   UNL     1      34.937  51.554  39.474  1.00  0.00     0.001 A 
HETATM   29  C   UNL     1      36.054  50.894  39.975  1.00  0.00     0.000 A 
HETATM   30  C   UNL     1      36.035  50.387  41.270  1.00  0.00     0.001 A 
HETATM   31  C   UNL     1      34.893  50.534  42.062  1.00  0.00     0.009 A 
ENDBRANCH   1  26
TORSDOF 5
ENDMDL
MODEL 6
REMARK VINA RESULT:      -7.9      9.540     13.074
REMARK  5 active torsions:
REMARK  status: ('A' for Active; 'I' for Inactive)
REMARK    1  A    between atoms: C_4  and  C_5 
REMARK    2  A    between atoms: C_10  and  C_11 
REMARK       I    between atoms: C_11  and  N_12 
REMARK    3  A    between atoms: N_12  and  C_13 
REMARK    4  A    between atoms: C_13  and  C_14 
REMARK    5  A    between atoms: C_22  and  C_23 
ROOT
HETATM    1  C   UNL     1      30.690  51.004  39.402  1.00  0.00     0.118 C 
HETATM    2  N   UNL     1      30.013  49.831  38.855  1.00  0.00    -0.365 N 
HETATM    3  C   UNL     1      28.671  49.672  38.954  1.00  0.00     0.141 A 
HETATM    4  N   UNL     1      27.861  50.694  39.367  1.00  0.00    -0.238 N 
HETATM    5  N   UNL     1      26.552  50.390  39.370  1.00  0.00    -0.163 NA
HETATM    6  C   UNL     1      26.517  49.085  38.996  1.00  0.00     0.165 A 
HETATM    7  C   UNL     1      27.827  48.617  38.716  1.00  0.00     0.092 A 
HETATM    8 BR   UNL     1      28.326  46.901  38.157  1.00  0.00    -0.044 Br
HETATM    9  C   UNL     1      28.332  52.014  39.741  1.00  0.00     0.221 C 
HETATM   10  C   UNL     1      29.776  52.235  39.250  1.00  0.00     0.066 C 
HETATM   11  H   UNL     1      30.612  49.023  38.683  1.00  0.00     0.162 HD
ENDROOT
BRANCH   6  12
HETATM   12  C   UNL     1      25.240  48.354  38.956  1.00  0.00     0.273 C 
HETATM   13  N   UNL     1      24.298  48.878  39.813  1.00  0.00    -0.353 N 
HETATM   14  H   UNL     1      24.620  49.635  40.413  1.00  0.00     0.162 HD
HETATM   15  O   UNL     1      25.038  47.360  38.265  1.00  0.00    -0.266 OA
BRANCH  13  16
HETATM   16  C   UNL     1      23.041  48.232  40.125  1.00  0.00     0.155 C 
BRANCH  16  17
HETATM   17  C   UNL     1      21.815  49.014  39.626  1.00  0.00     0.139 C 
HETATM   18  O   UNL     1      22.242  50.292  39.109  1.00  0.00    -0.384 OA
HETATM   19  C   UNL     1      21.526  51.328  39.794  1.00  0.00     0.168 C 
HETATM   20  C   UNL     1      20.995  50.722  41.073  1.00  0.00     0.029 C 
HETATM   21  C   UNL     1      20.746  49.291  40.676  1.00  0.00     0.035 C 
ENDBRANCH  16  17
ENDBRANCH  13  16
ENDBRANCH   6  12
BRANCH   9  22
HETATM   22  C   UNL     1      28.146  52.236  41.227  1.00  0.00     0.409 C 
HETATM   23  F   UNL     1      29.050  53.069  41.773  1.00  0.00    -0.169 F 
HETATM   24  F   UNL     1      26.917  52.760  41.470  1.00  0.00    -0.169 F 
HETATM   25  F   UNL     1      28.202  51.074  41.920  1.00  0.00    -0.169 F 
ENDBRANCH   9  22
BRANCH   1  26
HETATM   26  C   UNL     1      31.246  50.780  40.799  1.00  0.00    -0.035 A 
HETATM   27  C   UNL     1      31.096  49.570  41.497  1.00  0.00     0.009 A 
HETATM   28  C   UNL     1      31.629  49.405  42.778  1.00  0.00     0.001 A 
HETATM   29  C   UNL     1      32.332  50.443  43.381  1.00  0.00     0.000 A 
HETATM   30  C   UNL     1      32.508  51.644  42.703  1.00  0.00     0.001 A 
HETATM   31  C   UNL     1      31.974  51.810  41.422  1.00  0.00     0.009 A 
ENDBRANCH   1  26
TORSDOF 5
ENDMDL
MODEL 7
REMARK VINA RESULT:      -7.8     12.079     14.365
REMARK  5 active torsions:
REMARK  status: ('A' for Active; 'I' for Inactive)
REMARK    1  A    between atoms: C_4  and  C_5 
REMARK    2  A    between atoms: C_10  and  C_11 
REMARK       I    between atoms: C_11  and  N_12 
REMARK    3  A    between atoms: N_12  and  C_13 
REMARK    4  A    between atoms: C_13  and  C_14 
REMARK    5  A    between atoms: C_22  and  C_23 
ROOT
HETATM    1  C   UNL     1      28.391  50.466  41.313  1.00  0.00     0.118 C 
HETATM    2  N   UNL     1      29.809  50.393  41.654  1.00  0.00    -0.365 N 
HETATM    3  C   UNL     1      30.738  51.124  40.993  1.00  0.00     0.141 A 
HETATM    4  N   UNL     1      30.379  52.125  40.133  1.00  0.00    -0.238 N 
HETATM    5  N   UNL     1      31.418  52.783  39.591  1.00  0.00    -0.163 NA
HETATM    6  C   UNL     1      32.507  52.137  40.081  1.00  0.00     0.165 A 
HETATM    7  C   UNL     1      32.110  51.105  40.970  1.00  0.00     0.092 A 
HETATM    8 BR   UNL     1      33.219  49.928  41.914  1.00  0.00    -0.044 Br
HETATM    9  C   UNL     1      29.009  52.497  39.836  1.00  0.00     0.221 C 
HETATM   10  C   UNL     1      28.044  51.903  40.881  1.00  0.00     0.066 C 
HETATM   11  H   UNL     1      30.089  49.564  42.179  1.00  0.00     0.162 HD
ENDROOT
BRANCH   6  12
HETATM   12  C   UNL     1      33.860  52.522  39.648  1.00  0.00     0.273 C 
HETATM   13  N   UNL     1      34.026  53.886  39.567  1.00  0.00    -0.353 N 
HETATM   14  H   UNL     1      33.191  54.443  39.733  1.00  0.00     0.162 HD
HETATM   15  O   UNL     1      34.742  51.721  39.352  1.00  0.00    -0.266 OA
BRANCH  13  16
HETATM   16  C   UNL     1      35.180  54.527  38.972  1.00  0.00     0.155 C 
BRANCH  16  17
HETATM   17  C   UNL     1      35.514  55.888  39.602  1.00  0.00     0.139 C 
HETATM   18  O   UNL     1      34.288  56.599  39.880  1.00  0.00    -0.384 OA
HETATM   19  C   UNL     1      34.339  57.875  39.229  1.00  0.00     0.168 C 
HETATM   20  C   UNL     1      35.394  57.778  38.152  1.00  0.00     0.029 C 
HETATM   21  C   UNL     1      36.380  56.808  38.750  1.00  0.00     0.035 C 
ENDBRANCH  16  17
ENDBRANCH  13  16
ENDBRANCH   6  12
BRANCH   9  22
HETATM   22  C   UNL     1      28.666  52.136  38.406  1.00  0.00     0.409 C 
HETATM   23  F   UNL     1      27.372  51.818  38.217  1.00  0.00    -0.169 F 
HETATM   24  F   UNL     1      28.949  53.178  37.581  1.00  0.00    -0.169 F 
HETATM   25  F   UNL     1      29.404  51.093  37.960  1.00  0.00    -0.169 F 
ENDBRANCH   9  22
BRANCH   1  26
HETATM   26  C   UNL     1      27.947  49.376  40.350  1.00  0.00    -0.035 A 
HETATM   27  C   UNL     1      26.616  49.224  39.927  1.00  0.00     0.009 A 
HETATM   28  C   UNL     1      26.253  48.212  39.035  1.00  0.00     0.001 A 
HETATM   29  C   UNL     1      27.216  47.339  38.539  1.00  0.00     0.000 A 
HETATM   30  C   UNL     1      28.544  47.480  38.930  1.00  0.00     0.001 A 
HETATM   31  C   UNL     1      28.907  48.492  39.823  1.00  0.00     0.009 A 
ENDBRANCH   1  26
TORSDOF 5
ENDMDL
MODEL 8
REMARK VINA RESULT:      -7.8      2.503      3.088
REMARK  5 active torsions:
REMARK  status: ('A' for Active; 'I' for Inactive)
REMARK    1  A    between atoms: C_4  and  C_5 
REMARK    2  A    between atoms: C_10  and  C_11 
REMARK       I    between atoms: C_11  and  N_12 
REMARK    3  A    between atoms: N_12  and  C_13 
REMARK    4  A    between atoms: C_13  and  C_14 
REMARK    5  A    between atoms: C_22  and  C_23 
ROOT
HETATM    1  C   UNL     1      17.819  49.913  48.726  1.00  0.00     0.118 C 
HETATM    2  N   UNL     1      18.185  48.502  48.642  1.00  0.00    -0.365 N 
HETATM    3  C   UNL     1      19.475  48.094  48.721  1.00  0.00     0.141 A 
HETATM    4  N   UNL     1      20.470  48.950  49.105  1.00  0.00    -0.238 N 
HETATM    5  N   UNL     1      21.686  48.382  49.175  1.00  0.00    -0.163 NA
HETATM    6  C   UNL     1      21.477  47.107  48.759  1.00  0.00     0.165 A 
HETATM    7  C   UNL     1      20.101  46.897  48.483  1.00  0.00     0.092 A 
HETATM    8 BR   UNL     1      19.288  45.318  47.890  1.00  0.00    -0.044 Br
HETATM    9  C   UNL     1      20.265  50.344  49.449  1.00  0.00     0.221 C 
HETATM   10  C   UNL     1      18.772  50.628  49.703  1.00  0.00     0.066 C 
HETATM   11  H   UNL     1      17.482  47.894  48.221  1.00  0.00     0.162 HD
ENDROOT
BRANCH   6  12
HETATM   12  C   UNL     1      22.605  46.172  48.622  1.00  0.00     0.273 C 
HETATM   13  N   UNL     1      23.484  46.237  49.680  1.00  0.00    -0.353 N 
HETATM   14  H   UNL     1      23.293  46.962  50.368  1.00  0.00     0.162 HD
HETATM   15  O   UNL     1      22.776  45.436  47.654  1.00  0.00    -0.266 OA
BRANCH  13  16
HETATM   16  C   UNL     1      24.777  45.585  49.699  1.00  0.00     0.155 C 
BRANCH  16  17
HETATM   17  C   UNL     1      24.843  44.391  50.665  1.00  0.00     0.139 C 
HETATM   18  O   UNL     1      24.255  44.766  51.929  1.00  0.00    -0.384 OA
HETATM   19  C   UNL     1      25.213  44.534  52.969  1.00  0.00     0.168 C 
HETATM   20  C   UNL     1      26.569  44.458  52.307  1.00  0.00     0.029 C 
HETATM   21  C   UNL     1      26.242  43.867  50.961  1.00  0.00     0.035 C 
ENDBRANCH  16  17
ENDBRANCH  13  16
ENDBRANCH   6  12
BRANCH   9  22
HETATM   22  C   UNL     1      20.893  51.241  48.403  1.00  0.00     0.409 C 
HETATM   23  F   UNL     1      20.888  50.721  47.162  1.00  0.00    -0.169 F 
HETATM   24  F   UNL     1      20.232  52.426  48.345  1.00  0.00    -0.169 F 
HETATM   25  F   UNL     1      22.178  51.543  48.705  1.00  0.00    -0.169 F 
ENDBRANCH   9  22
BRANCH   1  26
HETATM   26  C   UNL     1      17.669  50.577  47.366  1.00  0.00    -0.035 A 
HETATM   27  C   UNL     1      17.243  51.906  47.207  1.00  0.00     0.009 A 
HETATM   28  C   UNL     1      17.125  52.479  45.938  1.00  0.00     0.001 A 
HETATM   29  C   UNL     1      17.441  51.737  44.805  1.00  0.00     0.000 A 
HETATM   30  C   UNL     1      17.881  50.425  44.938  1.00  0.00     0.001 A 
HETATM   31  C   UNL     1      17.999  49.851  46.207  1.00  0.00     0.009 A 
ENDBRANCH   1  26
TORSDOF 5
ENDMDL
MODEL 9
REMARK VINA RESULT:      -7.8     10.550     13.844
REMARK  5 active torsions:
REMARK  status: ('A' for Active; 'I' for Inactive)
REMARK    1  A    between atoms: C_4  and  C_5 
REMARK    2  A    between atoms: C_10  and  C_11 
REMARK       I    between atoms: C_11  and  N_12 
REMARK    3  A    between atoms: N_12  and  C_13 
REMARK    4  A    between atoms: C_13  and  C_14 
REMARK    5  A    between atoms: C_22  and  C_23 
ROOT
HETATM    1  C   UNL     1      32.187  50.335  39.336  1.00  0.00     0.118 C 
HETATM    2  N   UNL     1      31.269  49.259  38.976  1.00  0.00    -0.365 N 
HETATM    3  C   UNL     1      29.969  49.501  38.678  1.00  0.00     0.141 A 
HETATM    4  N   UNL     1      29.508  50.773  38.482  1.00  0.00    -0.238 N 
HETATM    5  N   UNL     1      28.208  50.841  38.151  1.00  0.00    -0.163 NA
HETATM    6  C   UNL     1      27.791  49.549  38.193  1.00  0.00     0.165 A 
HETATM    7  C   UNL     1      28.876  48.691  38.506  1.00  0.00     0.092 A 
HETATM    8 BR   UNL     1      28.838  46.826  38.677  1.00  0.00    -0.044 Br
HETATM    9  C   UNL     1      30.328  51.966  38.576  1.00  0.00     0.221 C 
HETATM   10  C   UNL     1      31.825  51.602  38.537  1.00  0.00     0.066 C 
HETATM   11  H   UNL     1      31.564  48.323  39.256  1.00  0.00     0.162 HD
ENDROOT
BRANCH   6  12
HETATM   12  C   UNL     1      26.376  49.214  37.962  1.00  0.00     0.273 C 
HETATM   13  N   UNL     1      25.574  49.510  39.041  1.00  0.00    -0.353 N 
HETATM   14  H   UNL     1      26.059  49.839  39.874  1.00  0.00     0.162 HD
HETATM   15  O   UNL     1      25.952  48.691  36.936  1.00  0.00    -0.266 OA
BRANCH  13  16
HETATM   16  C   UNL     1      24.193  49.091  39.161  1.00  0.00     0.155 C 
BRANCH  16  17
HETATM   17  C   UNL     1      24.002  47.884  40.093  1.00  0.00     0.139 C 
HETATM   18  O   UNL     1      25.163  47.744  40.939  1.00  0.00    -0.384 OA
HETATM   19  C   UNL     1      25.692  46.421  40.777  1.00  0.00     0.168 C 
HETATM   20  C   UNL     1      25.144  45.885  39.476  1.00  0.00     0.029 C 
HETATM   21  C   UNL     1      23.793  46.546  39.394  1.00  0.00     0.035 C 
ENDBRANCH  16  17
ENDBRANCH  13  16
ENDBRANCH   6  12
BRANCH   9  22
HETATM   22  C   UNL     1      29.925  52.785  39.784  1.00  0.00     0.409 C 
HETATM   23  F   UNL     1      29.443  52.054  40.805  1.00  0.00    -0.169 F 
HETATM   24  F   UNL     1      30.994  53.479  40.255  1.00  0.00    -0.169 F 
HETATM   25  F   UNL     1      28.986  53.709  39.474  1.00  0.00    -0.169 F 
ENDBRANCH   9  22
BRANCH   1  26
HETATM   26  C   UNL     1      32.320  50.534  40.838  1.00  0.00    -0.035 A 
HETATM   27  C   UNL     1      31.576  49.800  41.776  1.00  0.00     0.009 A 
HETATM   28  C   UNL     1      31.735  50.011  43.148  1.00  0.00     0.001 A 
HETATM   29  C   UNL     1      32.649  50.953  43.608  1.00  0.00     0.000 A 
HETATM   30  C   UNL     1      33.409  51.680  42.699  1.00  0.00     0.001 A 
HETATM   31  C   UNL     1      33.250  51.470  41.327  1.00  0.00     0.009 A 
ENDBRANCH   1  26
TORSDOF 5
ENDMDL
MODEL 10
REMARK VINA RESULT:      -7.7      3.954      8.686
REMARK  5 active torsions:
REMARK  status: ('A' for Active; 'I' for Inactive)
REMARK    1  A    between atoms: C_4  and  C_5 
REMARK    2  A    between atoms: C_10  and  C_11 
REMARK       I    between atoms: C_11  and  N_12 
REMARK    3  A    between atoms: N_12  and  C_13 
REMARK    4  A    between atoms: C_13  and  C_14 
REMARK    5  A    between atoms: C_22  and  C_23 
ROOT
HETATM    1  C   UNL     1      26.028  44.085  50.310  1.00  0.00     0.118 C 
HETATM    2  N   UNL     1      24.689  44.146  49.732  1.00  0.00    -0.365 N 
HETATM    3  C   UNL     1      24.104  45.326  49.412  1.00  0.00     0.141 A 
HETATM    4  N   UNL     1      24.815  46.494  49.403  1.00  0.00    -0.238 N 
HETATM    5  N   UNL     1      24.102  47.568  49.022  1.00  0.00    -0.163 NA
HETATM    6  C   UNL     1      22.850  47.079  48.831  1.00  0.00     0.165 A 
HETATM    7  C   UNL     1      22.828  45.678  49.054  1.00  0.00     0.092 A 
HETATM    8 BR   UNL     1      21.356  44.528  48.916  1.00  0.00    -0.044 Br
HETATM    9  C   UNL     1      26.224  46.599  49.733  1.00  0.00     0.221 C 
HETATM   10  C   UNL     1      26.893  45.211  49.711  1.00  0.00     0.066 C 
HETATM   11  H   UNL     1      24.116  43.313  49.870  1.00  0.00     0.162 HD
ENDROOT
BRANCH   6  12
HETATM   12  C   UNL     1      21.743  47.982  48.476  1.00  0.00     0.273 C 
HETATM   13  N   UNL     1      20.974  48.336  49.562  1.00  0.00    -0.353 N 
HETATM   14  H   UNL     1      21.211  47.877  50.439  1.00  0.00     0.162 HD
HETATM   15  O   UNL     1      21.498  48.355  47.332  1.00  0.00    -0.266 OA
BRANCH  13  16
HETATM   16  C   UNL     1      19.711  49.037  49.464  1.00  0.00     0.155 C 
BRANCH  16  17
HETATM   17  C   UNL     1      19.767  50.472  50.014  1.00  0.00     0.139 C 
HETATM   18  O   UNL     1      18.430  50.911  50.339  1.00  0.00    -0.384 OA
HETATM   19  C   UNL     1      18.164  52.130  49.634  1.00  0.00     0.168 C 
HETATM   20  C   UNL     1      19.156  52.207  48.498  1.00  0.00     0.029 C 
HETATM   21  C   UNL     1      20.362  51.510  49.072  1.00  0.00     0.035 C 
ENDBRANCH  16  17
ENDBRANCH  13  16
ENDBRANCH   6  12
BRANCH   9  22
HETATM   22  C   UNL     1      26.403  47.349  51.037  1.00  0.00     0.409 C 
HETATM   23  F   UNL     1      27.228  46.741  51.908  1.00  0.00    -0.169 F 
HETATM   24  F   UNL     1      26.910  48.586  50.798  1.00  0.00    -0.169 F 
HETATM   25  F   UNL     1      25.222  47.543  51.671  1.00  0.00    -0.169 F 
ENDBRANCH   9  22
BRANCH   1  26
HETATM   26  C   UNL     1      26.025  44.011  51.829  1.00  0.00    -0.035 A 
HETATM   27  C   UNL     1      24.942  44.441  52.613  1.00  0.00     0.009 A 
HETATM   28  C   UNL     1      24.978  44.348  54.007  1.00  0.00     0.001 A 
HETATM   29  C   UNL     1      26.094  43.814  54.642  1.00  0.00     0.000 A 
HETATM   30  C   UNL     1      27.172  43.366  53.886  1.00  0.00     0.001 A 
HETATM   31  C   UNL     1      27.136  43.459  52.492  1.00  0.00     0.009 A 
ENDBRANCH   1  26
TORSDOF 5
ENDMDL
