MODEL 1
REMARK VINA RESULT:      -8.6      0.000      0.000
REMARK  7 active torsions:
REMARK  status: ('A' for Active; 'I' for Inactive)
REMARK    1  A    between atoms: C_3  and  N_4 
REMARK       I    between atoms: N_4  and  C_5 
REMARK    2  A    between atoms: C_5  and  C_6 
REMARK    3  A    between atoms: C_7  and  C_8 
REMARK    4  A    between atoms: C_19  and  C_20 
REMARK    5  A    between atoms: C_20  and  C_21 
REMARK    6  A    between atoms: C_21  and  C_22 
REMARK    7  A    between atoms: C_22  and  O_23 
ROOT
HETATM    1  C   UNL     1      26.813  42.414  52.347  1.00  0.00     0.062 C 
HETATM    2  C   UNL     1      25.608  43.080  51.670  1.00  0.00     0.202 C 
HETATM    3  N   UNL     1      25.110  42.260  50.559  1.00  0.00    -0.083 N 
HETATM    4  C   UNL     1      25.805  41.214  50.015  1.00  0.00     0.726 A 
HETATM    5  N   UNL     1      26.955  40.818  50.588  1.00  0.00    -0.192 N 
HETATM    6  N   UNL     1      23.978  42.509  49.868  1.00  0.00    -0.140 NA
HETATM    7  C   UNL     1      24.097  41.626  48.866  1.00  0.00     0.166 A 
HETATM    8  N   UNL     1      25.188  40.789  48.943  1.00  0.00    -0.046 NA
HETATM    9  C   UNL     1      27.460  41.374  51.758  1.00  0.00     0.037 C 
HETATM   10  C   UNL     1      28.757  40.771  52.242  1.00  0.00     0.070 C 
HETATM   11  H   UNL     1      27.465  40.048  50.165  1.00  0.00     0.184 HD
ENDROOT
BRANCH   1  12
HETATM   12  C   UNL     1      27.201  43.016  53.661  1.00  0.00     0.256 C 
HETATM   13  N   UNL     1      28.501  43.464  53.711  1.00  0.00    -0.323 N 
HETATM   14  H   UNL     1      29.128  43.076  53.018  1.00  0.00     0.169 HD
HETATM   15  O   UNL     1      26.435  42.949  54.613  1.00  0.00    -0.267 OA
BRANCH  13  16
HETATM   16  C   UNL     1      29.113  44.279  54.693  1.00  0.00     0.041 A 
HETATM   17  C   UNL     1      28.710  45.574  55.071  1.00  0.00    -0.035 A 
HETATM   18  C   UNL     1      27.571  46.341  54.458  1.00  0.00     0.050 C 
HETATM   19  C   UNL     1      29.440  46.244  56.076  1.00  0.00     0.009 A 
HETATM   20  C   UNL     1      30.575  45.681  56.652  1.00  0.00     0.001 A 
HETATM   21  C   UNL     1      31.004  44.429  56.237  1.00  0.00     0.002 A 
HETATM   22  C   UNL     1      30.282  43.739  55.263  1.00  0.00     0.030 A 
ENDBRANCH  13  16
ENDBRANCH   1  12
BRANCH   2  23
HETATM   23  C   UNL     1      25.906  44.487  51.142  1.00  0.00    -0.028 A 
HETATM   24  C   UNL     1      26.863  44.710  50.135  1.00  0.00     0.011 A 
HETATM   25  C   UNL     1      27.111  46.001  49.661  1.00  0.00     0.024 A 
HETATM   26  C   UNL     1      26.410  47.081  50.192  1.00  0.00     0.034 A 
HETATM   27 CL   UNL     1      26.719  48.670  49.611  1.00  0.00    -0.084 Cl
HETATM   28  C   UNL     1      25.457  46.881  51.188  1.00  0.00     0.024 A 
HETATM   29  C   UNL     1      25.204  45.591  51.660  1.00  0.00     0.011 A 
ENDBRANCH   2  23
BRANCH   7  30
HETATM   30  C   UNL     1      23.191  41.616  47.692  1.00  0.00     0.085 C 
BRANCH  30  31
HETATM   31  C   UNL     1      23.107  42.978  47.000  1.00  0.00     0.034 C 
BRANCH  31  32
HETATM   32  C   UNL     1      21.748  43.651  47.162  1.00  0.00     0.164 C 
BRANCH  32  33
HETATM   33  O   UNL     1      21.531  43.978  48.531  1.00  0.00    -0.401 OA
HETATM   34  H   UNL     1      21.779  44.909  48.654  1.00  0.00     0.209 HD
ENDBRANCH  32  33
ENDBRANCH  31  32
ENDBRANCH  30  31
ENDBRANCH   7  30
TORSDOF 7
ENDMDL
MODEL 2
REMARK VINA RESULT:      -8.5      1.545      2.256
REMARK  7 active torsions:
REMARK  status: ('A' for Active; 'I' for Inactive)
REMARK    1  A    between atoms: C_3  and  N_4 
REMARK       I    between atoms: N_4  and  C_5 
REMARK    2  A    between atoms: C_5  and  C_6 
REMARK    3  A    between atoms: C_7  and  C_8 
REMARK    4  A    between atoms: C_19  and  C_20 
REMARK    5  A    between atoms: C_20  and  C_21 
REMARK    6  A    between atoms: C_21  and  C_22 
REMARK    7  A    between atoms: C_22  and  O_23 
ROOT
HETATM    1  C   UNL     1      25.147  43.622  51.341  1.00  0.00     0.062 C 
HETATM    2  C   UNL     1      24.318  44.724  50.669  1.00  0.00     0.202 C 
HETATM    3  N   UNL     1      23.604  44.202  49.497  1.00  0.00    -0.083 N 
HETATM    4  C   UNL     1      23.880  42.996  48.913  1.00  0.00     0.726 A 
HETATM    5  N   UNL     1      24.767  42.170  49.495  1.00  0.00    -0.192 N 
HETATM    6  N   UNL     1      22.685  44.892  48.789  1.00  0.00    -0.140 NA
HETATM    7  C   UNL     1      22.514  44.074  47.740  1.00  0.00     0.166 A 
HETATM    8  N   UNL     1      23.204  42.884  47.799  1.00  0.00    -0.046 NA
HETATM    9  C   UNL     1      25.384  42.442  50.710  1.00  0.00     0.037 C 
HETATM   10  C   UNL     1      26.332  41.372  51.197  1.00  0.00     0.070 C 
HETATM   11  H   UNL     1      24.969  41.283  49.043  1.00  0.00     0.184 HD
ENDROOT
BRANCH   1  12
HETATM   12  C   UNL     1      25.667  43.974  52.700  1.00  0.00     0.256 C 
HETATM   13  N   UNL     1      27.025  44.192  52.742  1.00  0.00    -0.323 N 
HETATM   14  H   UNL     1      27.559  43.801  51.976  1.00  0.00     0.169 HD
HETATM   15  O   UNL     1      24.927  43.909  53.672  1.00  0.00    -0.267 OA
BRANCH  13  16
HETATM   16  C   UNL     1      27.792  44.759  53.787  1.00  0.00     0.041 A 
HETATM   17  C   UNL     1      27.651  46.057  54.315  1.00  0.00    -0.035 A 
HETATM   18  C   UNL     1      26.678  47.093  53.823  1.00  0.00     0.050 C 
HETATM   19  C   UNL     1      28.506  46.458  55.364  1.00  0.00     0.009 A 
HETATM   20  C   UNL     1      29.516  45.626  55.841  1.00  0.00     0.001 A 
HETATM   21  C   UNL     1      29.690  44.370  55.280  1.00  0.00     0.002 A 
HETATM   22  C   UNL     1      28.838  43.945  54.260  1.00  0.00     0.030 A 
ENDBRANCH  13  16
ENDBRANCH   1  12
BRANCH   2  23
HETATM   23  C   UNL     1      25.149  45.935  50.235  1.00  0.00    -0.028 A 
HETATM   24  C   UNL     1      26.470  45.795  49.771  1.00  0.00     0.011 A 
HETATM   25  C   UNL     1      27.207  46.912  49.370  1.00  0.00     0.024 A 
HETATM   26  C   UNL     1      26.634  48.180  49.435  1.00  0.00     0.034 A 
HETATM   27 CL   UNL     1      27.543  49.556  48.946  1.00  0.00    -0.084 Cl
HETATM   28  C   UNL     1      25.327  48.340  49.891  1.00  0.00     0.024 A 
HETATM   29  C   UNL     1      24.587  47.223  50.287  1.00  0.00     0.011 A 
ENDBRANCH   2  23
BRANCH   7  30
HETATM   30  C   UNL     1      21.730  44.460  46.541  1.00  0.00     0.085 C 
BRANCH  30  31
HETATM   31  C   UNL     1      20.247  44.105  46.667  1.00  0.00     0.034 C 
BRANCH  31  32
HETATM   32  C   UNL     1      19.427  45.192  47.354  1.00  0.00     0.164 C 
BRANCH  32  33
HETATM   33  O   UNL     1      18.875  44.688  48.566  1.00  0.00    -0.401 OA
HETATM   34  H   UNL     1      19.376  45.077  49.303  1.00  0.00     0.209 HD
ENDBRANCH  32  33
ENDBRANCH  31  32
ENDBRANCH  30  31
ENDBRANCH   7  30
TORSDOF 7
ENDMDL
MODEL 3
REMARK VINA RESULT:      -8.4      3.165      6.241
REMARK  7 active torsions:
REMARK  status: ('A' for Active; 'I' for Inactive)
REMARK    1  A    between atoms: C_3  and  N_4 
REMARK       I    between atoms: N_4  and  C_5 
REMARK    2  A    between atoms: C_5  and  C_6 
REMARK    3  A    between atoms: C_7  and  C_8 
REMARK    4  A    between atoms: C_19  and  C_20 
REMARK    5  A    between atoms: C_20  and  C_21 
REMARK    6  A    between atoms: C_21  and  C_22 
REMARK    7  A    between atoms: C_22  and  O_23 
ROOT
HETATM    1  C   UNL     1      26.065  43.926  50.838  1.00  0.00     0.062 C 
HETATM    2  C   UNL     1      27.369  43.120  50.763  1.00  0.00     0.202 C 
HETATM    3  N   UNL     1      27.106  41.732  50.364  1.00  0.00    -0.083 N 
HETATM    4  C   UNL     1      25.862  41.164  50.361  1.00  0.00     0.726 A 
HETATM    5  N   UNL     1      24.787  41.931  50.617  1.00  0.00    -0.192 N 
HETATM    6  N   UNL     1      28.062  40.824  50.073  1.00  0.00    -0.140 NA
HETATM    7  C   UNL     1      27.325  39.706  49.989  1.00  0.00     0.166 A 
HETATM    8  N   UNL     1      25.967  39.882  50.124  1.00  0.00    -0.046 NA
HETATM    9  C   UNL     1      24.857  43.303  50.827  1.00  0.00     0.037 C 
HETATM   10  C   UNL     1      23.530  43.977  51.080  1.00  0.00     0.070 C 
HETATM   11  H   UNL     1      23.871  41.491  50.623  1.00  0.00     0.184 HD
ENDROOT
BRANCH   1  12
HETATM   12  C   UNL     1      26.253  45.407  50.943  1.00  0.00     0.256 C 
HETATM   13  N   UNL     1      26.482  46.031  49.739  1.00  0.00    -0.323 N 
HETATM   14  H   UNL     1      26.807  45.435  48.988  1.00  0.00     0.169 HD
HETATM   15  O   UNL     1      26.335  45.934  52.044  1.00  0.00    -0.267 OA
BRANCH  13  16
HETATM   16  C   UNL     1      26.467  47.416  49.449  1.00  0.00     0.041 A 
HETATM   17  C   UNL     1      25.323  48.222  49.287  1.00  0.00    -0.035 A 
HETATM   18  C   UNL     1      23.902  47.734  49.351  1.00  0.00     0.050 C 
HETATM   19  C   UNL     1      25.497  49.593  49.002  1.00  0.00     0.009 A 
HETATM   20  C   UNL     1      26.761  50.147  48.819  1.00  0.00     0.001 A 
HETATM   21  C   UNL     1      27.884  49.339  48.923  1.00  0.00     0.002 A 
HETATM   22  C   UNL     1      27.735  47.986  49.230  1.00  0.00     0.030 A 
ENDBRANCH  13  16
ENDBRANCH   1  12
BRANCH   2  23
HETATM   23  C   UNL     1      28.156  43.110  52.077  1.00  0.00    -0.028 A 
HETATM   24  C   UNL     1      29.558  43.231  52.098  1.00  0.00     0.011 A 
HETATM   25  C   UNL     1      30.255  43.229  53.309  1.00  0.00     0.024 A 
HETATM   26  C   UNL     1      29.560  43.101  54.509  1.00  0.00     0.034 A 
HETATM   27 CL   UNL     1      30.420  43.094  55.999  1.00  0.00    -0.084 Cl
HETATM   28  C   UNL     1      28.172  42.982  54.510  1.00  0.00     0.024 A 
HETATM   29  C   UNL     1      27.473  42.988  53.301  1.00  0.00     0.011 A 
ENDBRANCH   2  23
BRANCH   7  30
HETATM   30  C   UNL     1      27.927  38.355  49.873  1.00  0.00     0.085 C 
BRANCH  30  31
HETATM   31  C   UNL     1      29.369  38.306  50.379  1.00  0.00     0.034 C 
BRANCH  31  32
HETATM   32  C   UNL     1      30.390  38.110  49.263  1.00  0.00     0.164 C 
BRANCH  32  33
HETATM   33  O   UNL     1      31.692  38.448  49.732  1.00  0.00    -0.401 OA
HETATM   34  H   UNL     1      32.264  37.674  49.596  1.00  0.00     0.209 HD
ENDBRANCH  32  33
ENDBRANCH  31  32
ENDBRANCH  30  31
ENDBRANCH   7  30
TORSDOF 7
ENDMDL
MODEL 4
REMARK VINA RESULT:      -8.3      3.884      8.202
REMARK  7 active torsions:
REMARK  status: ('A' for Active; 'I' for Inactive)
REMARK    1  A    between atoms: C_3  and  N_4 
REMARK       I    between atoms: N_4  and  C_5 
REMARK    2  A    between atoms: C_5  and  C_6 
REMARK    3  A    between atoms: C_7  and  C_8 
REMARK    4  A    between atoms: C_19  and  C_20 
REMARK    5  A    between atoms: C_20  and  C_21 
REMARK    6  A    between atoms: C_21  and  C_22 
REMARK    7  A    between atoms: C_22  and  O_23 
ROOT
HETATM    1  C   UNL     1      24.334  46.625  50.060  1.00  0.00     0.062 C 
HETATM    2  C   UNL     1      24.061  45.347  50.863  1.00  0.00     0.202 C 
HETATM    3  N   UNL     1      25.004  45.217  51.981  1.00  0.00    -0.083 N 
HETATM    4  C   UNL     1      26.146  45.961  52.101  1.00  0.00     0.726 A 
HETATM    5  N   UNL     1      26.381  46.955  51.227  1.00  0.00    -0.192 N 
HETATM    6  N   UNL     1      24.925  44.278  52.946  1.00  0.00    -0.140 NA
HETATM    7  C   UNL     1      26.101  44.458  53.566  1.00  0.00     0.166 A 
HETATM    8  N   UNL     1      26.861  45.506  53.098  1.00  0.00    -0.046 NA
HETATM    9  C   UNL     1      25.488  47.324  50.228  1.00  0.00     0.037 C 
HETATM   10  C   UNL     1      25.937  48.479  49.366  1.00  0.00     0.070 C 
HETATM   11  H   UNL     1      27.239  47.490  51.323  1.00  0.00     0.184 HD
ENDROOT
BRANCH   1  12
HETATM   12  C   UNL     1      23.252  46.998  49.095  1.00  0.00     0.256 C 
HETATM   13  N   UNL     1      22.426  48.004  49.538  1.00  0.00    -0.323 N 
HETATM   14  H   UNL     1      22.421  48.163  50.537  1.00  0.00     0.169 HD
HETATM   15  O   UNL     1      23.078  46.327  48.086  1.00  0.00    -0.267 OA
BRANCH  13  16
HETATM   16  C   UNL     1      21.472  48.747  48.802  1.00  0.00     0.041 A 
HETATM   17  C   UNL     1      21.690  49.981  48.160  1.00  0.00    -0.035 A 
HETATM   18  C   UNL     1      22.980  50.755  48.184  1.00  0.00     0.050 C 
HETATM   19  C   UNL     1      20.619  50.582  47.466  1.00  0.00     0.009 A 
HETATM   20  C   UNL     1      19.348  50.015  47.453  1.00  0.00     0.001 A 
HETATM   21  C   UNL     1      19.121  48.828  48.134  1.00  0.00     0.002 A 
HETATM   22  C   UNL     1      20.173  48.205  48.805  1.00  0.00     0.030 A 
ENDBRANCH  13  16
ENDBRANCH   1  12
BRANCH   2  23
HETATM   23  C   UNL     1      24.125  44.071  50.020  1.00  0.00    -0.028 A 
HETATM   24  C   UNL     1      25.321  43.649  49.410  1.00  0.00     0.011 A 
HETATM   25  C   UNL     1      25.359  42.475  48.652  1.00  0.00     0.024 A 
HETATM   26  C   UNL     1      24.203  41.715  48.493  1.00  0.00     0.034 A 
HETATM   27 CL   UNL     1      24.250  40.273  47.557  1.00  0.00    -0.084 Cl
HETATM   28  C   UNL     1      23.009  42.114  49.090  1.00  0.00     0.024 A 
HETATM   29  C   UNL     1      22.970  43.285  49.851  1.00  0.00     0.011 A 
ENDBRANCH   2  23
BRANCH   7  30
HETATM   30  C   UNL     1      26.610  43.533  54.608  1.00  0.00     0.085 C 
BRANCH  30  31
HETATM   31  C   UNL     1      27.937  42.879  54.218  1.00  0.00     0.034 C 
BRANCH  31  32
HETATM   32  C   UNL     1      27.815  41.945  53.018  1.00  0.00     0.164 C 
BRANCH  32  33
HETATM   33  O   UNL     1      27.457  40.638  53.457  1.00  0.00    -0.401 OA
HETATM   34  H   UNL     1      26.505  40.643  53.652  1.00  0.00     0.209 HD
ENDBRANCH  32  33
ENDBRANCH  31  32
ENDBRANCH  30  31
ENDBRANCH   7  30
TORSDOF 7
ENDMDL
MODEL 5
REMARK VINA RESULT:      -7.9     17.647     19.259
REMARK  7 active torsions:
REMARK  status: ('A' for Active; 'I' for Inactive)
REMARK    1  A    between atoms: C_3  and  N_4 
REMARK       I    between atoms: N_4  and  C_5 
REMARK    2  A    between atoms: C_5  and  C_6 
REMARK    3  A    between atoms: C_7  and  C_8 
REMARK    4  A    between atoms: C_19  and  C_20 
REMARK    5  A    between atoms: C_20  and  C_21 
REMARK    6  A    between atoms: C_21  and  C_22 
REMARK    7  A    between atoms: C_22  and  O_23 
ROOT
HETATM    1  C   UNL     1      37.706  44.334  64.643  1.00  0.00     0.062 C 
HETATM    2  C   UNL     1      38.871  43.742  63.839  1.00  0.00     0.202 C 
HETATM    3  N   UNL     1      38.777  42.278  63.780  1.00  0.00    -0.083 N 
HETATM    4  C   UNL     1      37.952  41.536  64.579  1.00  0.00     0.726 A 
HETATM    5  N   UNL     1      37.080  42.163  65.388  1.00  0.00    -0.192 N 
HETATM    6  N   UNL     1      39.572  41.488  63.026  1.00  0.00    -0.140 NA
HETATM    7  C   UNL     1      39.228  40.277  63.488  1.00  0.00     0.166 A 
HETATM    8  N   UNL     1      38.212  40.265  64.416  1.00  0.00    -0.046 NA
HETATM    9  C   UNL     1      36.917  43.543  65.417  1.00  0.00     0.037 C 
HETATM   10  C   UNL     1      35.871  44.041  66.385  1.00  0.00     0.070 C 
HETATM   11  H   UNL     1      36.482  41.598  65.984  1.00  0.00     0.184 HD
ENDROOT
BRANCH   1  12
HETATM   12  C   UNL     1      37.547  45.816  64.510  1.00  0.00     0.256 C 
HETATM   13  N   UNL     1      38.064  46.533  65.564  1.00  0.00    -0.323 N 
HETATM   14  H   UNL     1      38.201  46.017  66.424  1.00  0.00     0.169 HD
HETATM   15  O   UNL     1      36.873  46.278  63.598  1.00  0.00    -0.267 OA
BRANCH  13  16
HETATM   16  C   UNL     1      38.291  47.927  65.651  1.00  0.00     0.041 A 
HETATM   17  C   UNL     1      39.457  48.609  65.252  1.00  0.00    -0.035 A 
HETATM   18  C   UNL     1      40.695  47.959  64.697  1.00  0.00     0.050 C 
HETATM   19  C   UNL     1      39.510  50.010  65.411  1.00  0.00     0.009 A 
HETATM   20  C   UNL     1      38.467  50.718  66.005  1.00  0.00     0.001 A 
HETATM   21  C   UNL     1      37.344  50.036  66.450  1.00  0.00     0.002 A 
HETATM   22  C   UNL     1      37.261  48.654  66.278  1.00  0.00     0.030 A 
ENDBRANCH  13  16
ENDBRANCH   1  12
BRANCH   2  23
HETATM   23  C   UNL     1      40.248  44.121  64.390  1.00  0.00    -0.028 A 
HETATM   24  C   UNL     1      40.551  44.010  65.760  1.00  0.00     0.011 A 
HETATM   25  C   UNL     1      41.817  44.352  66.241  1.00  0.00     0.024 A 
HETATM   26  C   UNL     1      42.791  44.813  65.359  1.00  0.00     0.034 A 
HETATM   27 CL   UNL     1      44.349  45.238  65.952  1.00  0.00    -0.084 Cl
HETATM   28  C   UNL     1      42.513  44.929  63.999  1.00  0.00     0.024 A 
HETATM   29  C   UNL     1      41.248  44.584  63.516  1.00  0.00     0.011 A 
ENDBRANCH   2  23
BRANCH   7  30
HETATM   30  C   UNL     1      39.960  39.040  63.119  1.00  0.00     0.085 C 
BRANCH  30  31
HETATM   31  C   UNL     1      40.674  38.400  64.312  1.00  0.00     0.034 C 
BRANCH  31  32
HETATM   32  C   UNL     1      41.800  39.264  64.871  1.00  0.00     0.164 C 
BRANCH  32  33
HETATM   33  O   UNL     1      43.060  38.728  64.481  1.00  0.00    -0.401 OA
HETATM   34  H   UNL     1      43.699  39.460  64.464  1.00  0.00     0.209 HD
ENDBRANCH  32  33
ENDBRANCH  31  32
ENDBRANCH  30  31
ENDBRANCH   7  30
TORSDOF 7
ENDMDL
MODEL 6
REMARK VINA RESULT:      -7.7      4.762      8.812
REMARK  7 active torsions:
REMARK  status: ('A' for Active; 'I' for Inactive)
REMARK    1  A    between atoms: C_3  and  N_4 
REMARK       I    between atoms: N_4  and  C_5 
REMARK    2  A    between atoms: C_5  and  C_6 
REMARK    3  A    between atoms: C_7  and  C_8 
REMARK    4  A    between atoms: C_19  and  C_20 
REMARK    5  A    between atoms: C_20  and  C_21 
REMARK    6  A    between atoms: C_21  and  C_22 
REMARK    7  A    between atoms: C_22  and  O_23 
ROOT
HETATM    1  C   UNL     1      23.523  47.954  49.183  1.00  0.00     0.062 C 
HETATM    2  C   UNL     1      23.245  46.575  49.794  1.00  0.00     0.202 C 
HETATM    3  N   UNL     1      24.421  46.074  50.517  1.00  0.00    -0.083 N 
HETATM    4  C   UNL     1      25.672  46.614  50.400  1.00  0.00     0.726 A 
HETATM    5  N   UNL     1      25.839  47.741  49.685  1.00  0.00    -0.192 N 
HETATM    6  N   UNL     1      24.436  44.959  51.278  1.00  0.00    -0.140 NA
HETATM    7  C   UNL     1      25.750  44.840  51.518  1.00  0.00     0.166 A 
HETATM    8  N   UNL     1      26.536  45.857  51.025  1.00  0.00    -0.046 NA
HETATM    9  C   UNL     1      24.790  48.439  49.099  1.00  0.00     0.037 C 
HETATM   10  C   UNL     1      25.194  49.690  48.355  1.00  0.00     0.070 C 
HETATM   11  H   UNL     1      26.777  48.123  49.598  1.00  0.00     0.184 HD
ENDROOT
BRANCH   1  12
HETATM   12  C   UNL     1      22.308  48.673  48.688  1.00  0.00     0.256 C 
HETATM   13  N   UNL     1      21.534  49.220  49.685  1.00  0.00    -0.323 N 
HETATM   14  H   UNL     1      21.669  48.834  50.610  1.00  0.00     0.169 HD
HETATM   15  O   UNL     1      22.004  48.614  47.504  1.00  0.00    -0.267 OA
BRANCH  13  16
HETATM   16  C   UNL     1      20.470  50.145  49.564  1.00  0.00     0.041 A 
HETATM   17  C   UNL     1      19.193  50.029  50.147  1.00  0.00    -0.035 A 
HETATM   18  C   UNL     1      18.719  48.864  50.972  1.00  0.00     0.050 C 
HETATM   19  C   UNL     1      18.250  51.054  49.922  1.00  0.00     0.009 A 
HETATM   20  C   UNL     1      18.533  52.138  49.095  1.00  0.00     0.001 A 
HETATM   21  C   UNL     1      19.772  52.221  48.476  1.00  0.00     0.002 A 
HETATM   22  C   UNL     1      20.727  51.231  48.706  1.00  0.00     0.030 A 
ENDBRANCH  13  16
ENDBRANCH   1  12
BRANCH   2  23
HETATM   23  C   UNL     1      22.821  45.524  48.764  1.00  0.00    -0.028 A 
HETATM   24  C   UNL     1      21.466  45.276  48.478  1.00  0.00     0.011 A 
HETATM   25  C   UNL     1      21.102  44.320  47.526  1.00  0.00     0.024 A 
HETATM   26  C   UNL     1      22.087  43.600  46.855  1.00  0.00     0.034 A 
HETATM   27 CL   UNL     1      21.638  42.420  45.687  1.00  0.00    -0.084 Cl
HETATM   28  C   UNL     1      23.434  43.832  47.122  1.00  0.00     0.024 A 
HETATM   29  C   UNL     1      23.801  44.791  48.070  1.00  0.00     0.011 A 
ENDBRANCH   2  23
BRANCH   7  30
HETATM   30  C   UNL     1      26.342  43.644  52.168  1.00  0.00     0.085 C 
BRANCH  30  31
HETATM   31  C   UNL     1      27.501  43.995  53.103  1.00  0.00     0.034 C 
BRANCH  31  32
HETATM   32  C   UNL     1      27.095  44.029  54.573  1.00  0.00     0.164 C 
BRANCH  32  33
HETATM   33  O   UNL     1      25.878  43.312  54.756  1.00  0.00    -0.401 OA
HETATM   34  H   UNL     1      26.107  42.386  54.941  1.00  0.00     0.209 HD
ENDBRANCH  32  33
ENDBRANCH  31  32
ENDBRANCH  30  31
ENDBRANCH   7  30
TORSDOF 7
ENDMDL
MODEL 7
REMARK VINA RESULT:      -7.5      3.229      7.900
REMARK  7 active torsions:
REMARK  status: ('A' for Active; 'I' for Inactive)
REMARK    1  A    between atoms: C_3  and  N_4 
REMARK       I    between atoms: N_4  and  C_5 
REMARK    2  A    between atoms: C_5  and  C_6 
REMARK    3  A    between atoms: C_7  and  C_8 
REMARK    4  A    between atoms: C_19  and  C_20 
REMARK    5  A    between atoms: C_20  and  C_21 
REMARK    6  A    between atoms: C_21  and  C_22 
REMARK    7  A    between atoms: C_22  and  O_23 
ROOT
HETATM    1  C   UNL     1      27.205  41.474  50.089  1.00  0.00     0.062 C 
HETATM    2  C   UNL     1      27.825  42.804  50.535  1.00  0.00     0.202 C 
HETATM    3  N   UNL     1      28.323  42.716  51.913  1.00  0.00    -0.083 N 
HETATM    4  C   UNL     1      28.004  41.702  52.773  1.00  0.00     0.726 A 
HETATM    5  N   UNL     1      27.296  40.652  52.320  1.00  0.00    -0.192 N 
HETATM    6  N   UNL     1      29.046  43.675  52.530  1.00  0.00    -0.140 NA
HETATM    7  C   UNL     1      29.053  43.210  53.788  1.00  0.00     0.166 A 
HETATM    8  N   UNL     1      28.455  41.983  53.968  1.00  0.00    -0.046 NA
HETATM    9  C   UNL     1      26.914  40.501  50.993  1.00  0.00     0.037 C 
HETATM   10  C   UNL     1      26.140  39.240  50.692  1.00  0.00     0.070 C 
HETATM   11  H   UNL     1      27.057  39.913  52.975  1.00  0.00     0.184 HD
ENDROOT
BRANCH   1  12
HETATM   12  C   UNL     1      26.943  41.370  48.620  1.00  0.00     0.256 C 
HETATM   13  N   UNL     1      27.927  40.711  47.919  1.00  0.00    -0.323 N 
HETATM   14  H   UNL     1      28.828  40.651  48.375  1.00  0.00     0.169 HD
HETATM   15  O   UNL     1      25.997  41.968  48.125  1.00  0.00    -0.267 OA
BRANCH  13  16
HETATM   16  C   UNL     1      27.890  40.238  46.586  1.00  0.00     0.041 A 
HETATM   17  C   UNL     1      27.516  38.945  46.170  1.00  0.00    -0.035 A 
HETATM   18  C   UNL     1      27.130  37.817  47.087  1.00  0.00     0.050 C 
HETATM   19  C   UNL     1      27.536  38.645  44.791  1.00  0.00     0.009 A 
HETATM   20  C   UNL     1      27.970  39.573  43.849  1.00  0.00     0.001 A 
HETATM   21  C   UNL     1      28.392  40.827  44.266  1.00  0.00     0.002 A 
HETATM   22  C   UNL     1      28.356  41.151  45.622  1.00  0.00     0.030 A 
ENDBRANCH  13  16
ENDBRANCH   1  12
BRANCH   2  23
HETATM   23  C   UNL     1      26.860  43.990  50.439  1.00  0.00    -0.028 A 
HETATM   24  C   UNL     1      25.568  43.936  50.994  1.00  0.00     0.011 A 
HETATM   25  C   UNL     1      24.707  45.033  50.904  1.00  0.00     0.024 A 
HETATM   26  C   UNL     1      25.127  46.192  50.256  1.00  0.00     0.034 A 
HETATM   27 CL   UNL     1      24.065  47.540  50.141  1.00  0.00    -0.084 Cl
HETATM   28  C   UNL     1      26.403  46.266  49.701  1.00  0.00     0.024 A 
HETATM   29  C   UNL     1      27.267  45.172  49.794  1.00  0.00     0.011 A 
ENDBRANCH   2  23
BRANCH   7  30
HETATM   30  C   UNL     1      29.565  44.001  54.934  1.00  0.00     0.085 C 
BRANCH  30  31
HETATM   31  C   UNL     1      30.735  43.319  55.646  1.00  0.00     0.034 C 
BRANCH  31  32
HETATM   32  C   UNL     1      31.193  44.064  56.896  1.00  0.00     0.164 C 
BRANCH  32  33
HETATM   33  O   UNL     1      32.155  43.285  57.599  1.00  0.00    -0.401 OA
HETATM   34  H   UNL     1      32.034  43.453  58.548  1.00  0.00     0.209 HD
ENDBRANCH  32  33
ENDBRANCH  31  32
ENDBRANCH  30  31
ENDBRANCH   7  30
TORSDOF 7
ENDMDL
MODEL 8
REMARK VINA RESULT:      -7.4     10.787     14.587
REMARK  7 active torsions:
REMARK  status: ('A' for Active; 'I' for Inactive)
REMARK    1  A    between atoms: C_3  and  N_4 
REMARK       I    between atoms: N_4  and  C_5 
REMARK    2  A    between atoms: C_5  and  C_6 
REMARK    3  A    between atoms: C_7  and  C_8 
REMARK    4  A    between atoms: C_19  and  C_20 
REMARK    5  A    between atoms: C_20  and  C_21 
REMARK    6  A    between atoms: C_21  and  C_22 
REMARK    7  A    between atoms: C_22  and  O_23 
ROOT
HETATM    1  C   UNL     1      15.716  51.260  47.038  1.00  0.00     0.062 C 
HETATM    2  C   UNL     1      15.960  51.287  48.552  1.00  0.00     0.202 C 
HETATM    3  N   UNL     1      15.354  52.478  49.160  1.00  0.00    -0.083 N 
HETATM    4  C   UNL     1      14.908  53.554  48.444  1.00  0.00     0.726 A 
HETATM    5  N   UNL     1      14.902  53.495  47.100  1.00  0.00    -0.192 N 
HETATM    6  N   UNL     1      15.277  52.705  50.488  1.00  0.00    -0.140 NA
HETATM    7  C   UNL     1      14.852  53.977  50.499  1.00  0.00     0.166 A 
HETATM    8  N   UNL     1      14.580  54.519  49.263  1.00  0.00    -0.046 NA
HETATM    9  C   UNL     1      15.267  52.363  46.382  1.00  0.00     0.037 C 
HETATM   10  C   UNL     1      15.170  52.502  44.881  1.00  0.00     0.070 C 
HETATM   11  H   UNL     1      14.578  54.307  46.583  1.00  0.00     0.184 HD
ENDROOT
BRANCH   1  12
HETATM   12  C   UNL     1      16.031  49.954  46.378  1.00  0.00     0.256 C 
HETATM   13  N   UNL     1      17.209  49.952  45.668  1.00  0.00    -0.323 N 
HETATM   14  H   UNL     1      17.565  50.861  45.403  1.00  0.00     0.169 HD
HETATM   15  O   UNL     1      15.201  49.054  46.381  1.00  0.00    -0.267 OA
BRANCH  13  16
HETATM   16  C   UNL     1      17.911  48.847  45.133  1.00  0.00     0.041 A 
HETATM   17  C   UNL     1      18.758  47.973  45.842  1.00  0.00    -0.035 A 
HETATM   18  C   UNL     1      19.101  48.092  47.301  1.00  0.00     0.050 C 
HETATM   19  C   UNL     1      19.378  46.916  45.143  1.00  0.00     0.009 A 
HETATM   20  C   UNL     1      19.220  46.757  43.769  1.00  0.00     0.001 A 
HETATM   21  C   UNL     1      18.432  47.653  43.062  1.00  0.00     0.002 A 
HETATM   22  C   UNL     1      17.789  48.689  43.739  1.00  0.00     0.030 A 
ENDBRANCH  13  16
ENDBRANCH   1  12
BRANCH   2  23
HETATM   23  C   UNL     1      17.444  51.247  48.931  1.00  0.00    -0.028 A 
HETATM   24  C   UNL     1      18.385  52.096  48.320  1.00  0.00     0.011 A 
HETATM   25  C   UNL     1      19.732  52.049  48.688  1.00  0.00     0.024 A 
HETATM   26  C   UNL     1      20.152  51.151  49.667  1.00  0.00     0.034 A 
HETATM   27 CL   UNL     1      21.812  51.091  50.116  1.00  0.00    -0.084 Cl
HETATM   28  C   UNL     1      19.236  50.303  50.285  1.00  0.00     0.024 A 
HETATM   29  C   UNL     1      17.888  50.351  49.921  1.00  0.00     0.011 A 
ENDBRANCH   2  23
BRANCH   7  30
HETATM   30  C   UNL     1      14.783  54.791  51.737  1.00  0.00     0.085 C 
BRANCH  30  31
HETATM   31  C   UNL     1      13.616  55.780  51.728  1.00  0.00     0.034 C 
BRANCH  31  32
HETATM   32  C   UNL     1      13.201  56.230  53.126  1.00  0.00     0.164 C 
BRANCH  32  33
HETATM   33  O   UNL     1      13.097  55.100  53.986  1.00  0.00    -0.401 OA
HETATM   34  H   UNL     1      13.991  54.739  54.108  1.00  0.00     0.209 HD
ENDBRANCH  32  33
ENDBRANCH  31  32
ENDBRANCH  30  31
ENDBRANCH   7  30
TORSDOF 7
ENDMDL
MODEL 9
REMARK VINA RESULT:      -7.4     10.031     14.031
REMARK  7 active torsions:
REMARK  status: ('A' for Active; 'I' for Inactive)
REMARK    1  A    between atoms: C_3  and  N_4 
REMARK       I    between atoms: N_4  and  C_5 
REMARK    2  A    between atoms: C_5  and  C_6 
REMARK    3  A    between atoms: C_7  and  C_8 
REMARK    4  A    between atoms: C_19  and  C_20 
REMARK    5  A    between atoms: C_20  and  C_21 
REMARK    6  A    between atoms: C_21  and  C_22 
REMARK    7  A    between atoms: C_22  and  O_23 
ROOT
HETATM    1  C   UNL     1      15.662  50.481  47.506  1.00  0.00     0.062 C 
HETATM    2  C   UNL     1      16.004  50.992  48.911  1.00  0.00     0.202 C 
HETATM    3  N   UNL     1      15.485  52.350  49.117  1.00  0.00    -0.083 N 
HETATM    4  C   UNL     1      15.036  53.154  48.106  1.00  0.00     0.726 A 
HETATM    5  N   UNL     1      14.942  52.655  46.860  1.00  0.00    -0.192 N 
HETATM    6  N   UNL     1      15.501  53.007  50.296  1.00  0.00    -0.140 NA
HETATM    7  C   UNL     1      15.127  54.233  49.903  1.00  0.00     0.166 A 
HETATM    8  N   UNL     1      14.799  54.353  48.572  1.00  0.00    -0.046 NA
HETATM    9  C   UNL     1      15.216  51.330  46.542  1.00  0.00     0.037 C 
HETATM   10  C   UNL     1      15.029  50.972  45.087  1.00  0.00     0.070 C 
HETATM   11  H   UNL     1      14.618  53.269  46.118  1.00  0.00     0.184 HD
ENDROOT
BRANCH   1  12
HETATM   12  C   UNL     1      15.883  49.015  47.305  1.00  0.00     0.256 C 
HETATM   13  N   UNL     1      17.145  48.692  46.865  1.00  0.00    -0.323 N 
HETATM   14  H   UNL     1      17.668  49.444  46.434  1.00  0.00     0.169 HD
HETATM   15  O   UNL     1      14.941  48.239  47.393  1.00  0.00    -0.267 OA
BRANCH  13  16
HETATM   16  C   UNL     1      17.754  47.416  46.800  1.00  0.00     0.041 A 
HETATM   17  C   UNL     1      17.734  46.537  45.700  1.00  0.00    -0.035 A 
HETATM   18  C   UNL     1      17.015  46.787  44.403  1.00  0.00     0.050 C 
HETATM   19  C   UNL     1      18.401  45.298  45.811  1.00  0.00     0.009 A 
HETATM   20  C   UNL     1      19.020  44.906  46.994  1.00  0.00     0.001 A 
HETATM   21  C   UNL     1      18.990  45.749  48.095  1.00  0.00     0.002 A 
HETATM   22  C   UNL     1      18.358  46.989  47.998  1.00  0.00     0.030 A 
ENDBRANCH  13  16
ENDBRANCH   1  12
BRANCH   2  23
HETATM   23  C   UNL     1      17.505  50.993  49.212  1.00  0.00    -0.028 A 
HETATM   24  C   UNL     1      18.072  50.098  50.139  1.00  0.00     0.011 A 
HETATM   25  C   UNL     1      19.447  50.109  50.391  1.00  0.00     0.024 A 
HETATM   26  C   UNL     1      20.266  51.016  49.724  1.00  0.00     0.034 A 
HETATM   27 CL   UNL     1      21.958  51.032  50.038  1.00  0.00    -0.084 Cl
HETATM   28  C   UNL     1      19.725  51.909  48.801  1.00  0.00     0.024 A 
HETATM   29  C   UNL     1      18.352  51.896  48.545  1.00  0.00     0.011 A 
ENDBRANCH   2  23
BRANCH   7  30
HETATM   30  C   UNL     1      15.170  55.413  50.802  1.00  0.00     0.085 C 
BRANCH  30  31
HETATM   31  C   UNL     1      14.843  55.059  52.254  1.00  0.00     0.034 C 
BRANCH  31  32
HETATM   32  C   UNL     1      13.676  55.864  52.819  1.00  0.00     0.164 C 
BRANCH  32  33
HETATM   33  O   UNL     1      13.088  55.163  53.910  1.00  0.00    -0.401 OA
HETATM   34  H   UNL     1      12.134  55.344  53.897  1.00  0.00     0.209 HD
ENDBRANCH  32  33
ENDBRANCH  31  32
ENDBRANCH  30  31
ENDBRANCH   7  30
TORSDOF 7
ENDMDL
MODEL 10
REMARK VINA RESULT:      -7.3     12.205     13.033
REMARK  7 active torsions:
REMARK  status: ('A' for Active; 'I' for Inactive)
REMARK    1  A    between atoms: C_3  and  N_4 
REMARK       I    between atoms: N_4  and  C_5 
REMARK    2  A    between atoms: C_5  and  C_6 
REMARK    3  A    between atoms: C_7  and  C_8 
REMARK    4  A    between atoms: C_19  and  C_20 
REMARK    5  A    between atoms: C_20  and  C_21 
REMARK    6  A    between atoms: C_21  and  C_22 
REMARK    7  A    between atoms: C_22  and  O_23 
ROOT
HETATM    1  C   UNL     1      29.777  48.486  41.010  1.00  0.00     0.062 C 
HETATM    2  C   UNL     1      28.469  49.288  41.029  1.00  0.00     0.202 C 
HETATM    3  N   UNL     1      27.451  48.652  40.185  1.00  0.00    -0.083 N 
HETATM    4  C   UNL     1      27.724  47.666  39.276  1.00  0.00     0.726 A 
HETATM    5  N   UNL     1      28.964  47.149  39.218  1.00  0.00    -0.192 N 
HETATM    6  N   UNL     1      26.160  49.041  40.114  1.00  0.00    -0.140 NA
HETATM    7  C   UNL     1      25.734  48.303  39.079  1.00  0.00     0.166 A 
HETATM    8  N   UNL     1      26.656  47.421  38.562  1.00  0.00    -0.046 NA
HETATM    9  C   UNL     1      29.988  47.515  40.083  1.00  0.00     0.037 C 
HETATM   10  C   UNL     1      31.299  46.798  39.858  1.00  0.00     0.070 C 
HETATM   11  H   UNL     1      29.153  46.426  38.530  1.00  0.00     0.184 HD
ENDROOT
BRANCH   1  12
HETATM   12  C   UNL     1      30.767  48.882  42.061  1.00  0.00     0.256 C 
HETATM   13  N   UNL     1      31.673  49.831  41.649  1.00  0.00    -0.323 N 
HETATM   14  H   UNL     1      31.787  49.928  40.648  1.00  0.00     0.169 HD
HETATM   15  O   UNL     1      30.809  48.270  43.120  1.00  0.00    -0.267 OA
BRANCH  13  16
HETATM   16  C   UNL     1      32.574  50.586  42.437  1.00  0.00     0.041 A 
HETATM   17  C   UNL     1      33.964  50.699  42.237  1.00  0.00    -0.035 A 
HETATM   18  C   UNL     1      34.746  49.992  41.165  1.00  0.00     0.050 C 
HETATM   19  C   UNL     1      34.712  51.502  43.124  1.00  0.00     0.009 A 
HETATM   20  C   UNL     1      34.121  52.129  44.217  1.00  0.00     0.001 A 
HETATM   21  C   UNL     1      32.762  51.970  44.445  1.00  0.00     0.002 A 
HETATM   22  C   UNL     1      32.000  51.201  43.565  1.00  0.00     0.030 A 
ENDBRANCH  13  16
ENDBRANCH   1  12
BRANCH   2  23
HETATM   23  C   UNL     1      28.638  50.742  40.579  1.00  0.00    -0.028 A 
HETATM   24  C   UNL     1      29.023  51.067  39.265  1.00  0.00     0.011 A 
HETATM   25  C   UNL     1      29.162  52.401  38.872  1.00  0.00     0.024 A 
HETATM   26  C   UNL     1      28.922  53.421  39.789  1.00  0.00     0.034 A 
HETATM   27 CL   UNL     1      29.097  55.063  39.306  1.00  0.00    -0.084 Cl
HETATM   28  C   UNL     1      28.539  53.121  41.094  1.00  0.00     0.024 A 
HETATM   29  C   UNL     1      28.396  51.788  41.488  1.00  0.00     0.011 A 
ENDBRANCH   2  23
BRANCH   7  30
HETATM   30  C   UNL     1      24.403  48.494  38.451  1.00  0.00     0.085 C 
BRANCH  30  31
HETATM   31  C   UNL     1      23.425  49.243  39.357  1.00  0.00     0.034 C 
BRANCH  31  32
HETATM   32  C   UNL     1      22.651  50.338  38.630  1.00  0.00     0.164 C 
BRANCH  32  33
HETATM   33  O   UNL     1      22.487  51.465  39.484  1.00  0.00    -0.401 OA
HETATM   34  H   UNL     1      23.220  51.460  40.122  1.00  0.00     0.209 HD
ENDBRANCH  32  33
ENDBRANCH  31  32
ENDBRANCH  30  31
ENDBRANCH   7  30
TORSDOF 7
ENDMDL
