MODEL 1
REMARK VINA RESULT:      -8.7      0.000      0.000
REMARK  3 active torsions:
REMARK  status: ('A' for Active; 'I' for Inactive)
REMARK    1  A    between atoms: N_2  and  C_5 
REMARK    2  A    between atoms: C_5  and  C_6 
REMARK       I    between atoms: C_6  and  N_7 
REMARK    3  A    between atoms: N_7  and  C_8 
ROOT
HETATM    1  C   UNL     1      26.498  43.715  52.475  1.00  0.00     0.036 A 
HETATM    2  C   UNL     1      27.723  43.516  53.117  1.00  0.00     0.059 A 
HETATM    3  C   UNL     1      28.312  44.507  53.928  1.00  0.00     0.041 A 
HETATM    4  C   UNL     1      27.646  45.725  54.085  1.00  0.00    -0.031 A 
HETATM    5  C   UNL     1      28.220  46.814  54.949  1.00  0.00     0.045 C 
HETATM    6  C   UNL     1      28.309  46.369  56.404  1.00  0.00     0.045 C 
HETATM    7  C   UNL     1      29.500  45.499  56.727  1.00  0.00    -0.031 A 
HETATM    8  C   UNL     1      30.026  44.525  55.864  1.00  0.00     0.039 A 
HETATM    9  N   UNL     1      29.492  44.165  54.611  1.00  0.00    -0.355 N 
HETATM   10  C   UNL     1      30.077  45.671  58.004  1.00  0.00     0.009 A 
HETATM   11  C   UNL     1      31.183  44.929  58.412  1.00  0.00     0.001 A 
HETATM   12  C   UNL     1      31.736  43.999  57.546  1.00  0.00     0.002 A 
HETATM   13  C   UNL     1      31.163  43.803  56.291  1.00  0.00     0.030 A 
HETATM   14  C   UNL     1      26.432  45.944  53.412  1.00  0.00     0.012 A 
HETATM   15  C   UNL     1      25.861  44.948  52.620  1.00  0.00     0.030 A 
HETATM   16  H   UNL     1      30.001  43.409  54.168  1.00  0.00     0.166 HD
ENDROOT
BRANCH   1  17
HETATM   17  N   UNL     1      25.828  42.718  51.729  1.00  0.00    -0.326 N 
HETATM   18  C   UNL     1      26.229  42.189  50.522  1.00  0.00     0.247 C 
HETATM   19  O   UNL     1      27.139  42.582  49.792  1.00  0.00    -0.271 OA
HETATM   20  H   UNL     1      24.972  42.378  52.155  1.00  0.00     0.169 HD
BRANCH  18  21
HETATM   21  C   UNL     1      25.452  40.949  50.080  1.00  0.00     0.334 C 
BRANCH  21  22
HETATM   22  N   UNL     1      26.130  39.696  50.593  1.00  0.00    -0.071 N 
HETATM   23  C   UNL     1      26.956  38.975  49.588  1.00  0.00     0.267 C 
HETATM   24  H   UNL     1      25.363  39.057  50.870  1.00  0.00     0.277 HD
HETATM   25  H   UNL     1      26.678  39.893  51.438  1.00  0.00     0.277 HD
ENDBRANCH  21  22
ENDBRANCH  18  21
ENDBRANCH   1  17
TORSDOF 3
ENDMDL
MODEL 2
REMARK VINA RESULT:      -8.4      3.024      4.566
REMARK  3 active torsions:
REMARK  status: ('A' for Active; 'I' for Inactive)
REMARK    1  A    between atoms: N_2  and  C_5 
REMARK    2  A    between atoms: C_5  and  C_6 
REMARK       I    between atoms: C_6  and  N_7 
REMARK    3  A    between atoms: N_7  and  C_8 
ROOT
HETATM    1  C   UNL     1      25.472  46.096  51.786  1.00  0.00     0.036 A 
HETATM    2  C   UNL     1      26.211  46.277  52.958  1.00  0.00     0.059 A 
HETATM    3  C   UNL     1      26.835  45.201  53.622  1.00  0.00     0.041 A 
HETATM    4  C   UNL     1      26.700  43.917  53.087  1.00  0.00    -0.031 A 
HETATM    5  C   UNL     1      27.354  42.734  53.745  1.00  0.00     0.045 C 
HETATM    6  C   UNL     1      28.872  42.870  53.733  1.00  0.00     0.045 C 
HETATM    7  C   UNL     1      29.434  43.766  54.810  1.00  0.00    -0.031 A 
HETATM    8  C   UNL     1      28.821  44.947  55.257  1.00  0.00     0.039 A 
HETATM    9  N   UNL     1      27.639  45.507  54.732  1.00  0.00    -0.355 N 
HETATM   10  C   UNL     1      30.680  43.389  55.357  1.00  0.00     0.009 A 
HETATM   11  C   UNL     1      31.294  44.134  56.360  1.00  0.00     0.001 A 
HETATM   12  C   UNL     1      30.671  45.275  56.839  1.00  0.00     0.002 A 
HETATM   13  C   UNL     1      29.452  45.672  56.293  1.00  0.00     0.030 A 
HETATM   14  C   UNL     1      25.928  43.725  51.929  1.00  0.00     0.012 A 
HETATM   15  C   UNL     1      25.325  44.804  51.282  1.00  0.00     0.030 A 
HETATM   16  H   UNL     1      27.391  46.386  55.172  1.00  0.00     0.166 HD
ENDROOT
BRANCH   1  17
HETATM   17  N   UNL     1      24.910  47.157  51.038  1.00  0.00    -0.326 N 
HETATM   18  C   UNL     1      25.464  47.762  49.931  1.00  0.00     0.247 C 
HETATM   19  O   UNL     1      26.600  47.616  49.480  1.00  0.00    -0.271 OA
HETATM   20  H   UNL     1      24.008  47.477  51.375  1.00  0.00     0.169 HD
BRANCH  18  21
HETATM   21  C   UNL     1      24.518  48.698  49.176  1.00  0.00     0.334 C 
BRANCH  21  22
HETATM   22  N   UNL     1      23.084  48.431  49.584  1.00  0.00    -0.071 N 
HETATM   23  C   UNL     1      22.310  47.589  48.634  1.00  0.00     0.267 C 
HETATM   24  H   UNL     1      22.625  49.359  49.611  1.00  0.00     0.277 HD
HETATM   25  H   UNL     1      23.036  48.044  50.533  1.00  0.00     0.277 HD
ENDBRANCH  21  22
ENDBRANCH  18  21
ENDBRANCH   1  17
TORSDOF 3
ENDMDL
MODEL 3
REMARK VINA RESULT:      -8.3      1.260      1.540
REMARK  3 active torsions:
REMARK  status: ('A' for Active; 'I' for Inactive)
REMARK    1  A    between atoms: N_2  and  C_5 
REMARK    2  A    between atoms: C_5  and  C_6 
REMARK       I    between atoms: C_6  and  N_7 
REMARK    3  A    between atoms: N_7  and  C_8 
ROOT
HETATM    1  C   UNL     1      26.165  44.128  52.603  1.00  0.00     0.036 A 
HETATM    2  C   UNL     1      27.415  43.817  53.143  1.00  0.00     0.059 A 
HETATM    3  C   UNL     1      28.120  44.719  53.966  1.00  0.00     0.041 A 
HETATM    4  C   UNL     1      27.545  45.963  54.239  1.00  0.00    -0.031 A 
HETATM    5  C   UNL     1      28.245  46.961  55.121  1.00  0.00     0.045 C 
HETATM    6  C   UNL     1      28.403  46.423  56.538  1.00  0.00     0.045 C 
HETATM    7  C   UNL     1      29.555  45.465  56.725  1.00  0.00    -0.031 A 
HETATM    8  C   UNL     1      29.959  44.516  55.772  1.00  0.00     0.039 A 
HETATM    9  N   UNL     1      29.319  44.266  54.542  1.00  0.00    -0.355 N 
HETATM   10  C   UNL     1      30.228  45.523  57.965  1.00  0.00     0.009 A 
HETATM   11  C   UNL     1      31.309  44.693  58.250  1.00  0.00     0.001 A 
HETATM   12  C   UNL     1      31.742  43.787  57.296  1.00  0.00     0.002 A 
HETATM   13  C   UNL     1      31.074  43.702  56.075  1.00  0.00     0.030 A 
HETATM   14  C   UNL     1      26.305  46.295  53.668  1.00  0.00     0.012 A 
HETATM   15  C   UNL     1      25.619  45.385  52.863  1.00  0.00     0.030 A 
HETATM   16  H   UNL     1      29.749  43.510  54.021  1.00  0.00     0.166 HD
ENDROOT
BRANCH   1  17
HETATM   17  N   UNL     1      25.384  43.220  51.851  1.00  0.00    -0.326 N 
HETATM   18  C   UNL     1      25.436  43.027  50.488  1.00  0.00     0.247 C 
HETATM   19  O   UNL     1      26.041  43.702  49.654  1.00  0.00    -0.271 OA
HETATM   20  H   UNL     1      24.732  42.670  52.401  1.00  0.00     0.169 HD
BRANCH  18  21
HETATM   21  C   UNL     1      24.667  41.804  49.987  1.00  0.00     0.334 C 
BRANCH  21  22
HETATM   22  N   UNL     1      24.326  41.966  48.521  1.00  0.00    -0.071 N 
HETATM   23  C   UNL     1      22.935  42.418  48.249  1.00  0.00     0.267 C 
HETATM   24  H   UNL     1      24.424  41.021  48.106  1.00  0.00     0.277 HD
HETATM   25  H   UNL     1      25.003  42.574  48.048  1.00  0.00     0.277 HD
ENDBRANCH  21  22
ENDBRANCH  18  21
ENDBRANCH   1  17
TORSDOF 3
ENDMDL
MODEL 4
REMARK VINA RESULT:      -8.1      2.982      4.586
REMARK  3 active torsions:
REMARK  status: ('A' for Active; 'I' for Inactive)
REMARK    1  A    between atoms: N_2  and  C_5 
REMARK    2  A    between atoms: C_5  and  C_6 
REMARK       I    between atoms: C_6  and  N_7 
REMARK    3  A    between atoms: N_7  and  C_8 
ROOT
HETATM    1  C   UNL     1      26.248  45.095  51.016  1.00  0.00     0.036 A 
HETATM    2  C   UNL     1      26.718  45.453  52.282  1.00  0.00     0.059 A 
HETATM    3  C   UNL     1      27.327  44.519  53.146  1.00  0.00     0.041 A 
HETATM    4  C   UNL     1      27.454  43.195  52.716  1.00  0.00    -0.031 A 
HETATM    5  C   UNL     1      28.106  42.159  53.589  1.00  0.00     0.045 C 
HETATM    6  C   UNL     1      29.570  42.500  53.843  1.00  0.00     0.045 C 
HETATM    7  C   UNL     1      29.801  43.534  54.918  1.00  0.00    -0.031 A 
HETATM    8  C   UNL     1      28.974  44.649  55.135  1.00  0.00     0.039 A 
HETATM    9  N   UNL     1      27.858  45.006  54.352  1.00  0.00    -0.355 N 
HETATM   10  C   UNL     1      30.953  43.368  55.717  1.00  0.00     0.009 A 
HETATM   11  C   UNL     1      31.266  44.256  56.742  1.00  0.00     0.001 A 
HETATM   12  C   UNL     1      30.429  45.330  56.992  1.00  0.00     0.002 A 
HETATM   13  C   UNL     1      29.299  45.521  56.198  1.00  0.00     0.030 A 
HETATM   14  C   UNL     1      26.950  42.823  51.458  1.00  0.00     0.012 A 
HETATM   15  C   UNL     1      26.359  43.764  50.615  1.00  0.00     0.030 A 
HETATM   16  H   UNL     1      27.424  45.870  54.656  1.00  0.00     0.166 HD
ENDROOT
BRANCH   1  17
HETATM   17  N   UNL     1      25.718  46.016  50.083  1.00  0.00    -0.326 N 
HETATM   18  C   UNL     1      25.199  47.261  50.366  1.00  0.00     0.247 C 
HETATM   19  O   UNL     1      24.951  47.741  51.472  1.00  0.00    -0.271 OA
HETATM   20  H   UNL     1      25.739  45.698  49.120  1.00  0.00     0.169 HD
BRANCH  18  21
HETATM   21  C   UNL     1      24.940  48.137  49.139  1.00  0.00     0.334 C 
BRANCH  21  22
HETATM   22  N   UNL     1      25.948  49.265  49.081  1.00  0.00    -0.071 N 
HETATM   23  C   UNL     1      27.367  48.830  48.967  1.00  0.00     0.267 C 
HETATM   24  H   UNL     1      25.856  49.767  49.983  1.00  0.00     0.277 HD
HETATM   25  H   UNL     1      25.714  49.933  48.339  1.00  0.00     0.277 HD
ENDBRANCH  21  22
ENDBRANCH  18  21
ENDBRANCH   1  17
TORSDOF 3
ENDMDL
MODEL 5
REMARK VINA RESULT:      -7.9      2.664      4.364
REMARK  3 active torsions:
REMARK  status: ('A' for Active; 'I' for Inactive)
REMARK    1  A    between atoms: N_2  and  C_5 
REMARK    2  A    between atoms: C_5  and  C_6 
REMARK       I    between atoms: C_6  and  N_7 
REMARK    3  A    between atoms: N_7  and  C_8 
ROOT
HETATM    1  C   UNL     1      25.624  43.271  50.548  1.00  0.00     0.036 A 
HETATM    2  C   UNL     1      26.025  43.891  51.734  1.00  0.00     0.059 A 
HETATM    3  C   UNL     1      26.899  43.266  52.647  1.00  0.00     0.041 A 
HETATM    4  C   UNL     1      27.369  41.984  52.351  1.00  0.00    -0.031 A 
HETATM    5  C   UNL     1      28.313  41.273  53.281  1.00  0.00     0.045 C 
HETATM    6  C   UNL     1      29.635  42.023  53.396  1.00  0.00     0.045 C 
HETATM    7  C   UNL     1      29.613  43.203  54.337  1.00  0.00    -0.031 A 
HETATM    8  C   UNL     1      28.520  44.071  54.492  1.00  0.00     0.039 A 
HETATM    9  N   UNL     1      27.321  44.019  53.756  1.00  0.00    -0.355 N 
HETATM   10  C   UNL     1      30.796  43.449  55.068  1.00  0.00     0.009 A 
HETATM   11  C   UNL     1      30.891  44.505  55.970  1.00  0.00     0.001 A 
HETATM   12  C   UNL     1      29.801  45.337  56.163  1.00  0.00     0.002 A 
HETATM   13  C   UNL     1      28.634  45.120  55.433  1.00  0.00     0.030 A 
HETATM   14  C   UNL     1      26.940  41.341  51.177  1.00  0.00     0.012 A 
HETATM   15  C   UNL     1      26.081  41.980  50.283  1.00  0.00     0.030 A 
HETATM   16  H   UNL     1      26.678  44.765  53.996  1.00  0.00     0.166 HD
ENDROOT
BRANCH   1  17
HETATM   17  N   UNL     1      24.826  43.896  49.563  1.00  0.00    -0.326 N 
HETATM   18  C   UNL     1      23.480  44.176  49.655  1.00  0.00     0.247 C 
HETATM   19  O   UNL     1      22.690  43.803  50.523  1.00  0.00    -0.271 OA
HETATM   20  H   UNL     1      25.326  44.154  48.718  1.00  0.00     0.169 HD
BRANCH  18  21
HETATM   21  C   UNL     1      22.941  45.086  48.550  1.00  0.00     0.334 C 
BRANCH  21  22
HETATM   22  N   UNL     1      22.579  46.442  49.121  1.00  0.00    -0.071 N 
HETATM   23  C   UNL     1      23.739  47.291  49.501  1.00  0.00     0.267 C 
HETATM   24  H   UNL     1      22.049  46.245  49.990  1.00  0.00     0.277 HD
HETATM   25  H   UNL     1      21.948  46.951  48.492  1.00  0.00     0.277 HD
ENDBRANCH  21  22
ENDBRANCH  18  21
ENDBRANCH   1  17
TORSDOF 3
ENDMDL
MODEL 6
REMARK VINA RESULT:      -7.8      2.088      3.567
REMARK  3 active torsions:
REMARK  status: ('A' for Active; 'I' for Inactive)
REMARK    1  A    between atoms: N_2  and  C_5 
REMARK    2  A    between atoms: C_5  and  C_6 
REMARK       I    between atoms: C_6  and  N_7 
REMARK    3  A    between atoms: N_7  and  C_8 
ROOT
HETATM    1  C   UNL     1      26.651  40.434  50.680  1.00  0.00     0.036 A 
HETATM    2  C   UNL     1      27.764  40.834  51.423  1.00  0.00     0.059 A 
HETATM    3  C   UNL     1      27.953  42.172  51.826  1.00  0.00     0.041 A 
HETATM    4  C   UNL     1      26.995  43.122  51.461  1.00  0.00    -0.031 A 
HETATM    5  C   UNL     1      27.138  44.561  51.873  1.00  0.00     0.045 C 
HETATM    6  C   UNL     1      27.090  44.703  53.390  1.00  0.00     0.045 C 
HETATM    7  C   UNL     1      28.387  44.383  54.095  1.00  0.00    -0.031 A 
HETATM    8  C   UNL     1      29.268  43.362  53.707  1.00  0.00     0.039 A 
HETATM    9  N   UNL     1      29.051  42.447  52.658  1.00  0.00    -0.355 N 
HETATM   10  C   UNL     1      28.687  45.152  55.241  1.00  0.00     0.009 A 
HETATM   11  C   UNL     1      29.856  44.951  55.970  1.00  0.00     0.001 A 
HETATM   12  C   UNL     1      30.753  43.977  55.564  1.00  0.00     0.002 A 
HETATM   13  C   UNL     1      30.460  43.195  54.448  1.00  0.00     0.030 A 
HETATM   14  C   UNL     1      25.893  42.732  50.682  1.00  0.00     0.012 A 
HETATM   15  C   UNL     1      25.719  41.401  50.300  1.00  0.00     0.030 A 
HETATM   16  H   UNL     1      29.795  41.763  52.572  1.00  0.00     0.166 HD
ENDROOT
BRANCH   1  17
HETATM   17  N   UNL     1      26.374  39.091  50.335  1.00  0.00    -0.326 N 
HETATM   18  C   UNL     1      27.045  38.330  49.402  1.00  0.00     0.247 C 
HETATM   19  O   UNL     1      27.890  38.706  48.589  1.00  0.00    -0.271 OA
HETATM   20  H   UNL     1      25.602  38.676  50.846  1.00  0.00     0.169 HD
BRANCH  18  21
HETATM   21  C   UNL     1      26.698  36.841  49.427  1.00  0.00     0.334 C 
BRANCH  21  22
HETATM   22  N   UNL     1      27.203  36.166  48.169  1.00  0.00    -0.071 N 
HETATM   23  C   UNL     1      26.142  35.752  47.212  1.00  0.00     0.267 C 
HETATM   24  H   UNL     1      27.678  35.302  48.488  1.00  0.00     0.277 HD
HETATM   25  H   UNL     1      27.910  36.742  47.699  1.00  0.00     0.277 HD
ENDBRANCH  21  22
ENDBRANCH  18  21
ENDBRANCH   1  17
TORSDOF 3
ENDMDL
MODEL 7
REMARK VINA RESULT:      -7.3     13.507     14.825
REMARK  3 active torsions:
REMARK  status: ('A' for Active; 'I' for Inactive)
REMARK    1  A    between atoms: N_2  and  C_5 
REMARK    2  A    between atoms: C_5  and  C_6 
REMARK       I    between atoms: C_6  and  N_7 
REMARK    3  A    between atoms: N_7  and  C_8 
ROOT
HETATM    1  C   UNL     1      28.755  48.463  39.888  1.00  0.00     0.036 A 
HETATM    2  C   UNL     1      29.218  49.141  41.018  1.00  0.00     0.059 A 
HETATM    3  C   UNL     1      30.539  48.997  41.489  1.00  0.00     0.041 A 
HETATM    4  C   UNL     1      31.404  48.142  40.800  1.00  0.00    -0.031 A 
HETATM    5  C   UNL     1      32.827  47.958  41.249  1.00  0.00     0.045 C 
HETATM    6  C   UNL     1      33.606  49.264  41.147  1.00  0.00     0.045 C 
HETATM    7  C   UNL     1      33.381  50.225  42.290  1.00  0.00    -0.031 A 
HETATM    8  C   UNL     1      32.147  50.417  42.931  1.00  0.00     0.039 A 
HETATM    9  N   UNL     1      30.931  49.804  42.570  1.00  0.00    -0.355 N 
HETATM   10  C   UNL     1      34.493  50.997  42.692  1.00  0.00     0.009 A 
HETATM   11  C   UNL     1      34.407  51.912  43.739  1.00  0.00     0.001 A 
HETATM   12  C   UNL     1      33.204  52.071  44.407  1.00  0.00     0.002 A 
HETATM   13  C   UNL     1      32.092  51.333  44.006  1.00  0.00     0.030 A 
HETATM   14  C   UNL     1      30.933  47.429  39.685  1.00  0.00     0.012 A 
HETATM   15  C   UNL     1      29.624  47.592  39.230  1.00  0.00     0.030 A 
HETATM   16  H   UNL     1      30.150  50.113  43.138  1.00  0.00     0.166 HD
ENDROOT
BRANCH   1  17
HETATM   17  N   UNL     1      27.470  48.649  39.328  1.00  0.00    -0.326 N 
HETATM   18  C   UNL     1      27.139  49.514  38.307  1.00  0.00     0.247 C 
HETATM   19  O   UNL     1      27.842  50.390  37.803  1.00  0.00    -0.271 OA
HETATM   20  H   UNL     1      26.744  48.072  39.739  1.00  0.00     0.169 HD
BRANCH  18  21
HETATM   21  C   UNL     1      25.735  49.316  37.735  1.00  0.00     0.334 C 
BRANCH  21  22
HETATM   22  N   UNL     1      24.816  50.423  38.208  1.00  0.00    -0.071 N 
HETATM   23  C   UNL     1      23.477  49.969  38.669  1.00  0.00     0.267 C 
HETATM   24  H   UNL     1      24.664  51.030  37.382  1.00  0.00     0.277 HD
HETATM   25  H   UNL     1      25.271  50.999  38.925  1.00  0.00     0.277 HD
ENDBRANCH  21  22
ENDBRANCH  18  21
ENDBRANCH   1  17
TORSDOF 3
ENDMDL
MODEL 8
REMARK VINA RESULT:      -7.3     12.191     14.980
REMARK  3 active torsions:
REMARK  status: ('A' for Active; 'I' for Inactive)
REMARK    1  A    between atoms: N_2  and  C_5 
REMARK    2  A    between atoms: C_5  and  C_6 
REMARK       I    between atoms: C_6  and  N_7 
REMARK    3  A    between atoms: N_7  and  C_8 
ROOT
HETATM    1  C   UNL     1      16.114  52.991  49.583  1.00  0.00     0.036 A 
HETATM    2  C   UNL     1      17.367  52.568  50.035  1.00  0.00     0.059 A 
HETATM    3  C   UNL     1      18.115  51.587  49.353  1.00  0.00     0.041 A 
HETATM    4  C   UNL     1      17.576  51.021  48.194  1.00  0.00    -0.031 A 
HETATM    5  C   UNL     1      18.334  49.979  47.419  1.00  0.00     0.045 C 
HETATM    6  C   UNL     1      19.632  50.550  46.860  1.00  0.00     0.045 C 
HETATM    7  C   UNL     1      20.769  50.624  47.851  1.00  0.00    -0.031 A 
HETATM    8  C   UNL     1      20.615  50.945  49.209  1.00  0.00     0.039 A 
HETATM    9  N   UNL     1      19.406  51.310  49.833  1.00  0.00    -0.355 N 
HETATM   10  C   UNL     1      22.065  50.389  47.342  1.00  0.00     0.009 A 
HETATM   11  C   UNL     1      23.190  50.426  48.162  1.00  0.00     0.001 A 
HETATM   12  C   UNL     1      23.039  50.695  49.512  1.00  0.00     0.002 A 
HETATM   13  C   UNL     1      21.769  50.951  50.025  1.00  0.00     0.030 A 
HETATM   14  C   UNL     1      16.301  51.417  47.757  1.00  0.00     0.012 A 
HETATM   15  C   UNL     1      15.580  52.396  48.441  1.00  0.00     0.030 A 
HETATM   16  H   UNL     1      19.524  51.543  50.813  1.00  0.00     0.166 HD
ENDROOT
BRANCH   1  17
HETATM   17  N   UNL     1      15.373  54.037  50.182  1.00  0.00    -0.326 N 
HETATM   18  C   UNL     1      14.239  53.899  50.953  1.00  0.00     0.247 C 
HETATM   19  O   UNL     1      13.570  52.882  51.136  1.00  0.00    -0.271 OA
HETATM   20  H   UNL     1      15.741  54.966  50.009  1.00  0.00     0.169 HD
BRANCH  18  21
HETATM   21  C   UNL     1      13.805  55.174  51.679  1.00  0.00     0.334 C 
BRANCH  21  22
HETATM   22  N   UNL     1      14.306  55.157  53.108  1.00  0.00    -0.071 N 
HETATM   23  C   UNL     1      15.293  56.221  53.436  1.00  0.00     0.267 C 
HETATM   24  H   UNL     1      14.790  54.249  53.223  1.00  0.00     0.277 HD
HETATM   25  H   UNL     1      13.526  55.169  53.774  1.00  0.00     0.277 HD
ENDBRANCH  21  22
ENDBRANCH  18  21
ENDBRANCH   1  17
TORSDOF 3
ENDMDL
MODEL 9
REMARK VINA RESULT:      -7.2      2.215      4.074
REMARK  3 active torsions:
REMARK  status: ('A' for Active; 'I' for Inactive)
REMARK    1  A    between atoms: N_2  and  C_5 
REMARK    2  A    between atoms: C_5  and  C_6 
REMARK       I    between atoms: C_6  and  N_7 
REMARK    3  A    between atoms: N_7  and  C_8 
ROOT
HETATM    1  C   UNL     1      27.543  41.193  51.077  1.00  0.00     0.036 A 
HETATM    2  C   UNL     1      26.857  42.275  51.633  1.00  0.00     0.059 A 
HETATM    3  C   UNL     1      27.272  42.889  52.832  1.00  0.00     0.041 A 
HETATM    4  C   UNL     1      28.403  42.388  53.482  1.00  0.00    -0.031 A 
HETATM    5  C   UNL     1      28.900  43.010  54.757  1.00  0.00     0.045 C 
HETATM    6  C   UNL     1      29.339  44.452  54.528  1.00  0.00     0.045 C 
HETATM    7  C   UNL     1      28.213  45.457  54.489  1.00  0.00    -0.031 A 
HETATM    8  C   UNL     1      26.953  45.212  53.920  1.00  0.00     0.039 A 
HETATM    9  N   UNL     1      26.573  44.035  53.247  1.00  0.00    -0.355 N 
HETATM   10  C   UNL     1      28.487  46.731  55.032  1.00  0.00     0.009 A 
HETATM   11  C   UNL     1      27.524  47.737  55.057  1.00  0.00     0.001 A 
HETATM   12  C   UNL     1      26.264  47.487  54.540  1.00  0.00     0.002 A 
HETATM   13  C   UNL     1      25.986  46.241  53.980  1.00  0.00     0.030 A 
HETATM   14  C   UNL     1      29.076  41.277  52.947  1.00  0.00     0.012 A 
HETATM   15  C   UNL     1      28.654  40.689  51.754  1.00  0.00     0.030 A 
HETATM   16  H   UNL     1      25.630  44.081  52.876  1.00  0.00     0.166 HD
ENDROOT
BRANCH   1  17
HETATM   17  N   UNL     1      27.218  40.609  49.831  1.00  0.00    -0.326 N 
HETATM   18  C   UNL     1      27.199  41.244  48.608  1.00  0.00     0.247 C 
HETATM   19  O   UNL     1      27.302  42.450  48.383  1.00  0.00    -0.271 OA
HETATM   20  H   UNL     1      26.982  39.623  49.878  1.00  0.00     0.169 HD
BRANCH  18  21
HETATM   21  C   UNL     1      27.065  40.308  47.406  1.00  0.00     0.334 C 
BRANCH  21  22
HETATM   22  N   UNL     1      26.988  41.111  46.125  1.00  0.00    -0.071 N 
HETATM   23  C   UNL     1      25.808  40.812  45.270  1.00  0.00     0.267 C 
HETATM   24  H   UNL     1      27.830  40.850  45.581  1.00  0.00     0.277 HD
HETATM   25  H   UNL     1      27.052  42.117  46.315  1.00  0.00     0.277 HD
ENDBRANCH  21  22
ENDBRANCH  18  21
ENDBRANCH   1  17
TORSDOF 3
ENDMDL
MODEL 10
REMARK VINA RESULT:      -7.2      2.341      3.441
REMARK  3 active torsions:
REMARK  status: ('A' for Active; 'I' for Inactive)
REMARK    1  A    between atoms: N_2  and  C_5 
REMARK    2  A    between atoms: C_5  and  C_6 
REMARK       I    between atoms: C_6  and  N_7 
REMARK    3  A    between atoms: N_7  and  C_8 
ROOT
HETATM    1  C   UNL     1      26.548  43.914  51.336  1.00  0.00     0.036 A 
HETATM    2  C   UNL     1      26.626  44.486  52.608  1.00  0.00     0.059 A 
HETATM    3  C   UNL     1      27.512  44.003  53.592  1.00  0.00     0.041 A 
HETATM    4  C   UNL     1      28.330  42.913  53.279  1.00  0.00    -0.031 A 
HETATM    5  C   UNL     1      29.303  42.363  54.284  1.00  0.00     0.045 C 
HETATM    6  C   UNL     1      30.363  43.398  54.643  1.00  0.00     0.045 C 
HETATM    7  C   UNL     1      29.922  44.431  55.651  1.00  0.00    -0.031 A 
HETATM    8  C   UNL     1      28.632  44.984  55.706  1.00  0.00     0.039 A 
HETATM    9  N   UNL     1      27.586  44.716  54.801  1.00  0.00    -0.355 N 
HETATM   10  C   UNL     1      30.902  44.883  56.561  1.00  0.00     0.009 A 
HETATM   11  C   UNL     1      30.610  45.830  57.540  1.00  0.00     0.001 A 
HETATM   12  C   UNL     1      29.327  46.344  57.629  1.00  0.00     0.002 A 
HETATM   13  C   UNL     1      28.355  45.924  56.724  1.00  0.00     0.030 A 
HETATM   14  C   UNL     1      28.228  42.311  52.013  1.00  0.00     0.012 A 
HETATM   15  C   UNL     1      27.350  42.810  51.050  1.00  0.00     0.030 A 
HETATM   16  H   UNL     1      26.749  45.252  54.997  1.00  0.00     0.166 HD
ENDROOT
BRANCH   1  17
HETATM   17  N   UNL     1      25.743  44.423  50.291  1.00  0.00    -0.326 N 
HETATM   18  C   UNL     1      24.365  44.420  50.241  1.00  0.00     0.247 C 
HETATM   19  O   UNL     1      23.585  43.843  50.999  1.00  0.00    -0.271 OA
HETATM   20  H   UNL     1      26.262  44.827  49.519  1.00  0.00     0.169 HD
BRANCH  18  21
HETATM   21  C   UNL     1      23.766  45.267  49.118  1.00  0.00     0.334 C 
BRANCH  21  22
HETATM   22  N   UNL     1      23.912  44.554  47.790  1.00  0.00    -0.071 N 
HETATM   23  C   UNL     1      22.784  43.650  47.440  1.00  0.00     0.267 C 
HETATM   24  H   UNL     1      24.758  43.962  47.884  1.00  0.00     0.277 HD
HETATM   25  H   UNL     1      24.093  45.219  47.031  1.00  0.00     0.277 HD
ENDBRANCH  21  22
ENDBRANCH  18  21
ENDBRANCH   1  17
TORSDOF 3
ENDMDL
