MODEL 1
REMARK VINA RESULT:      -9.9      0.000      0.000
REMARK  6 active torsions:
REMARK  status: ('A' for Active; 'I' for Inactive)
REMARK    1  A    between atoms: C_6  and  C_7 
REMARK    2  A    between atoms: C_10  and  O_11 
REMARK    3  A    between atoms: C_15  and  C_16 
REMARK    4  A    between atoms: C_16  and  C_17 
REMARK       I    between atoms: C_17  and  N_18 
REMARK    5  A    between atoms: N_18  and  C_19 
REMARK    6  A    between atoms: C_19  and  C_20 
ROOT
HETATM    1  C   UNL     1      27.833  43.589  50.961  1.00  0.00     0.146 C 
ENDROOT
BRANCH   1   2
HETATM    2  C   UNL     1      28.134  42.343  51.728  1.00  0.00     0.006 A 
HETATM    3  C   UNL     1      27.953  41.050  51.262  1.00  0.00     0.033 A 
HETATM    4  C   UNL     1      27.456  40.517  49.971  1.00  0.00     0.070 C 
HETATM    5  N   UNL     1      28.345  40.230  52.276  1.00  0.00    -0.282 N 
HETATM    6  H   UNL     1      28.359  39.215  52.294  1.00  0.00     0.189 HD
HETATM    7  N   UNL     1      28.739  40.883  53.369  1.00  0.00    -0.173 NA
HETATM    8  C   UNL     1      28.653  42.188  53.059  1.00  0.00     0.096 A 
BRANCH   8   9
HETATM    9  C   UNL     1      29.040  43.193  54.062  1.00  0.00    -0.005 A 
HETATM   10  C   UNL     1      28.226  44.280  54.391  1.00  0.00     0.016 A 
HETATM   11  C   UNL     1      28.643  45.223  55.342  1.00  0.00     0.037 A 
HETATM   12  C   UNL     1      29.891  45.116  55.954  1.00  0.00     0.068 A 
HETATM   13  C   UNL     1      30.712  44.038  55.637  1.00  0.00     0.037 A 
HETATM   14  C   UNL     1      30.286  43.087  54.701  1.00  0.00     0.016 A 
BRANCH  12  15
HETATM   15  O   UNL     1      30.188  46.113  56.842  1.00  0.00    -0.356 OA
HETATM   16  C   UNL     1      30.395  45.710  58.191  1.00  0.00     0.210 C 
ENDBRANCH  12  15
ENDBRANCH   8   9
ENDBRANCH   1   2
BRANCH   1  17
HETATM   17  C   UNL     1      26.471  44.205  51.228  1.00  0.00     0.222 C 
HETATM   18  N   UNL     1      26.375  45.567  51.074  1.00  0.00    -0.350 N 
HETATM   19  H   UNL     1      27.146  46.090  50.675  1.00  0.00     0.163 HD
HETATM   20  O   UNL     1      25.539  43.520  51.646  1.00  0.00    -0.273 OA
BRANCH  18  21
HETATM   21  C   UNL     1      25.232  46.321  51.563  1.00  0.00     0.150 C 
HETATM   22  C   UNL     1      25.625  47.053  52.844  1.00  0.00     0.040 C 
BRANCH  21  23
HETATM   23  C   UNL     1      24.758  47.260  50.498  1.00  0.00     0.127 A 
HETATM   24  N   UNL     1      25.436  48.249  49.946  1.00  0.00    -0.231 NA
HETATM   25  C   UNL     1      24.540  48.916  49.149  1.00  0.00     0.085 A 
HETATM   26  C   UNL     1      23.295  48.299  49.178  1.00  0.00     0.062 A 
HETATM   27  C   UNL     1      24.716  50.077  48.381  1.00  0.00     0.034 A 
HETATM   28  N   UNL     1      23.464  47.235  50.025  1.00  0.00    -0.341 N 
HETATM   29  C   UNL     1      22.191  48.772  48.464  1.00  0.00     0.032 A 
HETATM   30  H   UNL     1      22.754  46.567  50.298  1.00  0.00     0.167 HD
HETATM   31  C   UNL     1      22.383  49.935  47.708  1.00  0.00     0.002 A 
HETATM   32  C   UNL     1      23.623  50.579  47.666  1.00  0.00     0.002 A 
ENDBRANCH  21  23
ENDBRANCH  18  21
ENDBRANCH   1  17
TORSDOF 6
ENDMDL
MODEL 2
REMARK VINA RESULT:      -9.5      2.625      4.584
REMARK  6 active torsions:
REMARK  status: ('A' for Active; 'I' for Inactive)
REMARK    1  A    between atoms: C_6  and  C_7 
REMARK    2  A    between atoms: C_10  and  O_11 
REMARK    3  A    between atoms: C_15  and  C_16 
REMARK    4  A    between atoms: C_16  and  C_17 
REMARK       I    between atoms: C_17  and  N_18 
REMARK    5  A    between atoms: N_18  and  C_19 
REMARK    6  A    between atoms: C_19  and  C_20 
ROOT
HETATM    1  C   UNL     1      25.470  46.151  53.596  1.00  0.00     0.146 C 
ENDROOT
BRANCH   1   2
HETATM    2  C   UNL     1      26.785  46.208  54.303  1.00  0.00     0.006 A 
HETATM    3  C   UNL     1      27.189  47.213  55.170  1.00  0.00     0.033 A 
HETATM    4  C   UNL     1      26.517  48.446  55.645  1.00  0.00     0.070 C 
HETATM    5  N   UNL     1      28.442  46.871  55.579  1.00  0.00    -0.282 N 
HETATM    6  H   UNL     1      29.050  47.367  56.223  1.00  0.00     0.189 HD
HETATM    7  N   UNL     1      28.894  45.744  55.030  1.00  0.00    -0.173 NA
HETATM    8  C   UNL     1      27.889  45.289  54.262  1.00  0.00     0.096 A 
BRANCH   8   9
HETATM    9  C   UNL     1      28.064  44.031  53.520  1.00  0.00    -0.005 A 
HETATM   10  C   UNL     1      27.877  43.939  52.138  1.00  0.00     0.016 A 
HETATM   11  C   UNL     1      28.038  42.715  51.474  1.00  0.00     0.037 A 
HETATM   12  C   UNL     1      28.355  41.555  52.181  1.00  0.00     0.068 A 
HETATM   13  C   UNL     1      28.545  41.631  53.557  1.00  0.00     0.037 A 
HETATM   14  C   UNL     1      28.402  42.859  54.216  1.00  0.00     0.016 A 
BRANCH  12  15
HETATM   15  O   UNL     1      28.459  40.423  51.421  1.00  0.00    -0.356 OA
HETATM   16  C   UNL     1      28.034  40.534  50.068  1.00  0.00     0.210 C 
ENDBRANCH  12  15
ENDBRANCH   8   9
ENDBRANCH   1   2
BRANCH   1  17
HETATM   17  C   UNL     1      25.467  46.711  52.183  1.00  0.00     0.222 C 
HETATM   18  N   UNL     1      24.595  46.126  51.297  1.00  0.00    -0.350 N 
HETATM   19  H   UNL     1      23.910  45.455  51.625  1.00  0.00     0.163 HD
HETATM   20  O   UNL     1      26.272  47.577  51.846  1.00  0.00    -0.273 OA
BRANCH  18  21
HETATM   21  C   UNL     1      24.681  46.357  49.864  1.00  0.00     0.150 C 
HETATM   22  C   UNL     1      24.339  45.064  49.127  1.00  0.00     0.040 C 
BRANCH  21  23
HETATM   23  C   UNL     1      23.771  47.483  49.483  1.00  0.00     0.127 A 
HETATM   24  N   UNL     1      24.053  48.773  49.483  1.00  0.00    -0.231 NA
HETATM   25  C   UNL     1      22.869  49.413  49.218  1.00  0.00     0.085 A 
HETATM   26  C   UNL     1      21.845  48.497  49.009  1.00  0.00     0.062 A 
HETATM   27  C   UNL     1      22.587  50.786  49.159  1.00  0.00     0.034 A 
HETATM   28  N   UNL     1      22.447  47.276  49.161  1.00  0.00    -0.341 N 
HETATM   29  C   UNL     1      20.529  48.873  48.729  1.00  0.00     0.032 A 
HETATM   30  H   UNL     1      21.996  46.372  49.096  1.00  0.00     0.167 HD
HETATM   31  C   UNL     1      20.265  50.248  48.680  1.00  0.00     0.002 A 
HETATM   32  C   UNL     1      21.274  51.191  48.891  1.00  0.00     0.002 A 
ENDBRANCH  21  23
ENDBRANCH  18  21
ENDBRANCH   1  17
TORSDOF 6
ENDMDL
MODEL 3
REMARK VINA RESULT:      -9.2      1.526      1.971
REMARK  6 active torsions:
REMARK  status: ('A' for Active; 'I' for Inactive)
REMARK    1  A    between atoms: C_6  and  C_7 
REMARK    2  A    between atoms: C_10  and  O_11 
REMARK    3  A    between atoms: C_15  and  C_16 
REMARK    4  A    between atoms: C_16  and  C_17 
REMARK       I    between atoms: C_17  and  N_18 
REMARK    5  A    between atoms: N_18  and  C_19 
REMARK    6  A    between atoms: C_19  and  C_20 
ROOT
HETATM    1  C   UNL     1      25.488  44.724  52.944  1.00  0.00     0.146 C 
ENDROOT
BRANCH   1   2
HETATM    2  C   UNL     1      26.418  43.721  52.343  1.00  0.00     0.006 A 
HETATM    3  C   UNL     1      26.155  42.953  51.219  1.00  0.00     0.033 A 
HETATM    4  C   UNL     1      24.980  42.878  50.318  1.00  0.00     0.070 C 
HETATM    5  N   UNL     1      27.260  42.180  51.028  1.00  0.00    -0.282 N 
HETATM    6  H   UNL     1      27.431  41.498  50.296  1.00  0.00     0.189 HD
HETATM    7  N   UNL     1      28.207  42.364  51.948  1.00  0.00    -0.173 NA
HETATM    8  C   UNL     1      27.737  43.329  52.758  1.00  0.00     0.096 A 
BRANCH   8   9
HETATM    9  C   UNL     1      28.564  43.785  53.888  1.00  0.00    -0.005 A 
HETATM   10  C   UNL     1      28.308  44.974  54.576  1.00  0.00     0.016 A 
HETATM   11  C   UNL     1      29.132  45.378  55.636  1.00  0.00     0.037 A 
HETATM   12  C   UNL     1      30.245  44.622  56.004  1.00  0.00     0.068 A 
HETATM   13  C   UNL     1      30.511  43.435  55.328  1.00  0.00     0.037 A 
HETATM   14  C   UNL     1      29.676  43.024  54.282  1.00  0.00     0.016 A 
BRANCH  12  15
HETATM   15  O   UNL     1      30.980  45.137  57.035  1.00  0.00    -0.356 OA
HETATM   16  C   UNL     1      30.250  45.816  58.050  1.00  0.00     0.210 C 
ENDBRANCH  12  15
ENDBRANCH   8   9
ENDBRANCH   1   2
BRANCH   1  17
HETATM   17  C   UNL     1      25.662  46.150  52.452  1.00  0.00     0.222 C 
HETATM   18  N   UNL     1      25.456  46.363  51.110  1.00  0.00    -0.350 N 
HETATM   19  H   UNL     1      25.079  45.623  50.529  1.00  0.00     0.163 HD
HETATM   20  O   UNL     1      26.056  47.035  53.210  1.00  0.00    -0.273 OA
BRANCH  18  21
HETATM   21  C   UNL     1      25.859  47.596  50.455  1.00  0.00     0.150 C 
HETATM   22  C   UNL     1      27.031  47.307  49.519  1.00  0.00     0.040 C 
BRANCH  21  23
HETATM   23  C   UNL     1      24.688  48.183  49.729  1.00  0.00     0.127 A 
HETATM   24  N   UNL     1      24.655  49.313  49.047  1.00  0.00    -0.231 NA
HETATM   25  C   UNL     1      23.340  49.505  48.706  1.00  0.00     0.085 A 
HETATM   26  C   UNL     1      22.553  48.449  49.152  1.00  0.00     0.062 A 
HETATM   27  C   UNL     1      22.738  50.575  48.029  1.00  0.00     0.034 A 
HETATM   28  N   UNL     1      23.435  47.611  49.780  1.00  0.00    -0.341 N 
HETATM   29  C   UNL     1      21.171  48.389  48.951  1.00  0.00     0.032 A 
HETATM   30  H   UNL     1      23.209  46.741  50.245  1.00  0.00     0.167 HD
HETATM   31  C   UNL     1      20.586  49.469  48.277  1.00  0.00     0.002 A 
HETATM   32  C   UNL     1      21.353  50.545  47.824  1.00  0.00     0.002 A 
ENDBRANCH  21  23
ENDBRANCH  18  21
ENDBRANCH   1  17
TORSDOF 6
ENDMDL
MODEL 4
REMARK VINA RESULT:      -8.9     12.168     14.859
REMARK  6 active torsions:
REMARK  status: ('A' for Active; 'I' for Inactive)
REMARK    1  A    between atoms: C_6  and  C_7 
REMARK    2  A    between atoms: C_10  and  O_11 
REMARK    3  A    between atoms: C_15  and  C_16 
REMARK    4  A    between atoms: C_16  and  C_17 
REMARK       I    between atoms: C_17  and  N_18 
REMARK    5  A    between atoms: N_18  and  C_19 
REMARK    6  A    between atoms: C_19  and  C_20 
ROOT
HETATM    1  C   UNL     1      27.299  49.244  41.116  1.00  0.00     0.146 C 
ENDROOT
BRANCH   1   2
HETATM    2  C   UNL     1      27.040  49.939  39.819  1.00  0.00     0.006 A 
HETATM    3  C   UNL     1      25.909  49.778  39.033  1.00  0.00     0.033 A 
HETATM    4  C   UNL     1      24.691  48.949  39.199  1.00  0.00     0.070 C 
HETATM    5  N   UNL     1      26.087  50.588  37.952  1.00  0.00    -0.282 N 
HETATM    6  H   UNL     1      25.461  50.736  37.167  1.00  0.00     0.189 HD
HETATM    7  N   UNL     1      27.250  51.240  37.959  1.00  0.00    -0.173 NA
HETATM    8  C   UNL     1      27.851  50.890  39.109  1.00  0.00     0.096 A 
BRANCH   8   9
HETATM    9  C   UNL     1      29.168  51.460  39.435  1.00  0.00    -0.005 A 
HETATM   10  C   UNL     1      29.366  52.337  40.505  1.00  0.00     0.016 A 
HETATM   11  C   UNL     1      30.636  52.869  40.768  1.00  0.00     0.037 A 
HETATM   12  C   UNL     1      31.722  52.564  39.948  1.00  0.00     0.068 A 
HETATM   13  C   UNL     1      31.541  51.691  38.880  1.00  0.00     0.037 A 
HETATM   14  C   UNL     1      30.275  51.145  38.630  1.00  0.00     0.016 A 
BRANCH  12  15
HETATM   15  O   UNL     1      32.899  53.166  40.297  1.00  0.00    -0.356 OA
HETATM   16  C   UNL     1      33.989  52.981  39.402  1.00  0.00     0.210 C 
ENDBRANCH  12  15
ENDBRANCH   8   9
ENDBRANCH   1   2
BRANCH   1  17
HETATM   17  C   UNL     1      28.482  48.291  41.119  1.00  0.00     0.222 C 
HETATM   18  N   UNL     1      29.716  48.852  41.340  1.00  0.00    -0.350 N 
HETATM   19  H   UNL     1      29.792  49.824  41.617  1.00  0.00     0.163 HD
HETATM   20  O   UNL     1      28.335  47.101  40.845  1.00  0.00    -0.273 OA
BRANCH  18  21
HETATM   21  C   UNL     1      30.950  48.123  41.091  1.00  0.00     0.150 C 
HETATM   22  C   UNL     1      31.053  47.806  39.601  1.00  0.00     0.040 C 
BRANCH  21  23
HETATM   23  C   UNL     1      32.114  48.929  41.579  1.00  0.00     0.127 A 
HETATM   24  N   UNL     1      32.106  49.855  42.519  1.00  0.00    -0.231 NA
HETATM   25  C   UNL     1      33.358  50.417  42.500  1.00  0.00     0.085 A 
HETATM   26  C   UNL     1      34.166  49.795  41.556  1.00  0.00     0.062 A 
HETATM   27  C   UNL     1      33.872  51.484  43.252  1.00  0.00     0.034 A 
HETATM   28  N   UNL     1      33.360  48.837  40.999  1.00  0.00    -0.341 N 
HETATM   29  C   UNL     1      35.490  50.172  41.317  1.00  0.00     0.032 A 
HETATM   30  H   UNL     1      33.614  48.199  40.256  1.00  0.00     0.167 HD
HETATM   31  C   UNL     1      35.985  51.242  42.073  1.00  0.00     0.002 A 
HETATM   32  C   UNL     1      35.192  51.889  43.025  1.00  0.00     0.002 A 
ENDBRANCH  21  23
ENDBRANCH  18  21
ENDBRANCH   1  17
TORSDOF 6
ENDMDL
MODEL 5
REMARK VINA RESULT:      -8.8      1.789      2.415
REMARK  6 active torsions:
REMARK  status: ('A' for Active; 'I' for Inactive)
REMARK    1  A    between atoms: C_6  and  C_7 
REMARK    2  A    between atoms: C_10  and  O_11 
REMARK    3  A    between atoms: C_15  and  C_16 
REMARK    4  A    between atoms: C_16  and  C_17 
REMARK       I    between atoms: C_17  and  N_18 
REMARK    5  A    between atoms: N_18  and  C_19 
REMARK    6  A    between atoms: C_19  and  C_20 
ROOT
HETATM    1  C   UNL     1      27.656  44.072  51.093  1.00  0.00     0.146 C 
ENDROOT
BRANCH   1   2
HETATM    2  C   UNL     1      27.627  42.799  51.874  1.00  0.00     0.006 A 
HETATM    3  C   UNL     1      27.114  41.592  51.424  1.00  0.00     0.033 A 
HETATM    4  C   UNL     1      26.490  41.193  50.140  1.00  0.00     0.070 C 
HETATM    5  N   UNL     1      27.285  40.710  52.447  1.00  0.00    -0.282 N 
HETATM    6  H   UNL     1      27.036  39.726  52.477  1.00  0.00     0.189 HD
HETATM    7  N   UNL     1      27.841  41.250  53.531  1.00  0.00    -0.173 NA
HETATM    8  C   UNL     1      28.094  42.529  53.206  1.00  0.00     0.096 A 
BRANCH   8   9
HETATM    9  C   UNL     1      28.734  43.410  54.196  1.00  0.00    -0.005 A 
HETATM   10  C   UNL     1      28.144  44.596  54.642  1.00  0.00     0.016 A 
HETATM   11  C   UNL     1      28.797  45.413  55.574  1.00  0.00     0.037 A 
HETATM   12  C   UNL     1      30.064  45.080  56.052  1.00  0.00     0.068 A 
HETATM   13  C   UNL     1      30.664  43.902  55.619  1.00  0.00     0.037 A 
HETATM   14  C   UNL     1      30.001  43.077  54.701  1.00  0.00     0.016 A 
BRANCH  12  15
HETATM   15  O   UNL     1      30.602  45.972  56.938  1.00  0.00    -0.356 OA
HETATM   16  C   UNL     1      30.556  45.601  58.310  1.00  0.00     0.210 C 
ENDBRANCH  12  15
ENDBRANCH   8   9
ENDBRANCH   1   2
BRANCH   1  17
HETATM   17  C   UNL     1      26.404  44.927  51.193  1.00  0.00     0.222 C 
HETATM   18  N   UNL     1      26.165  45.787  50.149  1.00  0.00    -0.350 N 
HETATM   19  H   UNL     1      26.732  45.738  49.310  1.00  0.00     0.163 HD
HETATM   20  O   UNL     1      25.703  44.903  52.205  1.00  0.00    -0.273 OA
BRANCH  18  21
HETATM   21  C   UNL     1      25.181  46.853  50.237  1.00  0.00     0.150 C 
HETATM   22  C   UNL     1      25.778  48.135  49.661  1.00  0.00     0.040 C 
BRANCH  21  23
HETATM   23  C   UNL     1      23.931  46.440  49.522  1.00  0.00     0.127 A 
HETATM   24  N   UNL     1      23.665  45.259  48.996  1.00  0.00    -0.231 NA
HETATM   25  C   UNL     1      22.482  45.411  48.318  1.00  0.00     0.085 A 
HETATM   26  C   UNL     1      21.988  46.702  48.464  1.00  0.00     0.062 A 
HETATM   27  C   UNL     1      21.775  44.488  47.533  1.00  0.00     0.034 A 
HETATM   28  N   UNL     1      22.916  47.332  49.252  1.00  0.00    -0.341 N 
HETATM   29  C   UNL     1      20.801  47.138  47.870  1.00  0.00     0.032 A 
HETATM   30  H   UNL     1      22.891  48.298  49.551  1.00  0.00     0.167 HD
HETATM   31  C   UNL     1      20.111  46.204  47.085  1.00  0.00     0.002 A 
HETATM   32  C   UNL     1      20.588  44.902  46.917  1.00  0.00     0.002 A 
ENDBRANCH  21  23
ENDBRANCH  18  21
ENDBRANCH   1  17
TORSDOF 6
ENDMDL
MODEL 6
REMARK VINA RESULT:      -8.8      3.300      7.565
REMARK  6 active torsions:
REMARK  status: ('A' for Active; 'I' for Inactive)
REMARK    1  A    between atoms: C_6  and  C_7 
REMARK    2  A    between atoms: C_10  and  O_11 
REMARK    3  A    between atoms: C_15  and  C_16 
REMARK    4  A    between atoms: C_16  and  C_17 
REMARK       I    between atoms: C_17  and  N_18 
REMARK    5  A    between atoms: N_18  and  C_19 
REMARK    6  A    between atoms: C_19  and  C_20 
ROOT
HETATM    1  C   UNL     1      30.488  43.424  54.114  1.00  0.00     0.146 C 
ENDROOT
BRANCH   1   2
HETATM    2  C   UNL     1      30.306  44.198  55.380  1.00  0.00     0.006 A 
HETATM    3  C   UNL     1      31.037  44.016  56.544  1.00  0.00     0.033 A 
HETATM    4  C   UNL     1      32.141  43.089  56.892  1.00  0.00     0.070 C 
HETATM    5  N   UNL     1      30.545  44.918  57.437  1.00  0.00    -0.282 N 
HETATM    6  H   UNL     1      30.842  45.080  58.395  1.00  0.00     0.189 HD
HETATM    7  N   UNL     1      29.540  45.651  56.959  1.00  0.00    -0.173 NA
HETATM    8  C   UNL     1      29.384  45.257  55.683  1.00  0.00     0.096 A 
BRANCH   8   9
HETATM    9  C   UNL     1      28.348  45.895  54.855  1.00  0.00    -0.005 A 
HETATM   10  C   UNL     1      28.065  47.262  54.924  1.00  0.00     0.016 A 
HETATM   11  C   UNL     1      27.057  47.824  54.128  1.00  0.00     0.037 A 
HETATM   12  C   UNL     1      26.292  47.027  53.276  1.00  0.00     0.068 A 
HETATM   13  C   UNL     1      26.564  45.665  53.196  1.00  0.00     0.037 A 
HETATM   14  C   UNL     1      27.584  45.109  53.978  1.00  0.00     0.016 A 
BRANCH  12  15
HETATM   15  O   UNL     1      25.325  47.692  52.573  1.00  0.00    -0.356 OA
HETATM   16  C   UNL     1      24.906  47.088  51.355  1.00  0.00     0.210 C 
ENDBRANCH  12  15
ENDBRANCH   8   9
ENDBRANCH   1   2
BRANCH   1  17
HETATM   17  C   UNL     1      29.412  42.393  53.822  1.00  0.00     0.222 C 
HETATM   18  N   UNL     1      29.117  42.176  52.497  1.00  0.00    -0.350 N 
HETATM   19  H   UNL     1      29.691  42.592  51.773  1.00  0.00     0.163 HD
HETATM   20  O   UNL     1      28.785  41.858  54.735  1.00  0.00    -0.273 OA
BRANCH  18  21
HETATM   21  C   UNL     1      27.933  41.443  52.081  1.00  0.00     0.150 C 
HETATM   22  C   UNL     1      26.764  42.416  51.944  1.00  0.00     0.040 C 
BRANCH  21  23
HETATM   23  C   UNL     1      28.217  40.718  50.802  1.00  0.00     0.127 A 
HETATM   24  N   UNL     1      27.807  41.044  49.591  1.00  0.00    -0.231 NA
HETATM   25  C   UNL     1      28.179  40.004  48.777  1.00  0.00     0.085 A 
HETATM   26  C   UNL     1      28.870  39.035  49.496  1.00  0.00     0.062 A 
HETATM   27  C   UNL     1      27.941  39.807  47.409  1.00  0.00     0.034 A 
HETATM   28  N   UNL     1      28.901  39.522  50.777  1.00  0.00    -0.341 N 
HETATM   29  C   UNL     1      29.359  37.860  48.920  1.00  0.00     0.032 A 
HETATM   30  H   UNL     1      29.313  39.067  51.581  1.00  0.00     0.167 HD
HETATM   31  C   UNL     1      29.108  37.678  47.554  1.00  0.00     0.002 A 
HETATM   32  C   UNL     1      28.411  38.633  46.809  1.00  0.00     0.002 A 
ENDBRANCH  21  23
ENDBRANCH  18  21
ENDBRANCH   1  17
TORSDOF 6
ENDMDL
MODEL 7
REMARK VINA RESULT:      -8.7      2.700      9.440
REMARK  6 active torsions:
REMARK  status: ('A' for Active; 'I' for Inactive)
REMARK    1  A    between atoms: C_6  and  C_7 
REMARK    2  A    between atoms: C_10  and  O_11 
REMARK    3  A    between atoms: C_15  and  C_16 
REMARK    4  A    between atoms: C_16  and  C_17 
REMARK       I    between atoms: C_17  and  N_18 
REMARK    5  A    between atoms: N_18  and  C_19 
REMARK    6  A    between atoms: C_19  and  C_20 
ROOT
HETATM    1  C   UNL     1      24.958  47.946  50.332  1.00  0.00     0.146 C 
ENDROOT
BRANCH   1   2
HETATM    2  C   UNL     1      25.250  48.833  49.166  1.00  0.00     0.006 A 
HETATM    3  C   UNL     1      26.514  49.224  48.751  1.00  0.00     0.033 A 
HETATM    4  C   UNL     1      27.870  48.920  49.268  1.00  0.00     0.070 C 
HETATM    5  N   UNL     1      26.319  50.025  47.667  1.00  0.00    -0.282 N 
HETATM    6  H   UNL     1      27.018  50.489  47.095  1.00  0.00     0.189 HD
HETATM    7  N   UNL     1      25.035  50.207  47.360  1.00  0.00    -0.173 NA
HETATM    8  C   UNL     1      24.346  49.463  48.243  1.00  0.00     0.096 A 
BRANCH   8   9
HETATM    9  C   UNL     1      22.877  49.430  48.164  1.00  0.00    -0.005 A 
HETATM   10  C   UNL     1      22.156  48.241  48.035  1.00  0.00     0.016 A 
HETATM   11  C   UNL     1      20.757  48.259  47.947  1.00  0.00     0.037 A 
HETATM   12  C   UNL     1      20.056  49.464  47.951  1.00  0.00     0.068 A 
HETATM   13  C   UNL     1      20.761  50.657  48.080  1.00  0.00     0.037 A 
HETATM   14  C   UNL     1      22.157  50.636  48.187  1.00  0.00     0.016 A 
BRANCH  12  15
HETATM   15  O   UNL     1      18.699  49.347  47.834  1.00  0.00    -0.356 OA
HETATM   16  C   UNL     1      18.038  48.637  48.875  1.00  0.00     0.210 C 
ENDBRANCH  12  15
ENDBRANCH   8   9
ENDBRANCH   1   2
BRANCH   1  17
HETATM   17  C   UNL     1      25.082  46.456  50.063  1.00  0.00     0.222 C 
HETATM   18  N   UNL     1      24.118  45.652  50.622  1.00  0.00    -0.350 N 
HETATM   19  H   UNL     1      23.308  46.064  51.069  1.00  0.00     0.163 HD
HETATM   20  O   UNL     1      26.049  46.003  49.452  1.00  0.00    -0.273 OA
BRANCH  18  21
HETATM   21  C   UNL     1      24.264  44.207  50.690  1.00  0.00     0.150 C 
HETATM   22  C   UNL     1      24.421  43.651  49.276  1.00  0.00     0.040 C 
BRANCH  21  23
HETATM   23  C   UNL     1      25.429  43.863  51.565  1.00  0.00     0.127 A 
HETATM   24  N   UNL     1      25.556  44.103  52.856  1.00  0.00    -0.231 NA
HETATM   25  C   UNL     1      26.845  43.755  53.175  1.00  0.00     0.085 A 
HETATM   26  C   UNL     1      27.512  43.250  52.065  1.00  0.00     0.062 A 
HETATM   27  C   UNL     1      27.525  43.862  54.398  1.00  0.00     0.034 A 
HETATM   28  N   UNL     1      26.584  43.308  51.058  1.00  0.00    -0.341 N 
HETATM   29  C   UNL     1      28.842  42.826  52.101  1.00  0.00     0.032 A 
HETATM   30  H   UNL     1      26.728  43.035  50.095  1.00  0.00     0.167 HD
HETATM   31  C   UNL     1      29.507  42.945  53.328  1.00  0.00     0.002 A 
HETATM   32  C   UNL     1      28.863  43.455  54.459  1.00  0.00     0.002 A 
ENDBRANCH  21  23
ENDBRANCH  18  21
ENDBRANCH   1  17
TORSDOF 6
ENDMDL
MODEL 8
REMARK VINA RESULT:      -8.6      3.354      7.655
REMARK  6 active torsions:
REMARK  status: ('A' for Active; 'I' for Inactive)
REMARK    1  A    between atoms: C_6  and  C_7 
REMARK    2  A    between atoms: C_10  and  O_11 
REMARK    3  A    between atoms: C_15  and  C_16 
REMARK    4  A    between atoms: C_16  and  C_17 
REMARK       I    between atoms: C_17  and  N_18 
REMARK    5  A    between atoms: N_18  and  C_19 
REMARK    6  A    between atoms: C_19  and  C_20 
ROOT
HETATM    1  C   UNL     1      29.865  42.649  52.949  1.00  0.00     0.146 C 
ENDROOT
BRANCH   1   2
HETATM    2  C   UNL     1      29.172  43.687  53.771  1.00  0.00     0.006 A 
HETATM    3  C   UNL     1      29.572  44.114  55.028  1.00  0.00     0.033 A 
HETATM    4  C   UNL     1      30.712  43.729  55.894  1.00  0.00     0.070 C 
HETATM    5  N   UNL     1      28.664  45.055  55.408  1.00  0.00    -0.282 N 
HETATM    6  H   UNL     1      28.638  45.593  56.268  1.00  0.00     0.189 HD
HETATM    7  N   UNL     1      27.695  45.255  54.514  1.00  0.00    -0.173 NA
HETATM    8  C   UNL     1      27.992  44.452  53.478  1.00  0.00     0.096 A 
BRANCH   8   9
HETATM    9  C   UNL     1      27.113  44.447  52.297  1.00  0.00    -0.005 A 
HETATM   10  C   UNL     1      27.602  44.564  50.993  1.00  0.00     0.016 A 
HETATM   11  C   UNL     1      26.726  44.571  49.899  1.00  0.00     0.037 A 
HETATM   12  C   UNL     1      25.346  44.497  50.088  1.00  0.00     0.068 A 
HETATM   13  C   UNL     1      24.844  44.379  51.381  1.00  0.00     0.037 A 
HETATM   14  C   UNL     1      25.722  44.353  52.472  1.00  0.00     0.016 A 
BRANCH  12  15
HETATM   15  O   UNL     1      24.601  44.539  48.942  1.00  0.00    -0.356 OA
HETATM   16  C   UNL     1      23.263  45.003  49.080  1.00  0.00     0.210 C 
ENDBRANCH  12  15
ENDBRANCH   8   9
ENDBRANCH   1   2
BRANCH   1  17
HETATM   17  C   UNL     1      29.007  41.466  52.535  1.00  0.00     0.222 C 
HETATM   18  N   UNL     1      28.800  41.303  51.187  1.00  0.00    -0.350 N 
HETATM   19  H   UNL     1      29.311  41.871  50.521  1.00  0.00     0.163 HD
HETATM   20  O   UNL     1      28.459  40.758  53.379  1.00  0.00    -0.273 OA
BRANCH  18  21
HETATM   21  C   UNL     1      27.784  40.403  50.665  1.00  0.00     0.150 C 
HETATM   22  C   UNL     1      26.402  40.978  50.969  1.00  0.00     0.040 C 
BRANCH  21  23
HETATM   23  C   UNL     1      28.002  40.199  49.198  1.00  0.00     0.127 A 
HETATM   24  N   UNL     1      28.074  41.129  48.264  1.00  0.00    -0.231 NA
HETATM   25  C   UNL     1      28.119  40.456  47.070  1.00  0.00     0.085 A 
HETATM   26  C   UNL     1      28.117  39.081  47.274  1.00  0.00     0.062 A 
HETATM   27  C   UNL     1      28.142  40.957  45.760  1.00  0.00     0.034 A 
HETATM   28  N   UNL     1      28.065  38.942  48.637  1.00  0.00    -0.341 N 
HETATM   29  C   UNL     1      28.148  38.153  46.230  1.00  0.00     0.032 A 
HETATM   30  H   UNL     1      28.031  38.070  49.149  1.00  0.00     0.167 HD
HETATM   31  C   UNL     1      28.166  38.672  44.929  1.00  0.00     0.002 A 
HETATM   32  C   UNL     1      28.162  40.049  44.695  1.00  0.00     0.002 A 
ENDBRANCH  21  23
ENDBRANCH  18  21
ENDBRANCH   1  17
TORSDOF 6
ENDMDL
MODEL 9
REMARK VINA RESULT:      -8.5      2.465      7.328
REMARK  6 active torsions:
REMARK  status: ('A' for Active; 'I' for Inactive)
REMARK    1  A    between atoms: C_6  and  C_7 
REMARK    2  A    between atoms: C_10  and  O_11 
REMARK    3  A    between atoms: C_15  and  C_16 
REMARK    4  A    between atoms: C_16  and  C_17 
REMARK       I    between atoms: C_17  and  N_18 
REMARK    5  A    between atoms: N_18  and  C_19 
REMARK    6  A    between atoms: C_19  and  C_20 
ROOT
HETATM    1  C   UNL     1      25.131  43.755  51.572  1.00  0.00     0.146 C 
ENDROOT
BRANCH   1   2
HETATM    2  C   UNL     1      24.974  45.227  51.371  1.00  0.00     0.006 A 
HETATM    3  C   UNL     1      24.230  45.825  50.365  1.00  0.00     0.033 A 
HETATM    4  C   UNL     1      23.415  45.264  49.262  1.00  0.00     0.070 C 
HETATM    5  N   UNL     1      24.364  47.168  50.552  1.00  0.00    -0.282 N 
HETATM    6  H   UNL     1      23.953  47.922  50.009  1.00  0.00     0.189 HD
HETATM    7  N   UNL     1      25.153  47.489  51.577  1.00  0.00    -0.173 NA
HETATM    8  C   UNL     1      25.523  46.320  52.126  1.00  0.00     0.096 A 
BRANCH   8   9
HETATM    9  C   UNL     1      26.398  46.326  53.309  1.00  0.00    -0.005 A 
HETATM   10  C   UNL     1      27.217  45.244  53.646  1.00  0.00     0.016 A 
HETATM   11  C   UNL     1      28.022  45.287  54.792  1.00  0.00     0.037 A 
HETATM   12  C   UNL     1      27.998  46.394  55.641  1.00  0.00     0.068 A 
HETATM   13  C   UNL     1      27.189  47.478  55.318  1.00  0.00     0.037 A 
HETATM   14  C   UNL     1      26.399  47.441  54.162  1.00  0.00     0.016 A 
BRANCH  12  15
HETATM   15  O   UNL     1      28.810  46.301  56.738  1.00  0.00    -0.356 OA
HETATM   16  C   UNL     1      30.042  45.614  56.551  1.00  0.00     0.210 C 
ENDBRANCH  12  15
ENDBRANCH   8   9
ENDBRANCH   1   2
BRANCH   1  17
HETATM   17  C   UNL     1      26.395  43.149  50.986  1.00  0.00     0.222 C 
HETATM   18  N   UNL     1      26.839  41.984  51.563  1.00  0.00    -0.350 N 
HETATM   19  H   UNL     1      26.266  41.505  52.249  1.00  0.00     0.163 HD
HETATM   20  O   UNL     1      27.023  43.732  50.103  1.00  0.00    -0.273 OA
BRANCH  18  21
HETATM   21  C   UNL     1      28.166  41.452  51.304  1.00  0.00     0.150 C 
HETATM   22  C   UNL     1      28.784  40.982  52.619  1.00  0.00     0.040 C 
BRANCH  21  23
HETATM   23  C   UNL     1      28.075  40.348  50.296  1.00  0.00     0.127 A 
HETATM   24  N   UNL     1      28.524  40.360  49.055  1.00  0.00    -0.231 NA
HETATM   25  C   UNL     1      28.069  39.199  48.482  1.00  0.00     0.085 A 
HETATM   26  C   UNL     1      27.360  38.436  49.403  1.00  0.00     0.062 A 
HETATM   27  C   UNL     1      28.208  38.736  47.165  1.00  0.00     0.034 A 
HETATM   28  N   UNL     1      27.396  39.177  50.555  1.00  0.00    -0.341 N 
HETATM   29  C   UNL     1      26.775  37.208  49.087  1.00  0.00     0.032 A 
HETATM   30  H   UNL     1      26.962  38.935  51.437  1.00  0.00     0.167 HD
HETATM   31  C   UNL     1      26.918  36.764  47.766  1.00  0.00     0.002 A 
HETATM   32  C   UNL     1      27.621  37.514  46.819  1.00  0.00     0.002 A 
ENDBRANCH  21  23
ENDBRANCH  18  21
ENDBRANCH   1  17
TORSDOF 6
ENDMDL
MODEL 10
REMARK VINA RESULT:      -8.5      2.737      8.151
REMARK  6 active torsions:
REMARK  status: ('A' for Active; 'I' for Inactive)
REMARK    1  A    between atoms: C_6  and  C_7 
REMARK    2  A    between atoms: C_10  and  O_11 
REMARK    3  A    between atoms: C_15  and  C_16 
REMARK    4  A    between atoms: C_16  and  C_17 
REMARK       I    between atoms: C_17  and  N_18 
REMARK    5  A    between atoms: N_18  and  C_19 
REMARK    6  A    between atoms: C_19  and  C_20 
ROOT
HETATM    1  C   UNL     1      26.967  44.723  50.483  1.00  0.00     0.146 C 
ENDROOT
BRANCH   1   2
HETATM    2  C   UNL     1      25.840  44.199  49.654  1.00  0.00     0.006 A 
HETATM    3  C   UNL     1      24.718  44.920  49.276  1.00  0.00     0.033 A 
HETATM    4  C   UNL     1      24.300  46.319  49.536  1.00  0.00     0.070 C 
HETATM    5  N   UNL     1      23.955  44.065  48.540  1.00  0.00    -0.282 N 
HETATM    6  H   UNL     1      23.063  44.247  48.091  1.00  0.00     0.189 HD
HETATM    7  N   UNL     1      24.476  42.843  48.431  1.00  0.00    -0.173 NA
HETATM    8  C   UNL     1      25.653  42.896  49.078  1.00  0.00     0.096 A 
BRANCH   8   9
HETATM    9  C   UNL     1      26.499  41.693  49.129  1.00  0.00    -0.005 A 
HETATM   10  C   UNL     1      26.381  40.731  50.137  1.00  0.00     0.016 A 
HETATM   11  C   UNL     1      27.221  39.608  50.155  1.00  0.00     0.037 A 
HETATM   12  C   UNL     1      28.214  39.443  49.191  1.00  0.00     0.068 A 
HETATM   13  C   UNL     1      28.343  40.392  48.181  1.00  0.00     0.037 A 
HETATM   14  C   UNL     1      27.491  41.503  48.153  1.00  0.00     0.016 A 
BRANCH  12  15
HETATM   15  O   UNL     1      28.981  38.320  49.335  1.00  0.00    -0.356 OA
HETATM   16  C   UNL     1      29.630  38.160  50.591  1.00  0.00     0.210 C 
ENDBRANCH  12  15
ENDBRANCH   8   9
ENDBRANCH   1   2
BRANCH   1  17
HETATM   17  C   UNL     1      27.120  44.083  51.852  1.00  0.00     0.222 C 
HETATM   18  N   UNL     1      28.308  43.437  52.096  1.00  0.00    -0.350 N 
HETATM   19  H   UNL     1      29.072  43.512  51.435  1.00  0.00     0.163 HD
HETATM   20  O   UNL     1      26.186  44.075  52.653  1.00  0.00    -0.273 OA
BRANCH  18  21
HETATM   21  C   UNL     1      28.483  42.548  53.233  1.00  0.00     0.150 C 
HETATM   22  C   UNL     1      29.235  41.298  52.781  1.00  0.00     0.040 C 
BRANCH  21  23
HETATM   23  C   UNL     1      29.201  43.273  54.329  1.00  0.00     0.127 A 
HETATM   24  N   UNL     1      30.248  42.852  55.013  1.00  0.00    -0.231 NA
HETATM   25  C   UNL     1      30.444  43.781  56.004  1.00  0.00     0.085 A 
HETATM   26  C   UNL     1      29.523  44.817  55.902  1.00  0.00     0.062 A 
HETATM   27  C   UNL     1      31.383  43.793  57.046  1.00  0.00     0.034 A 
HETATM   28  N   UNL     1      28.757  44.484  54.816  1.00  0.00    -0.341 N 
HETATM   29  C   UNL     1      29.486  45.896  56.789  1.00  0.00     0.032 A 
HETATM   30  H   UNL     1      27.970  45.007  54.454  1.00  0.00     0.167 HD
HETATM   31  C   UNL     1      30.428  45.889  57.827  1.00  0.00     0.002 A 
HETATM   32  C   UNL     1      31.360  44.857  57.956  1.00  0.00     0.002 A 
ENDBRANCH  21  23
ENDBRANCH  18  21
ENDBRANCH   1  17
TORSDOF 6
ENDMDL
