MODEL 1
REMARK VINA RESULT:      -9.4      0.000      0.000
REMARK  4 active torsions:
REMARK  status: ('A' for Active; 'I' for Inactive)
REMARK    1  A    between atoms: C_4  and  C_5 
REMARK    2  A    between atoms: C_9  and  C_10 
REMARK       I    between atoms: C_10  and  N_11 
REMARK    3  A    between atoms: C_17  and  O_18 
REMARK    4  A    between atoms: C_25  and  O_26 
ROOT
HETATM    1  C   UNL     1      26.352  44.120  52.181  1.00  0.00     0.065 A 
HETATM    2  N   UNL     1      25.108  43.594  51.954  1.00  0.00    -0.277 N 
HETATM    3  H   UNL     1      24.769  42.673  52.209  1.00  0.00     0.189 HD
HETATM    4  N   UNL     1      24.260  44.435  51.344  1.00  0.00    -0.169 NA
HETATM    5  C   UNL     1      24.980  45.554  51.133  1.00  0.00     0.149 A 
HETATM    6  C   UNL     1      26.298  45.392  51.648  1.00  0.00     0.071 A 
ENDROOT
BRANCH   5   7
HETATM    7  C   UNL     1      24.452  46.773  50.486  1.00  0.00     0.299 C 
HETATM    8  N   UNL     1      23.535  46.512  49.500  1.00  0.00    -0.183 NA
HETATM    9  C   UNL     1      22.723  47.455  49.188  1.00  0.00     0.175 A 
HETATM   10  S   UNL     1      21.527  47.138  47.891  1.00  0.00    -0.050 SA
HETATM   11  N   UNL     1      22.583  48.740  49.659  1.00  0.00    -0.334 N 
HETATM   12  C   UNL     1      20.959  48.825  47.970  1.00  0.00     0.037 A 
HETATM   13  C   UNL     1      21.670  49.525  48.954  1.00  0.00     0.051 A 
HETATM   14  C   UNL     1      19.973  49.433  47.212  1.00  0.00     0.058 A 
HETATM   15  C   UNL     1      21.361  50.847  49.219  1.00  0.00     0.034 A 
HETATM   16  C   UNL     1      20.363  51.476  48.461  1.00  0.00     0.039 A 
HETATM   17  C   UNL     1      19.672  50.776  47.458  1.00  0.00     0.069 A 
HETATM   18  H   UNL     1      23.322  49.148  50.218  1.00  0.00     0.168 HD
HETATM   19  O   UNL     1      24.824  47.897  50.824  1.00  0.00    -0.263 OA
BRANCH  17  20
HETATM   20  O   UNL     1      18.683  51.288  46.662  1.00  0.00    -0.356 OA
HETATM   21  C   UNL     1      18.465  50.650  45.410  1.00  0.00     0.210 C 
ENDBRANCH  17  20
ENDBRANCH   5   7
BRANCH   1  22
HETATM   22  C   UNL     1      27.425  43.384  52.845  1.00  0.00     0.026 A 
HETATM   23  C   UNL     1      28.278  44.064  53.732  1.00  0.00     0.023 A 
HETATM   24  C   UNL     1      29.319  43.396  54.396  1.00  0.00    -0.061 A 
HETATM   25  C   UNL     1      30.200  44.128  55.364  1.00  0.00     0.048 C 
HETATM   26  C   UNL     1      29.485  42.022  54.194  1.00  0.00     0.009 A 
HETATM   27  C   UNL     1      28.646  41.334  53.319  1.00  0.00     0.038 A 
HETATM   28  C   UNL     1      27.633  42.011  52.645  1.00  0.00     0.078 A 
BRANCH  28  29
HETATM   29  O   UNL     1      26.891  41.259  51.774  1.00  0.00    -0.360 OA
HETATM   30  H   UNL     1      27.496  40.830  51.147  1.00  0.00     0.217 HD
ENDBRANCH  28  29
ENDBRANCH   1  22
TORSDOF 4
ENDMDL
MODEL 2
REMARK VINA RESULT:      -9.3      2.469     10.568
REMARK  4 active torsions:
REMARK  status: ('A' for Active; 'I' for Inactive)
REMARK    1  A    between atoms: C_4  and  C_5 
REMARK    2  A    between atoms: C_9  and  C_10 
REMARK       I    between atoms: C_10  and  N_11 
REMARK    3  A    between atoms: C_17  and  O_18 
REMARK    4  A    between atoms: C_25  and  O_26 
ROOT
HETATM    1  C   UNL     1      22.471  48.086  49.035  1.00  0.00     0.065 A 
HETATM    2  N   UNL     1      22.156  46.774  48.802  1.00  0.00    -0.277 N 
HETATM    3  H   UNL     1      21.298  46.404  48.406  1.00  0.00     0.189 HD
HETATM    4  N   UNL     1      23.129  45.909  49.124  1.00  0.00    -0.169 NA
HETATM    5  C   UNL     1      24.120  46.678  49.617  1.00  0.00     0.149 A 
HETATM    6  C   UNL     1      23.742  48.050  49.574  1.00  0.00     0.071 A 
ENDROOT
BRANCH   5   7
HETATM    7  C   UNL     1      25.415  46.157  50.100  1.00  0.00     0.299 C 
HETATM    8  N   UNL     1      25.627  46.382  51.437  1.00  0.00    -0.183 NA
HETATM    9  C   UNL     1      26.474  45.625  52.033  1.00  0.00     0.175 A 
HETATM   10  S   UNL     1      26.777  45.913  53.776  1.00  0.00    -0.050 SA
HETATM   11  N   UNL     1      27.256  44.587  51.581  1.00  0.00    -0.334 N 
HETATM   12  C   UNL     1      28.052  44.669  53.785  1.00  0.00     0.037 A 
HETATM   13  C   UNL     1      28.177  44.100  52.510  1.00  0.00     0.051 A 
HETATM   14  C   UNL     1      28.846  44.264  54.844  1.00  0.00     0.058 A 
HETATM   15  C   UNL     1      29.081  43.075  52.297  1.00  0.00     0.034 A 
HETATM   16  C   UNL     1      29.891  42.654  53.361  1.00  0.00     0.039 A 
HETATM   17  C   UNL     1      29.779  43.245  54.631  1.00  0.00     0.069 A 
HETATM   18  H   UNL     1      27.378  44.452  50.585  1.00  0.00     0.168 HD
HETATM   19  O   UNL     1      26.202  45.583  49.348  1.00  0.00    -0.263 OA
BRANCH  17  20
HETATM   20  O   UNL     1      30.516  42.912  55.735  1.00  0.00    -0.356 OA
HETATM   21  C   UNL     1      31.226  43.963  56.380  1.00  0.00     0.210 C 
ENDBRANCH  17  20
ENDBRANCH   5   7
BRANCH   1  22
HETATM   22  C   UNL     1      21.565  49.193  48.743  1.00  0.00     0.026 A 
HETATM   23  C   UNL     1      20.728  49.117  47.617  1.00  0.00     0.023 A 
HETATM   24  C   UNL     1      19.838  50.156  47.299  1.00  0.00    -0.061 A 
HETATM   25  C   UNL     1      18.928  50.046  46.112  1.00  0.00     0.048 C 
HETATM   26  C   UNL     1      19.763  51.269  48.142  1.00  0.00     0.009 A 
HETATM   27  C   UNL     1      20.586  51.358  49.264  1.00  0.00     0.038 A 
HETATM   28  C   UNL     1      21.484  50.335  49.555  1.00  0.00     0.078 A 
BRANCH  28  29
HETATM   29  O   UNL     1      22.280  50.534  50.651  1.00  0.00    -0.360 OA
HETATM   30  H   UNL     1      22.398  49.682  51.103  1.00  0.00     0.217 HD
ENDBRANCH  28  29
ENDBRANCH   1  22
TORSDOF 4
ENDMDL
MODEL 3
REMARK VINA RESULT:      -8.8      1.267      1.546
REMARK  4 active torsions:
REMARK  status: ('A' for Active; 'I' for Inactive)
REMARK    1  A    between atoms: C_4  and  C_5 
REMARK    2  A    between atoms: C_9  and  C_10 
REMARK       I    between atoms: C_10  and  N_11 
REMARK    3  A    between atoms: C_17  and  O_18 
REMARK    4  A    between atoms: C_25  and  O_26 
ROOT
HETATM    1  C   UNL     1      27.253  44.530  52.692  1.00  0.00     0.065 A 
HETATM    2  N   UNL     1      26.257  43.651  52.358  1.00  0.00    -0.277 N 
HETATM    3  H   UNL     1      26.176  42.676  52.627  1.00  0.00     0.189 HD
HETATM    4  N   UNL     1      25.282  44.185  51.609  1.00  0.00    -0.169 NA
HETATM    5  C   UNL     1      25.660  45.464  51.415  1.00  0.00     0.149 A 
HETATM    6  C   UNL     1      26.893  45.716  52.083  1.00  0.00     0.071 A 
ENDROOT
BRANCH   5   7
HETATM    7  C   UNL     1      24.882  46.454  50.642  1.00  0.00     0.299 C 
HETATM    8  N   UNL     1      24.187  45.902  49.596  1.00  0.00    -0.183 NA
HETATM    9  C   UNL     1      23.179  46.558  49.149  1.00  0.00     0.175 A 
HETATM   10  S   UNL     1      22.268  45.862  47.772  1.00  0.00    -0.050 SA
HETATM   11  N   UNL     1      22.632  47.765  49.519  1.00  0.00    -0.334 N 
HETATM   12  C   UNL     1      21.240  47.315  47.686  1.00  0.00     0.037 A 
HETATM   13  C   UNL     1      21.614  48.227  48.682  1.00  0.00     0.051 A 
HETATM   14  C   UNL     1      20.209  47.584  46.803  1.00  0.00     0.058 A 
HETATM   15  C   UNL     1      20.917  49.413  48.830  1.00  0.00     0.034 A 
HETATM   16  C   UNL     1      19.869  49.698  47.943  1.00  0.00     0.039 A 
HETATM   17  C   UNL     1      19.515  48.791  46.930  1.00  0.00     0.069 A 
HETATM   18  H   UNL     1      23.160  48.390  50.115  1.00  0.00     0.168 HD
HETATM   19  O   UNL     1      24.882  47.648  50.937  1.00  0.00    -0.263 OA
BRANCH  17  20
HETATM   20  O   UNL     1      18.513  48.967  46.015  1.00  0.00    -0.356 OA
HETATM   21  C   UNL     1      18.138  50.306  45.715  1.00  0.00     0.210 C 
ENDBRANCH  17  20
ENDBRANCH   5   7
BRANCH   1  22
HETATM   22  C   UNL     1      28.403  44.165  53.514  1.00  0.00     0.026 A 
HETATM   23  C   UNL     1      28.685  44.910  54.672  1.00  0.00     0.023 A 
HETATM   24  C   UNL     1      29.778  44.592  55.494  1.00  0.00    -0.061 A 
HETATM   25  C   UNL     1      30.047  45.378  56.744  1.00  0.00     0.048 C 
HETATM   26  C   UNL     1      30.577  43.492  55.169  1.00  0.00     0.009 A 
HETATM   27  C   UNL     1      30.309  42.742  54.025  1.00  0.00     0.038 A 
HETATM   28  C   UNL     1      29.239  43.082  53.202  1.00  0.00     0.078 A 
BRANCH  28  29
HETATM   29  O   UNL     1      29.084  42.314  52.079  1.00  0.00    -0.360 OA
HETATM   30  H   UNL     1      29.658  42.671  51.381  1.00  0.00     0.217 HD
ENDBRANCH  28  29
ENDBRANCH   1  22
TORSDOF 4
ENDMDL
MODEL 4
REMARK VINA RESULT:      -8.8      2.169      3.290
REMARK  4 active torsions:
REMARK  status: ('A' for Active; 'I' for Inactive)
REMARK    1  A    between atoms: C_4  and  C_5 
REMARK    2  A    between atoms: C_9  and  C_10 
REMARK       I    between atoms: C_10  and  N_11 
REMARK    3  A    between atoms: C_17  and  O_18 
REMARK    4  A    between atoms: C_25  and  O_26 
ROOT
HETATM    1  C   UNL     1      28.216  44.229  53.431  1.00  0.00     0.065 A 
HETATM    2  N   UNL     1      28.500  43.757  52.177  1.00  0.00    -0.277 N 
HETATM    3  H   UNL     1      29.372  43.355  51.849  1.00  0.00     0.189 HD
HETATM    4  N   UNL     1      27.473  43.828  51.317  1.00  0.00    -0.169 NA
HETATM    5  C   UNL     1      26.475  44.396  52.023  1.00  0.00     0.149 A 
HETATM    6  C   UNL     1      26.906  44.659  53.355  1.00  0.00     0.071 A 
ENDROOT
BRANCH   5   7
HETATM    7  C   UNL     1      25.128  44.671  51.484  1.00  0.00     0.299 C 
HETATM    8  N   UNL     1      25.001  45.930  50.954  1.00  0.00    -0.183 NA
HETATM    9  C   UNL     1      24.059  46.118  50.104  1.00  0.00     0.175 A 
HETATM   10  S   UNL     1      23.867  47.760  49.412  1.00  0.00    -0.050 SA
HETATM   11  N   UNL     1      23.099  45.274  49.595  1.00  0.00    -0.334 N 
HETATM   12  C   UNL     1      22.401  47.247  48.538  1.00  0.00     0.037 A 
HETATM   13  C   UNL     1      22.140  45.894  48.792  1.00  0.00     0.051 A 
HETATM   14  C   UNL     1      21.586  48.004  47.714  1.00  0.00     0.058 A 
HETATM   15  C   UNL     1      21.069  45.270  48.177  1.00  0.00     0.034 A 
HETATM   16  C   UNL     1      20.236  46.023  47.339  1.00  0.00     0.039 A 
HETATM   17  C   UNL     1      20.488  47.387  47.109  1.00  0.00     0.069 A 
HETATM   18  H   UNL     1      22.923  44.387  50.052  1.00  0.00     0.168 HD
HETATM   19  O   UNL     1      24.230  43.830  51.525  1.00  0.00    -0.263 OA
BRANCH  17  20
HETATM   20  O   UNL     1      19.743  48.214  46.312  1.00  0.00    -0.356 OA
HETATM   21  C   UNL     1      19.323  49.450  46.876  1.00  0.00     0.210 C 
ENDBRANCH  17  20
ENDBRANCH   5   7
BRANCH   1  22
HETATM   22  C   UNL     1      29.182  44.231  54.525  1.00  0.00     0.026 A 
HETATM   23  C   UNL     1      29.023  45.144  55.582  1.00  0.00     0.023 A 
HETATM   24  C   UNL     1      29.925  45.179  56.656  1.00  0.00    -0.061 A 
HETATM   25  C   UNL     1      29.723  46.138  57.792  1.00  0.00     0.048 C 
HETATM   26  C   UNL     1      30.982  44.264  56.688  1.00  0.00     0.009 A 
HETATM   27  C   UNL     1      31.152  43.350  55.649  1.00  0.00     0.038 A 
HETATM   28  C   UNL     1      30.267  43.342  54.574  1.00  0.00     0.078 A 
BRANCH  28  29
HETATM   29  O   UNL     1      30.543  42.441  53.582  1.00  0.00    -0.360 OA
HETATM   30  H   UNL     1      31.461  42.140  53.687  1.00  0.00     0.217 HD
ENDBRANCH  28  29
ENDBRANCH   1  22
TORSDOF 4
ENDMDL
MODEL 5
REMARK VINA RESULT:      -8.6      7.612      9.550
REMARK  4 active torsions:
REMARK  status: ('A' for Active; 'I' for Inactive)
REMARK    1  A    between atoms: C_4  and  C_5 
REMARK    2  A    between atoms: C_9  and  C_10 
REMARK       I    between atoms: C_10  and  N_11 
REMARK    3  A    between atoms: C_17  and  O_18 
REMARK    4  A    between atoms: C_25  and  O_26 
ROOT
HETATM    1  C   UNL     1      28.903  43.358  53.370  1.00  0.00     0.065 A 
HETATM    2  N   UNL     1      28.175  44.031  52.425  1.00  0.00    -0.277 N 
HETATM    3  H   UNL     1      27.905  45.009  52.431  1.00  0.00     0.189 HD
HETATM    4  N   UNL     1      27.817  43.282  51.372  1.00  0.00    -0.169 NA
HETATM    5  C   UNL     1      28.304  42.055  51.643  1.00  0.00     0.149 A 
HETATM    6  C   UNL     1      28.994  42.067  52.889  1.00  0.00     0.071 A 
ENDROOT
BRANCH   5   7
HETATM    7  C   UNL     1      28.159  40.886  50.751  1.00  0.00     0.299 C 
HETATM    8  N   UNL     1      27.543  41.184  49.561  1.00  0.00    -0.183 NA
HETATM    9  C   UNL     1      27.750  40.386  48.578  1.00  0.00     0.175 A 
HETATM   10  S   UNL     1      26.942  40.748  47.019  1.00  0.00    -0.050 SA
HETATM   11  N   UNL     1      28.493  39.233  48.470  1.00  0.00    -0.334 N 
HETATM   12  C   UNL     1      27.568  39.235  46.316  1.00  0.00     0.037 A 
HETATM   13  C   UNL     1      28.346  38.553  47.260  1.00  0.00     0.051 A 
HETATM   14  C   UNL     1      27.364  38.735  45.041  1.00  0.00     0.058 A 
HETATM   15  C   UNL     1      28.971  37.369  46.913  1.00  0.00     0.034 A 
HETATM   16  C   UNL     1      28.776  36.850  45.626  1.00  0.00     0.039 A 
HETATM   17  C   UNL     1      27.973  37.526  44.691  1.00  0.00     0.069 A 
HETATM   18  H   UNL     1      28.816  38.769  49.310  1.00  0.00     0.168 HD
HETATM   19  O   UNL     1      28.561  39.770  51.077  1.00  0.00    -0.263 OA
BRANCH  17  20
HETATM   20  O   UNL     1      27.716  37.113  43.412  1.00  0.00    -0.356 OA
HETATM   21  C   UNL     1      27.779  38.100  42.389  1.00  0.00     0.210 C 
ENDBRANCH  17  20
ENDBRANCH   5   7
BRANCH   1  22
HETATM   22  C   UNL     1      29.408  43.984  54.588  1.00  0.00     0.026 A 
HETATM   23  C   UNL     1      30.458  43.370  55.293  1.00  0.00     0.023 A 
HETATM   24  C   UNL     1      30.978  43.938  56.466  1.00  0.00    -0.061 A 
HETATM   25  C   UNL     1      32.121  43.287  57.189  1.00  0.00     0.048 C 
HETATM   26  C   UNL     1      30.462  45.155  56.920  1.00  0.00     0.009 A 
HETATM   27  C   UNL     1      29.422  45.778  56.232  1.00  0.00     0.038 A 
HETATM   28  C   UNL     1      28.895  45.192  55.083  1.00  0.00     0.078 A 
BRANCH  28  29
HETATM   29  O   UNL     1      27.847  45.855  54.504  1.00  0.00    -0.360 OA
HETATM   30  H   UNL     1      27.373  45.235  53.926  1.00  0.00     0.217 HD
ENDBRANCH  28  29
ENDBRANCH   1  22
TORSDOF 4
ENDMDL
MODEL 6
REMARK VINA RESULT:      -8.4      2.290      2.924
REMARK  4 active torsions:
REMARK  status: ('A' for Active; 'I' for Inactive)
REMARK    1  A    between atoms: C_4  and  C_5 
REMARK    2  A    between atoms: C_9  and  C_10 
REMARK       I    between atoms: C_10  and  N_11 
REMARK    3  A    between atoms: C_17  and  O_18 
REMARK    4  A    between atoms: C_25  and  O_26 
ROOT
HETATM    1  C   UNL     1      25.975  46.464  50.512  1.00  0.00     0.065 A 
HETATM    2  N   UNL     1      26.847  47.350  49.936  1.00  0.00    -0.277 N 
HETATM    3  H   UNL     1      27.859  47.291  49.905  1.00  0.00     0.189 HD
HETATM    4  N   UNL     1      26.254  48.390  49.332  1.00  0.00    -0.169 NA
HETATM    5  C   UNL     1      24.936  48.200  49.539  1.00  0.00     0.149 A 
HETATM    6  C   UNL     1      24.724  46.999  50.275  1.00  0.00     0.071 A 
ENDROOT
BRANCH   5   7
HETATM    7  C   UNL     1      23.877  49.103  49.042  1.00  0.00     0.299 C 
HETATM    8  N   UNL     1      22.741  48.443  48.647  1.00  0.00    -0.183 NA
HETATM    9  C   UNL     1      21.651  49.118  48.616  1.00  0.00     0.175 A 
HETATM   10  S   UNL     1      20.158  48.277  48.088  1.00  0.00    -0.050 SA
HETATM   11  N   UNL     1      21.376  50.435  48.905  1.00  0.00    -0.334 N 
HETATM   12  C   UNL     1      19.240  49.802  48.176  1.00  0.00     0.037 A 
HETATM   13  C   UNL     1      20.077  50.842  48.601  1.00  0.00     0.051 A 
HETATM   14  C   UNL     1      17.903  50.014  47.886  1.00  0.00     0.058 A 
HETATM   15  C   UNL     1      19.560  52.113  48.784  1.00  0.00     0.034 A 
HETATM   16  C   UNL     1      18.208  52.343  48.496  1.00  0.00     0.039 A 
HETATM   17  C   UNL     1      17.379  51.301  48.045  1.00  0.00     0.069 A 
HETATM   18  H   UNL     1      22.139  51.095  48.990  1.00  0.00     0.168 HD
HETATM   19  O   UNL     1      24.034  50.323  49.000  1.00  0.00    -0.263 OA
BRANCH  17  20
HETATM   20  O   UNL     1      16.051  51.413  47.736  1.00  0.00    -0.356 OA
HETATM   21  C   UNL     1      15.518  50.465  46.819  1.00  0.00     0.210 C 
ENDBRANCH  17  20
ENDBRANCH   5   7
BRANCH   1  22
HETATM   22  C   UNL     1      26.404  45.255  51.208  1.00  0.00     0.026 A 
HETATM   23  C   UNL     1      26.315  45.199  52.610  1.00  0.00     0.023 A 
HETATM   24  C   UNL     1      26.711  44.056  53.320  1.00  0.00    -0.061 A 
HETATM   25  C   UNL     1      26.580  44.001  54.814  1.00  0.00     0.048 C 
HETATM   26  C   UNL     1      27.171  42.940  52.613  1.00  0.00     0.009 A 
HETATM   27  C   UNL     1      27.263  42.978  51.223  1.00  0.00     0.038 A 
HETATM   28  C   UNL     1      26.892  44.128  50.529  1.00  0.00     0.078 A 
BRANCH  28  29
HETATM   29  O   UNL     1      27.061  44.085  49.172  1.00  0.00    -0.360 OA
HETATM   30  H   UNL     1      26.575  43.318  48.826  1.00  0.00     0.217 HD
ENDBRANCH  28  29
ENDBRANCH   1  22
TORSDOF 4
ENDMDL
MODEL 7
REMARK VINA RESULT:      -8.4      2.552      3.557
REMARK  4 active torsions:
REMARK  status: ('A' for Active; 'I' for Inactive)
REMARK    1  A    between atoms: C_4  and  C_5 
REMARK    2  A    between atoms: C_9  and  C_10 
REMARK       I    between atoms: C_10  and  N_11 
REMARK    3  A    between atoms: C_17  and  O_18 
REMARK    4  A    between atoms: C_25  and  O_26 
ROOT
HETATM    1  C   UNL     1      28.017  45.332  54.350  1.00  0.00     0.065 A 
HETATM    2  N   UNL     1      27.658  44.207  53.657  1.00  0.00    -0.277 N 
HETATM    3  H   UNL     1      27.894  43.243  53.874  1.00  0.00     0.189 HD
HETATM    4  N   UNL     1      26.883  44.444  52.588  1.00  0.00    -0.169 NA
HETATM    5  C   UNL     1      26.747  45.784  52.555  1.00  0.00     0.149 A 
HETATM    6  C   UNL     1      27.444  46.373  53.649  1.00  0.00     0.071 A 
ENDROOT
BRANCH   5   7
HETATM    7  C   UNL     1      25.960  46.515  51.541  1.00  0.00     0.299 C 
HETATM    8  N   UNL     1      25.337  45.691  50.639  1.00  0.00    -0.183 NA
HETATM    9  C   UNL     1      24.322  46.166  50.014  1.00  0.00     0.175 A 
HETATM   10  S   UNL     1      23.503  45.110  48.818  1.00  0.00    -0.050 SA
HETATM   11  N   UNL     1      23.705  47.395  50.062  1.00  0.00    -0.334 N 
HETATM   12  C   UNL     1      22.416  46.442  48.350  1.00  0.00     0.037 A 
HETATM   13  C   UNL     1      22.706  47.586  49.106  1.00  0.00     0.051 A 
HETATM   14  C   UNL     1      21.414  46.435  47.395  1.00  0.00     0.058 A 
HETATM   15  C   UNL     1      21.951  48.734  48.939  1.00  0.00     0.034 A 
HETATM   16  C   UNL     1      20.932  48.740  47.977  1.00  0.00     0.039 A 
HETATM   17  C   UNL     1      20.663  47.598  47.203  1.00  0.00     0.069 A 
HETATM   18  H   UNL     1      24.179  48.172  50.505  1.00  0.00     0.168 HD
HETATM   19  O   UNL     1      25.894  47.744  51.537  1.00  0.00    -0.263 OA
BRANCH  17  20
HETATM   20  O   UNL     1      19.695  47.494  46.241  1.00  0.00    -0.356 OA
HETATM   21  C   UNL     1      18.729  46.463  46.405  1.00  0.00     0.210 C 
ENDBRANCH  17  20
ENDBRANCH   5   7
BRANCH   1  22
HETATM   22  C   UNL     1      28.843  45.303  55.554  1.00  0.00     0.026 A 
HETATM   23  C   UNL     1      29.922  44.405  55.626  1.00  0.00     0.023 A 
HETATM   24  C   UNL     1      30.745  44.346  56.762  1.00  0.00    -0.061 A 
HETATM   25  C   UNL     1      31.912  43.404  56.810  1.00  0.00     0.048 C 
HETATM   26  C   UNL     1      30.503  45.222  57.824  1.00  0.00     0.009 A 
HETATM   27  C   UNL     1      29.438  46.120  57.767  1.00  0.00     0.038 A 
HETATM   28  C   UNL     1      28.612  46.152  56.647  1.00  0.00     0.078 A 
BRANCH  28  29
HETATM   29  O   UNL     1      27.567  47.035  56.703  1.00  0.00    -0.360 OA
HETATM   30  H   UNL     1      27.886  47.906  56.417  1.00  0.00     0.217 HD
ENDBRANCH  28  29
ENDBRANCH   1  22
TORSDOF 4
ENDMDL
MODEL 8
REMARK VINA RESULT:      -8.3      3.532      4.015
REMARK  4 active torsions:
REMARK  status: ('A' for Active; 'I' for Inactive)
REMARK    1  A    between atoms: C_4  and  C_5 
REMARK    2  A    between atoms: C_9  and  C_10 
REMARK       I    between atoms: C_10  and  N_11 
REMARK    3  A    between atoms: C_17  and  O_18 
REMARK    4  A    between atoms: C_25  and  O_26 
ROOT
HETATM    1  C   UNL     1      27.918  43.988  52.745  1.00  0.00     0.065 A 
HETATM    2  N   UNL     1      27.936  43.020  51.776  1.00  0.00    -0.277 N 
HETATM    3  H   UNL     1      28.580  42.240  51.691  1.00  0.00     0.189 HD
HETATM    4  N   UNL     1      26.957  43.135  50.867  1.00  0.00    -0.169 NA
HETATM    5  C   UNL     1      26.279  44.241  51.232  1.00  0.00     0.149 A 
HETATM    6  C   UNL     1      26.854  44.801  52.409  1.00  0.00     0.071 A 
ENDROOT
BRANCH   5   7
HETATM    7  C   UNL     1      25.096  44.765  50.519  1.00  0.00     0.299 C 
HETATM    8  N   UNL     1      24.854  44.130  49.328  1.00  0.00    -0.183 NA
HETATM    9  C   UNL     1      23.661  44.196  48.859  1.00  0.00     0.175 A 
HETATM   10  S   UNL     1      23.328  43.385  47.295  1.00  0.00    -0.050 SA
HETATM   11  N   UNL     1      22.522  44.810  49.327  1.00  0.00    -0.334 N 
HETATM   12  C   UNL     1      21.664  44.022  47.293  1.00  0.00     0.037 A 
HETATM   13  C   UNL     1      21.440  44.784  48.447  1.00  0.00     0.051 A 
HETATM   14  C   UNL     1      20.679  43.840  46.337  1.00  0.00     0.058 A 
HETATM   15  C   UNL     1      20.194  45.341  48.675  1.00  0.00     0.034 A 
HETATM   16  C   UNL     1      19.186  45.164  47.717  1.00  0.00     0.039 A 
HETATM   17  C   UNL     1      19.425  44.420  46.549  1.00  0.00     0.069 A 
HETATM   18  H   UNL     1      22.596  45.498  50.067  1.00  0.00     0.168 HD
HETATM   19  O   UNL     1      24.418  45.684  50.979  1.00  0.00    -0.263 OA
BRANCH  17  20
HETATM   20  O   UNL     1      18.517  44.184  45.552  1.00  0.00    -0.356 OA
HETATM   21  C   UNL     1      17.149  44.440  45.849  1.00  0.00     0.210 C 
ENDBRANCH  17  20
ENDBRANCH   5   7
BRANCH   1  22
HETATM   22  C   UNL     1      28.882  44.044  53.841  1.00  0.00     0.026 A 
HETATM   23  C   UNL     1      28.684  44.965  54.884  1.00  0.00     0.023 A 
HETATM   24  C   UNL     1      29.583  45.050  55.959  1.00  0.00    -0.061 A 
HETATM   25  C   UNL     1      29.341  46.017  57.081  1.00  0.00     0.048 C 
HETATM   26  C   UNL     1      30.674  44.177  56.006  1.00  0.00     0.009 A 
HETATM   27  C   UNL     1      30.882  43.257  54.980  1.00  0.00     0.038 A 
HETATM   28  C   UNL     1      30.000  43.198  53.904  1.00  0.00     0.078 A 
BRANCH  28  29
HETATM   29  O   UNL     1      30.313  42.294  52.926  1.00  0.00    -0.360 OA
HETATM   30  H   UNL     1      31.241  42.031  53.037  1.00  0.00     0.217 HD
ENDBRANCH  28  29
ENDBRANCH   1  22
TORSDOF 4
ENDMDL
MODEL 9
REMARK VINA RESULT:      -8.3      2.646      4.243
REMARK  4 active torsions:
REMARK  status: ('A' for Active; 'I' for Inactive)
REMARK    1  A    between atoms: C_4  and  C_5 
REMARK    2  A    between atoms: C_9  and  C_10 
REMARK       I    between atoms: C_10  and  N_11 
REMARK    3  A    between atoms: C_17  and  O_18 
REMARK    4  A    between atoms: C_25  and  O_26 
ROOT
HETATM    1  C   UNL     1      28.432  44.379  54.024  1.00  0.00     0.065 A 
HETATM    2  N   UNL     1      28.952  43.807  52.892  1.00  0.00    -0.277 N 
HETATM    3  H   UNL     1      29.905  43.495  52.738  1.00  0.00     0.189 HD
HETATM    4  N   UNL     1      28.061  43.634  51.906  1.00  0.00    -0.169 NA
HETATM    5  C   UNL     1      26.909  44.136  52.393  1.00  0.00     0.149 A 
HETATM    6  C   UNL     1      27.106  44.611  53.721  1.00  0.00     0.071 A 
ENDROOT
BRANCH   5   7
HETATM    7  C   UNL     1      25.631  44.157  51.652  1.00  0.00     0.299 C 
HETATM    8  N   UNL     1      25.264  45.411  51.236  1.00  0.00    -0.183 NA
HETATM    9  C   UNL     1      24.443  45.487  50.253  1.00  0.00     0.175 A 
HETATM   10  S   UNL     1      23.939  47.118  49.704  1.00  0.00    -0.050 SA
HETATM   11  N   UNL     1      23.819  44.519  49.500  1.00  0.00    -0.334 N 
HETATM   12  C   UNL     1      22.801  46.399  48.536  1.00  0.00     0.037 A 
HETATM   13  C   UNL     1      22.863  45.001  48.604  1.00  0.00     0.051 A 
HETATM   14  C   UNL     1      21.950  47.049  47.659  1.00  0.00     0.058 A 
HETATM   15  C   UNL     1      22.093  44.234  47.749  1.00  0.00     0.034 A 
HETATM   16  C   UNL     1      21.227  44.878  46.854  1.00  0.00     0.039 A 
HETATM   17  C   UNL     1      21.150  46.280  46.809  1.00  0.00     0.069 A 
HETATM   18  H   UNL     1      23.812  43.561  49.828  1.00  0.00     0.168 HD
HETATM   19  O   UNL     1      24.985  43.129  51.448  1.00  0.00    -0.263 OA
BRANCH  17  20
HETATM   20  O   UNL     1      20.344  47.010  45.977  1.00  0.00    -0.356 OA
HETATM   21  C   UNL     1      19.426  47.907  46.591  1.00  0.00     0.210 C 
ENDBRANCH  17  20
ENDBRANCH   5   7
BRANCH   1  22
HETATM   22  C   UNL     1      29.221  44.643  55.223  1.00  0.00     0.026 A 
HETATM   23  C   UNL     1      30.249  43.754  55.581  1.00  0.00     0.023 A 
HETATM   24  C   UNL     1      31.035  43.971  56.723  1.00  0.00    -0.061 A 
HETATM   25  C   UNL     1      32.149  43.029  57.074  1.00  0.00     0.048 C 
HETATM   26  C   UNL     1      30.811  45.113  57.498  1.00  0.00     0.009 A 
HETATM   27  C   UNL     1      29.797  46.007  57.155  1.00  0.00     0.038 A 
HETATM   28  C   UNL     1      29.005  45.768  56.035  1.00  0.00     0.078 A 
BRANCH  28  29
HETATM   29  O   UNL     1      28.007  46.676  55.806  1.00  0.00    -0.360 OA
HETATM   30  H   UNL     1      27.906  46.787  54.846  1.00  0.00     0.217 HD
ENDBRANCH  28  29
ENDBRANCH   1  22
TORSDOF 4
ENDMDL
MODEL 10
REMARK VINA RESULT:      -8.0      2.049      2.807
REMARK  4 active torsions:
REMARK  status: ('A' for Active; 'I' for Inactive)
REMARK    1  A    between atoms: C_4  and  C_5 
REMARK    2  A    between atoms: C_9  and  C_10 
REMARK       I    between atoms: C_10  and  N_11 
REMARK    3  A    between atoms: C_17  and  O_18 
REMARK    4  A    between atoms: C_25  and  O_26 
ROOT
HETATM    1  C   UNL     1      25.982  44.629  50.545  1.00  0.00     0.065 A 
HETATM    2  N   UNL     1      26.225  45.494  51.579  1.00  0.00    -0.277 N 
HETATM    3  H   UNL     1      26.781  45.323  52.411  1.00  0.00     0.189 HD
HETATM    4  N   UNL     1      25.669  46.704  51.425  1.00  0.00    -0.169 NA
HETATM    5  C   UNL     1      25.007  46.629  50.254  1.00  0.00     0.149 A 
HETATM    6  C   UNL     1      25.184  45.341  49.673  1.00  0.00     0.071 A 
ENDROOT
BRANCH   5   7
HETATM    7  C   UNL     1      24.238  47.743  49.660  1.00  0.00     0.299 C 
HETATM    8  N   UNL     1      23.132  47.329  48.963  1.00  0.00    -0.183 NA
HETATM    9  C   UNL     1      22.193  48.185  48.788  1.00  0.00     0.175 A 
HETATM   10  S   UNL     1      20.746  47.668  47.865  1.00  0.00    -0.050 SA
HETATM   11  N   UNL     1      22.067  49.501  49.170  1.00  0.00    -0.334 N 
HETATM   12  C   UNL     1      20.077  49.318  47.944  1.00  0.00     0.037 A 
HETATM   13  C   UNL     1      20.947  50.156  48.654  1.00  0.00     0.051 A 
HETATM   14  C   UNL     1      18.888  49.786  47.411  1.00  0.00     0.058 A 
HETATM   15  C   UNL     1      20.605  51.477  48.877  1.00  0.00     0.034 A 
HETATM   16  C   UNL     1      19.403  51.965  48.345  1.00  0.00     0.039 A 
HETATM   17  C   UNL     1      18.547  51.127  47.611  1.00  0.00     0.069 A 
HETATM   18  H   UNL     1      22.884  50.008  49.489  1.00  0.00     0.168 HD
HETATM   19  O   UNL     1      24.587  48.915  49.798  1.00  0.00    -0.263 OA
BRANCH  17  20
HETATM   20  O   UNL     1      17.354  51.497  47.050  1.00  0.00    -0.356 OA
HETATM   21  C   UNL     1      17.366  51.832  45.668  1.00  0.00     0.210 C 
ENDBRANCH  17  20
ENDBRANCH   5   7
BRANCH   1  22
HETATM   22  C   UNL     1      26.505  43.266  50.499  1.00  0.00     0.026 A 
HETATM   23  C   UNL     1      26.851  42.704  49.258  1.00  0.00     0.023 A 
HETATM   24  C   UNL     1      27.361  41.399  49.167  1.00  0.00    -0.061 A 
HETATM   25  C   UNL     1      27.755  40.824  47.838  1.00  0.00     0.048 C 
HETATM   26  C   UNL     1      27.559  40.662  50.338  1.00  0.00     0.009 A 
HETATM   27  C   UNL     1      27.223  41.207  51.577  1.00  0.00     0.038 A 
HETATM   28  C   UNL     1      26.692  42.492  51.654  1.00  0.00     0.078 A 
BRANCH  28  29
HETATM   29  O   UNL     1      26.352  42.922  52.908  1.00  0.00    -0.360 OA
HETATM   30  H   UNL     1      26.035  43.838  52.843  1.00  0.00     0.217 HD
ENDBRANCH  28  29
ENDBRANCH   1  22
TORSDOF 4
ENDMDL
