MODEL 1
REMARK VINA RESULT:      -9.7      0.000      0.000
REMARK  6 active torsions:
REMARK  status: ('A' for Active; 'I' for Inactive)
REMARK    1  A    between atoms: O_2  and  C_3 
REMARK    2  A    between atoms: C_3  and  C_4 
REMARK    3  A    between atoms: C_11  and  C_12 
REMARK    4  A    between atoms: C_12  and  S_13 
REMARK    5  A    between atoms: S_13  and  C_14 
REMARK    6  A    between atoms: C_16  and  C_17 
ROOT
HETATM    1  C   UNL     1      21.698  49.609  48.417  1.00  0.00     0.041 A 
HETATM    2  C   UNL     1      22.316  48.627  49.208  1.00  0.00     0.050 A 
HETATM    3  C   UNL     1      23.710  48.552  49.288  1.00  0.00     0.075 A 
HETATM    4  C   UNL     1      24.475  49.474  48.568  1.00  0.00     0.061 A 
HETATM    5  C   UNL     1      25.939  49.349  48.646  1.00  0.00     0.259 A 
HETATM    6  O   UNL     1      26.695  50.098  48.039  1.00  0.00    -0.267 OA
HETATM    7  N   UNL     1      26.400  48.328  49.435  1.00  0.00    -0.310 N 
HETATM    8  C   UNL     1      25.580  47.445  50.091  1.00  0.00     0.117 A 
HETATM    9  N   UNL     1      24.286  47.536  50.070  1.00  0.00    -0.234 NA
HETATM   10  C   UNL     1      23.879  50.463  47.782  1.00  0.00     0.020 A 
HETATM   11  C   UNL     1      22.487  50.528  47.708  1.00  0.00     0.019 A 
HETATM   12  H   UNL     1      27.398  48.169  49.398  1.00  0.00     0.170 HD
ENDROOT
BRANCH   8  13
HETATM   13  C   UNL     1      26.284  46.360  50.879  1.00  0.00     0.161 C 
BRANCH  13  14
HETATM   14  S   UNL     1      25.463  46.043  52.464  1.00  0.00    -0.083 SA
BRANCH  14  15
HETATM   15  C   UNL     1      26.749  46.263  53.583  1.00  0.00     0.185 A 
HETATM   16  N   UNL     1      27.523  45.365  54.135  1.00  0.00    -0.201 NA
HETATM   17  C   UNL     1      28.294  46.113  55.009  1.00  0.00     0.182 A 
HETATM   18  N   UNL     1      28.045  47.434  54.958  1.00  0.00    -0.152 NA
HETATM   19  N   UNL     1      27.059  47.496  54.051  1.00  0.00    -0.253 N 
HETATM   20  H   UNL     1      26.637  48.387  53.819  1.00  0.00     0.191 HD
BRANCH  17  21
HETATM   21  C   UNL     1      29.256  45.504  55.927  1.00  0.00     0.013 A 
HETATM   22  C   UNL     1      29.396  45.984  57.236  1.00  0.00     0.015 A 
HETATM   23  C   UNL     1      30.339  45.427  58.104  1.00  0.00     0.001 A 
HETATM   24  C   UNL     1      31.148  44.378  57.675  1.00  0.00     0.000 A 
HETATM   25  C   UNL     1      31.017  43.884  56.379  1.00  0.00     0.001 A 
HETATM   26  C   UNL     1      30.077  44.445  55.509  1.00  0.00     0.015 A 
ENDBRANCH  17  21
ENDBRANCH  14  15
ENDBRANCH  13  14
ENDBRANCH   8  13
BRANCH   1  27
HETATM   27  C   UNL     1      20.220  49.709  48.285  1.00  0.00     0.293 C 
HETATM   28  O   UNL     1      19.502  48.753  48.038  1.00  0.00    -0.259 OA
BRANCH  27  29
HETATM   29  O   UNL     1      19.804  50.985  48.479  1.00  0.00    -0.323 OA
HETATM   30  C   UNL     1      19.442  51.279  49.829  1.00  0.00     0.213 C 
ENDBRANCH  27  29
ENDBRANCH   1  27
TORSDOF 6
ENDMDL
MODEL 2
REMARK VINA RESULT:      -9.6      1.214      1.876
REMARK  6 active torsions:
REMARK  status: ('A' for Active; 'I' for Inactive)
REMARK    1  A    between atoms: O_2  and  C_3 
REMARK    2  A    between atoms: C_3  and  C_4 
REMARK    3  A    between atoms: C_11  and  C_12 
REMARK    4  A    between atoms: C_12  and  S_13 
REMARK    5  A    between atoms: S_13  and  C_14 
REMARK    6  A    between atoms: C_16  and  C_17 
ROOT
HETATM    1  C   UNL     1      21.248  49.547  48.426  1.00  0.00     0.041 A 
HETATM    2  C   UNL     1      21.972  48.616  49.188  1.00  0.00     0.050 A 
HETATM    3  C   UNL     1      23.370  48.631  49.187  1.00  0.00     0.075 A 
HETATM    4  C   UNL     1      24.031  49.591  48.416  1.00  0.00     0.061 A 
HETATM    5  C   UNL     1      25.503  49.560  48.410  1.00  0.00     0.259 A 
HETATM    6  O   UNL     1      26.173  50.348  47.753  1.00  0.00    -0.267 OA
HETATM    7  N   UNL     1      26.072  48.580  49.179  1.00  0.00    -0.310 N 
HETATM    8  C   UNL     1      25.350  47.655  49.889  1.00  0.00     0.117 A 
HETATM    9  N   UNL     1      24.054  47.663  49.942  1.00  0.00    -0.234 NA
HETATM   10  C   UNL     1      23.329  50.530  47.658  1.00  0.00     0.020 A 
HETATM   11  C   UNL     1      21.934  50.505  47.665  1.00  0.00     0.019 A 
HETATM   12  H   UNL     1      27.075  48.484  49.085  1.00  0.00     0.170 HD
ENDROOT
BRANCH   8  13
HETATM   13  C   UNL     1      26.167  46.626  50.644  1.00  0.00     0.161 C 
BRANCH  13  14
HETATM   14  S   UNL     1      25.115  45.352  51.391  1.00  0.00    -0.083 SA
BRANCH  14  15
HETATM   15  C   UNL     1      26.194  44.603  52.499  1.00  0.00     0.185 A 
HETATM   16  N   UNL     1      27.112  45.151  53.253  1.00  0.00    -0.201 NA
HETATM   17  C   UNL     1      27.720  44.057  53.848  1.00  0.00     0.182 A 
HETATM   18  N   UNL     1      27.161  42.879  53.517  1.00  0.00    -0.152 NA
HETATM   19  N   UNL     1      26.202  43.257  52.658  1.00  0.00    -0.253 N 
HETATM   20  H   UNL     1      25.619  42.563  52.209  1.00  0.00     0.191 HD
BRANCH  17  21
HETATM   21  C   UNL     1      28.886  44.186  54.719  1.00  0.00     0.013 A 
HETATM   22  C   UNL     1      29.831  43.153  54.805  1.00  0.00     0.015 A 
HETATM   23  C   UNL     1      30.929  43.258  55.662  1.00  0.00     0.001 A 
HETATM   24  C   UNL     1      31.099  44.400  56.441  1.00  0.00     0.000 A 
HETATM   25  C   UNL     1      30.173  45.438  56.364  1.00  0.00     0.001 A 
HETATM   26  C   UNL     1      29.072  45.331  55.509  1.00  0.00     0.015 A 
ENDBRANCH  17  21
ENDBRANCH  14  15
ENDBRANCH  13  14
ENDBRANCH   8  13
BRANCH   1  27
HETATM   27  C   UNL     1      19.761  49.551  48.380  1.00  0.00     0.293 C 
HETATM   28  O   UNL     1      19.120  49.294  47.373  1.00  0.00    -0.259 OA
BRANCH  27  29
HETATM   29  O   UNL     1      19.242  49.871  49.590  1.00  0.00    -0.323 OA
HETATM   30  C   UNL     1      19.402  51.245  49.945  1.00  0.00     0.213 C 
ENDBRANCH  27  29
ENDBRANCH   1  27
TORSDOF 6
ENDMDL
MODEL 3
REMARK VINA RESULT:      -9.5      3.515     10.238
REMARK  6 active torsions:
REMARK  status: ('A' for Active; 'I' for Inactive)
REMARK    1  A    between atoms: O_2  and  C_3 
REMARK    2  A    between atoms: C_3  and  C_4 
REMARK    3  A    between atoms: C_11  and  C_12 
REMARK    4  A    between atoms: C_12  and  S_13 
REMARK    5  A    between atoms: S_13  and  C_14 
REMARK    6  A    between atoms: C_16  and  C_17 
ROOT
HETATM    1  C   UNL     1      29.307  44.805  55.175  1.00  0.00     0.041 A 
HETATM    2  C   UNL     1      28.470  44.495  54.091  1.00  0.00     0.050 A 
HETATM    3  C   UNL     1      27.412  45.341  53.746  1.00  0.00     0.075 A 
HETATM    4  C   UNL     1      27.206  46.501  54.498  1.00  0.00     0.061 A 
HETATM    5  C   UNL     1      26.064  47.354  54.130  1.00  0.00     0.259 A 
HETATM    6  O   UNL     1      25.791  48.382  54.738  1.00  0.00    -0.267 OA
HETATM    7  N   UNL     1      25.320  46.913  53.069  1.00  0.00    -0.310 N 
HETATM    8  C   UNL     1      25.573  45.744  52.397  1.00  0.00     0.117 A 
HETATM    9  N   UNL     1      26.582  44.977  52.671  1.00  0.00    -0.234 NA
HETATM   10  C   UNL     1      28.032  46.831  55.575  1.00  0.00     0.020 A 
HETATM   11  C   UNL     1      29.084  45.978  55.912  1.00  0.00     0.019 A 
HETATM   12  H   UNL     1      24.472  47.433  52.889  1.00  0.00     0.170 HD
ENDROOT
BRANCH   8  13
HETATM   13  C   UNL     1      24.607  45.411  51.277  1.00  0.00     0.161 C 
BRANCH  13  14
HETATM   14  S   UNL     1      25.242  45.944  49.665  1.00  0.00    -0.083 SA
BRANCH  14  15
HETATM   15  C   UNL     1      24.513  47.490  49.488  1.00  0.00     0.185 A 
HETATM   16  N   UNL     1      23.244  47.810  49.507  1.00  0.00    -0.201 NA
HETATM   17  C   UNL     1      23.260  49.165  49.219  1.00  0.00     0.182 A 
HETATM   18  N   UNL     1      24.497  49.677  49.083  1.00  0.00    -0.152 NA
HETATM   19  N   UNL     1      25.267  48.591  49.253  1.00  0.00    -0.253 N 
HETATM   20  H   UNL     1      26.274  48.665  49.176  1.00  0.00     0.191 HD
BRANCH  17  21
HETATM   21  C   UNL     1      22.036  49.944  49.041  1.00  0.00     0.013 A 
HETATM   22  C   UNL     1      21.464  50.093  47.770  1.00  0.00     0.015 A 
HETATM   23  C   UNL     1      20.313  50.866  47.591  1.00  0.00     0.001 A 
HETATM   24  C   UNL     1      19.717  51.493  48.682  1.00  0.00     0.000 A 
HETATM   25  C   UNL     1      20.269  51.350  49.953  1.00  0.00     0.001 A 
HETATM   26  C   UNL     1      21.423  50.581  50.132  1.00  0.00     0.015 A 
ENDBRANCH  17  21
ENDBRANCH  14  15
ENDBRANCH  13  14
ENDBRANCH   8  13
BRANCH   1  27
HETATM   27  C   UNL     1      30.429  43.920  55.592  1.00  0.00     0.293 C 
HETATM   28  O   UNL     1      30.881  43.033  54.886  1.00  0.00    -0.259 OA
BRANCH  27  29
HETATM   29  O   UNL     1      30.860  44.243  56.836  1.00  0.00    -0.323 OA
HETATM   30  C   UNL     1      31.915  43.410  57.318  1.00  0.00     0.213 C 
ENDBRANCH  27  29
ENDBRANCH   1  27
TORSDOF 6
ENDMDL
MODEL 4
REMARK VINA RESULT:      -9.3      3.976     10.619
REMARK  6 active torsions:
REMARK  status: ('A' for Active; 'I' for Inactive)
REMARK    1  A    between atoms: O_2  and  C_3 
REMARK    2  A    between atoms: C_3  and  C_4 
REMARK    3  A    between atoms: C_11  and  C_12 
REMARK    4  A    between atoms: C_12  and  S_13 
REMARK    5  A    between atoms: S_13  and  C_14 
REMARK    6  A    between atoms: C_16  and  C_17 
ROOT
HETATM    1  C   UNL     1      29.946  44.124  55.119  1.00  0.00     0.041 A 
HETATM    2  C   UNL     1      28.783  44.800  54.718  1.00  0.00     0.050 A 
HETATM    3  C   UNL     1      28.062  44.372  53.599  1.00  0.00     0.075 A 
HETATM    4  C   UNL     1      28.521  43.259  52.890  1.00  0.00     0.061 A 
HETATM    5  C   UNL     1      27.760  42.853  51.697  1.00  0.00     0.259 A 
HETATM    6  O   UNL     1      28.091  41.901  51.001  1.00  0.00    -0.267 OA
HETATM    7  N   UNL     1      26.662  43.621  51.412  1.00  0.00    -0.310 N 
HETATM    8  C   UNL     1      26.292  44.719  52.146  1.00  0.00     0.117 A 
HETATM    9  N   UNL     1      26.919  45.095  53.217  1.00  0.00    -0.234 NA
HETATM   10  C   UNL     1      29.672  42.569  53.277  1.00  0.00     0.020 A 
HETATM   11  C   UNL     1      30.384  43.005  54.395  1.00  0.00     0.019 A 
HETATM   12  H   UNL     1      26.207  43.415  50.533  1.00  0.00     0.170 HD
ENDROOT
BRANCH   8  13
HETATM   13  C   UNL     1      25.070  45.460  51.642  1.00  0.00     0.161 C 
BRANCH  13  14
HETATM   14  S   UNL     1      25.490  47.125  51.058  1.00  0.00    -0.083 SA
BRANCH  14  15
HETATM   15  C   UNL     1      24.149  47.498  50.050  1.00  0.00     0.185 A 
HETATM   16  N   UNL     1      23.611  48.661  49.792  1.00  0.00    -0.201 NA
HETATM   17  C   UNL     1      22.518  48.332  49.007  1.00  0.00     0.182 A 
HETATM   18  N   UNL     1      22.416  47.017  48.742  1.00  0.00    -0.152 NA
HETATM   19  N   UNL     1      23.460  46.515  49.421  1.00  0.00    -0.253 N 
HETATM   20  H   UNL     1      23.627  45.517  49.431  1.00  0.00     0.191 HD
BRANCH  17  21
HETATM   21  C   UNL     1      21.550  49.328  48.552  1.00  0.00     0.013 A 
HETATM   22  C   UNL     1      21.601  50.644  49.032  1.00  0.00     0.015 A 
HETATM   23  C   UNL     1      20.656  51.590  48.625  1.00  0.00     0.001 A 
HETATM   24  C   UNL     1      19.652  51.233  47.730  1.00  0.00     0.000 A 
HETATM   25  C   UNL     1      19.590  49.930  47.238  1.00  0.00     0.001 A 
HETATM   26  C   UNL     1      20.533  48.983  47.648  1.00  0.00     0.015 A 
ENDBRANCH  17  21
ENDBRANCH  14  15
ENDBRANCH  13  14
ENDBRANCH   8  13
BRANCH   1  27
HETATM   27  C   UNL     1      30.756  44.561  56.289  1.00  0.00     0.293 C 
HETATM   28  O   UNL     1      31.602  43.858  56.819  1.00  0.00    -0.259 OA
BRANCH  27  29
HETATM   29  O   UNL     1      30.423  45.821  56.661  1.00  0.00    -0.323 OA
HETATM   30  C   UNL     1      29.943  45.922  58.003  1.00  0.00     0.213 C 
ENDBRANCH  27  29
ENDBRANCH   1  27
TORSDOF 6
ENDMDL
MODEL 5
REMARK VINA RESULT:      -9.2      4.364     10.196
REMARK  6 active torsions:
REMARK  status: ('A' for Active; 'I' for Inactive)
REMARK    1  A    between atoms: O_2  and  C_3 
REMARK    2  A    between atoms: C_3  and  C_4 
REMARK    3  A    between atoms: C_11  and  C_12 
REMARK    4  A    between atoms: C_12  and  S_13 
REMARK    5  A    between atoms: S_13  and  C_14 
REMARK    6  A    between atoms: C_16  and  C_17 
ROOT
HETATM    1  C   UNL     1      29.532  44.098  54.879  1.00  0.00     0.041 A 
HETATM    2  C   UNL     1      28.254  44.360  54.359  1.00  0.00     0.050 A 
HETATM    3  C   UNL     1      27.751  43.604  53.296  1.00  0.00     0.075 A 
HETATM    4  C   UNL     1      28.542  42.581  52.765  1.00  0.00     0.061 A 
HETATM    5  C   UNL     1      27.998  41.825  51.625  1.00  0.00     0.259 A 
HETATM    6  O   UNL     1      28.621  40.922  51.080  1.00  0.00    -0.267 OA
HETATM    7  N   UNL     1      26.751  42.208  51.208  1.00  0.00    -0.310 N 
HETATM    8  C   UNL     1      26.048  43.244  51.768  1.00  0.00     0.117 A 
HETATM    9  N   UNL     1      26.478  43.919  52.788  1.00  0.00    -0.234 NA
HETATM   10  C   UNL     1      29.812  42.300  53.273  1.00  0.00     0.020 A 
HETATM   11  C   UNL     1      30.305  43.063  54.333  1.00  0.00     0.019 A 
HETATM   12  H   UNL     1      26.426  41.770  50.357  1.00  0.00     0.170 HD
ENDROOT
BRANCH   8  13
HETATM   13  C   UNL     1      24.703  43.539  51.135  1.00  0.00     0.161 C 
BRANCH  13  14
HETATM   14  S   UNL     1      24.883  44.192  49.453  1.00  0.00    -0.083 SA
BRANCH  14  15
HETATM   15  C   UNL     1      24.457  45.843  49.665  1.00  0.00     0.185 A 
HETATM   16  N   UNL     1      23.464  46.512  49.138  1.00  0.00    -0.201 NA
HETATM   17  C   UNL     1      23.684  47.804  49.589  1.00  0.00     0.182 A 
HETATM   18  N   UNL     1      24.743  47.919  50.410  1.00  0.00    -0.152 NA
HETATM   19  N   UNL     1      25.214  46.663  50.434  1.00  0.00    -0.253 N 
HETATM   20  H   UNL     1      26.048  46.443  50.964  1.00  0.00     0.191 HD
BRANCH  17  21
HETATM   21  C   UNL     1      22.858  48.934  49.167  1.00  0.00     0.013 A 
HETATM   22  C   UNL     1      23.444  50.166  48.846  1.00  0.00     0.015 A 
HETATM   23  C   UNL     1      22.655  51.258  48.476  1.00  0.00     0.001 A 
HETATM   24  C   UNL     1      21.270  51.129  48.416  1.00  0.00     0.000 A 
HETATM   25  C   UNL     1      20.671  49.910  48.726  1.00  0.00     0.001 A 
HETATM   26  C   UNL     1      21.461  48.818  49.100  1.00  0.00     0.015 A 
ENDBRANCH  17  21
ENDBRANCH  14  15
ENDBRANCH  13  14
ENDBRANCH   8  13
BRANCH   1  27
HETATM   27  C   UNL     1      30.115  44.894  55.993  1.00  0.00     0.293 C 
HETATM   28  O   UNL     1      29.827  46.061  56.206  1.00  0.00    -0.259 OA
BRANCH  27  29
HETATM   29  O   UNL     1      30.985  44.146  56.715  1.00  0.00    -0.323 OA
HETATM   30  C   UNL     1      31.198  44.625  58.043  1.00  0.00     0.213 C 
ENDBRANCH  27  29
ENDBRANCH   1  27
TORSDOF 6
ENDMDL
MODEL 6
REMARK VINA RESULT:      -9.2      2.456      3.374
REMARK  6 active torsions:
REMARK  status: ('A' for Active; 'I' for Inactive)
REMARK    1  A    between atoms: O_2  and  C_3 
REMARK    2  A    between atoms: C_3  and  C_4 
REMARK    3  A    between atoms: C_11  and  C_12 
REMARK    4  A    between atoms: C_12  and  S_13 
REMARK    5  A    between atoms: S_13  and  C_14 
REMARK    6  A    between atoms: C_16  and  C_17 
ROOT
HETATM    1  C   UNL     1      23.477  48.246  48.696  1.00  0.00     0.041 A 
HETATM    2  C   UNL     1      24.322  47.513  49.545  1.00  0.00     0.050 A 
HETATM    3  C   UNL     1      24.109  46.147  49.753  1.00  0.00     0.075 A 
HETATM    4  C   UNL     1      23.043  45.526  49.097  1.00  0.00     0.061 A 
HETATM    5  C   UNL     1      22.825  44.095  49.361  1.00  0.00     0.259 A 
HETATM    6  O   UNL     1      21.908  43.465  48.848  1.00  0.00    -0.267 OA
HETATM    7  N   UNL     1      23.712  43.517  50.231  1.00  0.00    -0.310 N 
HETATM    8  C   UNL     1      24.720  44.205  50.857  1.00  0.00     0.117 A 
HETATM    9  N   UNL     1      24.963  45.459  50.632  1.00  0.00    -0.234 NA
HETATM   10  C   UNL     1      22.196  46.236  48.243  1.00  0.00     0.020 A 
HETATM   11  C   UNL     1      22.416  47.600  48.044  1.00  0.00     0.019 A 
HETATM   12  H   UNL     1      23.495  42.567  50.502  1.00  0.00     0.170 HD
ENDROOT
BRANCH   8  13
HETATM   13  C   UNL     1      25.568  43.394  51.816  1.00  0.00     0.161 C 
BRANCH  13  14
HETATM   14  S   UNL     1      27.336  43.559  51.450  1.00  0.00    -0.083 SA
BRANCH  14  15
HETATM   15  C   UNL     1      27.936  44.263  52.898  1.00  0.00     0.185 A 
HETATM   16  N   UNL     1      28.958  43.900  53.630  1.00  0.00    -0.201 NA
HETATM   17  C   UNL     1      28.894  44.768  54.708  1.00  0.00     0.182 A 
HETATM   18  N   UNL     1      27.901  45.671  54.619  1.00  0.00    -0.152 NA
HETATM   19  N   UNL     1      27.309  45.322  53.466  1.00  0.00    -0.253 N 
HETATM   20  H   UNL     1      26.490  45.821  53.144  1.00  0.00     0.191 HD
BRANCH  17  21
HETATM   21  C   UNL     1      29.801  44.669  55.849  1.00  0.00     0.013 A 
HETATM   22  C   UNL     1      29.743  45.606  56.890  1.00  0.00     0.015 A 
HETATM   23  C   UNL     1      30.633  45.536  57.966  1.00  0.00     0.001 A 
HETATM   24  C   UNL     1      31.587  44.523  58.016  1.00  0.00     0.000 A 
HETATM   25  C   UNL     1      31.655  43.581  56.993  1.00  0.00     0.001 A 
HETATM   26  C   UNL     1      30.768  43.654  55.914  1.00  0.00     0.015 A 
ENDBRANCH  17  21
ENDBRANCH  14  15
ENDBRANCH  13  14
ENDBRANCH   8  13
BRANCH   1  27
HETATM   27  C   UNL     1      23.652  49.706  48.467  1.00  0.00     0.293 C 
HETATM   28  O   UNL     1      24.019  50.179  47.403  1.00  0.00    -0.259 OA
BRANCH  27  29
HETATM   29  O   UNL     1      23.349  50.409  49.585  1.00  0.00    -0.323 OA
HETATM   30  C   UNL     1      21.980  50.808  49.666  1.00  0.00     0.213 C 
ENDBRANCH  27  29
ENDBRANCH   1  27
TORSDOF 6
ENDMDL
MODEL 7
REMARK VINA RESULT:      -8.6     11.883     13.986
REMARK  6 active torsions:
REMARK  status: ('A' for Active; 'I' for Inactive)
REMARK    1  A    between atoms: O_2  and  C_3 
REMARK    2  A    between atoms: C_3  and  C_4 
REMARK    3  A    between atoms: C_11  and  C_12 
REMARK    4  A    between atoms: C_12  and  S_13 
REMARK    5  A    between atoms: S_13  and  C_14 
REMARK    6  A    between atoms: C_16  and  C_17 
ROOT
HETATM    1  C   UNL     1      32.457  52.780  39.578  1.00  0.00     0.041 A 
HETATM    2  C   UNL     1      31.864  51.604  39.091  1.00  0.00     0.050 A 
HETATM    3  C   UNL     1      30.540  51.290  39.411  1.00  0.00     0.075 A 
HETATM    4  C   UNL     1      29.818  52.170  40.222  1.00  0.00     0.061 A 
HETATM    5  C   UNL     1      28.438  51.795  40.569  1.00  0.00     0.259 A 
HETATM    6  O   UNL     1      27.730  52.491  41.286  1.00  0.00    -0.267 OA
HETATM    7  N   UNL     1      28.002  50.607  40.043  1.00  0.00    -0.310 N 
HETATM    8  C   UNL     1      28.786  49.784  39.274  1.00  0.00     0.117 A 
HETATM    9  N   UNL     1      29.996  50.088  38.924  1.00  0.00    -0.234 NA
HETATM   10  C   UNL     1      30.387  53.348  40.710  1.00  0.00     0.020 A 
HETATM   11  C   UNL     1      31.710  53.651  40.386  1.00  0.00     0.019 A 
HETATM   12  H   UNL     1      27.100  50.294  40.372  1.00  0.00     0.170 HD
ENDROOT
BRANCH   8  13
HETATM   13  C   UNL     1      28.132  48.494  38.824  1.00  0.00     0.161 C 
BRANCH  13  14
HETATM   14  S   UNL     1      28.627  47.094  39.865  1.00  0.00    -0.083 SA
BRANCH  14  15
HETATM   15  C   UNL     1      30.120  47.643  40.514  1.00  0.00     0.185 A 
HETATM   16  N   UNL     1      30.345  48.623  41.350  1.00  0.00    -0.201 NA
HETATM   17  C   UNL     1      31.728  48.655  41.430  1.00  0.00     0.182 A 
HETATM   18  N   UNL     1      32.335  47.694  40.711  1.00  0.00    -0.152 NA
HETATM   19  N   UNL     1      31.292  47.073  40.139  1.00  0.00    -0.253 N 
HETATM   20  H   UNL     1      31.446  46.302  39.501  1.00  0.00     0.191 HD
BRANCH  17  21
HETATM   21  C   UNL     1      32.447  49.673  42.193  1.00  0.00     0.013 A 
HETATM   22  C   UNL     1      31.817  50.355  43.244  1.00  0.00     0.015 A 
HETATM   23  C   UNL     1      32.489  51.353  43.953  1.00  0.00     0.001 A 
HETATM   24  C   UNL     1      33.803  51.677  43.624  1.00  0.00     0.000 A 
HETATM   25  C   UNL     1      34.446  51.006  42.587  1.00  0.00     0.001 A 
HETATM   26  C   UNL     1      33.771  50.010  41.874  1.00  0.00     0.015 A 
ENDBRANCH  17  21
ENDBRANCH  14  15
ENDBRANCH  13  14
ENDBRANCH   8  13
BRANCH   1  27
HETATM   27  C   UNL     1      33.870  53.140  39.282  1.00  0.00     0.293 C 
HETATM   28  O   UNL     1      34.312  54.272  39.398  1.00  0.00    -0.259 OA
BRANCH  27  29
HETATM   29  O   UNL     1      34.570  52.052  38.878  1.00  0.00    -0.323 OA
HETATM   30  C   UNL     1      35.944  52.070  39.265  1.00  0.00     0.213 C 
ENDBRANCH  27  29
ENDBRANCH   1  27
TORSDOF 6
ENDMDL
MODEL 8
REMARK VINA RESULT:      -8.5     12.257     14.860
REMARK  6 active torsions:
REMARK  status: ('A' for Active; 'I' for Inactive)
REMARK    1  A    between atoms: O_2  and  C_3 
REMARK    2  A    between atoms: C_3  and  C_4 
REMARK    3  A    between atoms: C_11  and  C_12 
REMARK    4  A    between atoms: C_12  and  S_13 
REMARK    5  A    between atoms: S_13  and  C_14 
REMARK    6  A    between atoms: C_16  and  C_17 
ROOT
HETATM    1  C   UNL     1      30.682  47.782  40.560  1.00  0.00     0.041 A 
HETATM    2  C   UNL     1      32.054  48.074  40.508  1.00  0.00     0.050 A 
HETATM    3  C   UNL     1      32.626  48.968  41.417  1.00  0.00     0.075 A 
HETATM    4  C   UNL     1      31.807  49.563  42.380  1.00  0.00     0.061 A 
HETATM    5  C   UNL     1      32.432  50.525  43.302  1.00  0.00     0.259 A 
HETATM    6  O   UNL     1      31.795  51.111  44.169  1.00  0.00    -0.267 OA
HETATM    7  N   UNL     1      33.773  50.729  43.116  1.00  0.00    -0.310 N 
HETATM    8  C   UNL     1      34.504  50.123  42.126  1.00  0.00     0.117 A 
HETATM    9  N   UNL     1      33.999  49.251  41.311  1.00  0.00    -0.234 NA
HETATM   10  C   UNL     1      30.441  49.281  42.453  1.00  0.00     0.020 A 
HETATM   11  C   UNL     1      29.880  48.388  41.539  1.00  0.00     0.019 A 
HETATM   12  H   UNL     1      34.179  51.472  43.670  1.00  0.00     0.170 HD
ENDROOT
BRANCH   8  13
HETATM   13  C   UNL     1      35.967  50.514  42.061  1.00  0.00     0.161 C 
BRANCH  13  14
HETATM   14  S   UNL     1      36.247  51.864  40.882  1.00  0.00    -0.083 SA
BRANCH  14  15
HETATM   15  C   UNL     1      34.757  51.905  40.027  1.00  0.00     0.185 A 
HETATM   16  N   UNL     1      33.610  52.414  40.394  1.00  0.00    -0.201 NA
HETATM   17  C   UNL     1      32.765  52.065  39.353  1.00  0.00     0.182 A 
HETATM   18  N   UNL     1      33.381  51.411  38.352  1.00  0.00    -0.152 NA
HETATM   19  N   UNL     1      34.639  51.320  38.810  1.00  0.00    -0.253 N 
HETATM   20  H   UNL     1      35.345  50.839  38.267  1.00  0.00     0.191 HD
BRANCH  17  21
HETATM   21  C   UNL     1      31.332  52.349  39.375  1.00  0.00     0.013 A 
HETATM   22  C   UNL     1      30.760  53.049  40.447  1.00  0.00     0.015 A 
HETATM   23  C   UNL     1      29.385  53.292  40.489  1.00  0.00     0.001 A 
HETATM   24  C   UNL     1      28.565  52.844  39.456  1.00  0.00     0.000 A 
HETATM   25  C   UNL     1      29.118  52.152  38.380  1.00  0.00     0.001 A 
HETATM   26  C   UNL     1      30.494  51.905  38.341  1.00  0.00     0.015 A 
ENDBRANCH  17  21
ENDBRANCH  14  15
ENDBRANCH  13  14
ENDBRANCH   8  13
BRANCH   1  27
HETATM   27  C   UNL     1      30.028  46.856  39.596  1.00  0.00     0.293 C 
HETATM   28  O   UNL     1      30.125  46.970  38.385  1.00  0.00    -0.259 OA
BRANCH  27  29
HETATM   29  O   UNL     1      29.333  45.893  40.249  1.00  0.00    -0.323 OA
HETATM   30  C   UNL     1      28.046  45.626  39.690  1.00  0.00     0.213 C 
ENDBRANCH  27  29
ENDBRANCH   1  27
TORSDOF 6
ENDMDL
MODEL 9
REMARK VINA RESULT:      -8.5      3.720      4.758
REMARK  6 active torsions:
REMARK  status: ('A' for Active; 'I' for Inactive)
REMARK    1  A    between atoms: O_2  and  C_3 
REMARK    2  A    between atoms: C_3  and  C_4 
REMARK    3  A    between atoms: C_11  and  C_12 
REMARK    4  A    between atoms: C_12  and  S_13 
REMARK    5  A    between atoms: S_13  and  C_14 
REMARK    6  A    between atoms: C_16  and  C_17 
ROOT
HETATM    1  C   UNL     1      23.431  46.527  48.838  1.00  0.00     0.041 A 
HETATM    2  C   UNL     1      24.331  45.592  49.373  1.00  0.00     0.050 A 
HETATM    3  C   UNL     1      24.148  44.223  49.155  1.00  0.00     0.075 A 
HETATM    4  C   UNL     1      23.055  43.805  48.393  1.00  0.00     0.061 A 
HETATM    5  C   UNL     1      22.870  42.356  48.208  1.00  0.00     0.259 A 
HETATM    6  O   UNL     1      21.933  41.890  47.571  1.00  0.00    -0.267 OA
HETATM    7  N   UNL     1      23.812  41.564  48.809  1.00  0.00    -0.310 N 
HETATM    8  C   UNL     1      24.846  42.053  49.567  1.00  0.00     0.117 A 
HETATM    9  N   UNL     1      25.059  43.321  49.733  1.00  0.00    -0.234 NA
HETATM   10  C   UNL     1      22.152  44.719  47.846  1.00  0.00     0.020 A 
HETATM   11  C   UNL     1      22.343  46.083  48.071  1.00  0.00     0.019 A 
HETATM   12  H   UNL     1      23.623  40.571  48.781  1.00  0.00     0.170 HD
ENDROOT
BRANCH   8  13
HETATM   13  C   UNL     1      25.756  41.010  50.182  1.00  0.00     0.161 C 
BRANCH  13  14
HETATM   14  S   UNL     1      27.493  41.531  50.143  1.00  0.00    -0.083 SA
BRANCH  14  15
HETATM   15  C   UNL     1      27.655  42.343  51.649  1.00  0.00     0.185 A 
HETATM   16  N   UNL     1      28.743  42.741  52.257  1.00  0.00    -0.201 NA
HETATM   17  C   UNL     1      28.264  43.235  53.460  1.00  0.00     0.182 A 
HETATM   18  N   UNL     1      26.924  43.195  53.568  1.00  0.00    -0.152 NA
HETATM   19  N   UNL     1      26.568  42.620  52.409  1.00  0.00    -0.253 N 
HETATM   20  H   UNL     1      25.593  42.429  52.214  1.00  0.00     0.191 HD
BRANCH  17  21
HETATM   21  C   UNL     1      29.149  43.712  54.520  1.00  0.00     0.013 A 
HETATM   22  C   UNL     1      28.975  44.987  55.076  1.00  0.00     0.015 A 
HETATM   23  C   UNL     1      29.841  45.460  56.065  1.00  0.00     0.001 A 
HETATM   24  C   UNL     1      30.888  44.661  56.515  1.00  0.00     0.000 A 
HETATM   25  C   UNL     1      31.073  43.389  55.978  1.00  0.00     0.001 A 
HETATM   26  C   UNL     1      30.208  42.917  54.985  1.00  0.00     0.015 A 
ENDBRANCH  17  21
ENDBRANCH  14  15
ENDBRANCH  13  14
ENDBRANCH   8  13
BRANCH   1  27
HETATM   27  C   UNL     1      23.574  47.990  49.067  1.00  0.00     0.293 C 
HETATM   28  O   UNL     1      23.976  48.469  50.115  1.00  0.00    -0.259 OA
BRANCH  27  29
HETATM   29  O   UNL     1      23.206  48.688  47.965  1.00  0.00    -0.323 OA
HETATM   30  C   UNL     1      23.677  50.036  47.947  1.00  0.00     0.213 C 
ENDBRANCH  27  29
ENDBRANCH   1  27
TORSDOF 6
ENDMDL
MODEL 10
REMARK VINA RESULT:      -8.4      2.474      3.174
REMARK  6 active torsions:
REMARK  status: ('A' for Active; 'I' for Inactive)
REMARK    1  A    between atoms: O_2  and  C_3 
REMARK    2  A    between atoms: C_3  and  C_4 
REMARK    3  A    between atoms: C_11  and  C_12 
REMARK    4  A    between atoms: C_12  and  S_13 
REMARK    5  A    between atoms: S_13  and  C_14 
REMARK    6  A    between atoms: C_16  and  C_17 
ROOT
HETATM    1  C   UNL     1      19.964  50.257  48.764  1.00  0.00     0.041 A 
HETATM    2  C   UNL     1      20.307  48.896  48.725  1.00  0.00     0.050 A 
HETATM    3  C   UNL     1      21.641  48.496  48.840  1.00  0.00     0.075 A 
HETATM    4  C   UNL     1      22.625  49.475  48.997  1.00  0.00     0.061 A 
HETATM    5  C   UNL     1      24.024  49.025  49.081  1.00  0.00     0.259 A 
HETATM    6  O   UNL     1      24.959  49.807  49.202  1.00  0.00    -0.267 OA
HETATM    7  N   UNL     1      24.210  47.670  49.003  1.00  0.00    -0.310 N 
HETATM    8  C   UNL     1      23.188  46.772  48.822  1.00  0.00     0.117 A 
HETATM    9  N   UNL     1      21.942  47.124  48.769  1.00  0.00    -0.234 NA
HETATM   10  C   UNL     1      22.304  50.834  49.044  1.00  0.00     0.020 A 
HETATM   11  C   UNL     1      20.968  51.222  48.927  1.00  0.00     0.019 A 
HETATM   12  H   UNL     1      25.173  47.368  48.945  1.00  0.00     0.170 HD
ENDROOT
BRANCH   8  13
HETATM   13  C   UNL     1      23.606  45.319  48.719  1.00  0.00     0.161 C 
BRANCH  13  14
HETATM   14  S   UNL     1      23.530  44.485  50.327  1.00  0.00    -0.083 SA
BRANCH  14  15
HETATM   15  C   UNL     1      25.195  44.279  50.701  1.00  0.00     0.185 A 
HETATM   16  N   UNL     1      25.746  43.893  51.822  1.00  0.00    -0.201 NA
HETATM   17  C   UNL     1      27.102  44.010  51.560  1.00  0.00     0.182 A 
HETATM   18  N   UNL     1      27.379  44.400  50.303  1.00  0.00    -0.152 NA
HETATM   19  N   UNL     1      26.152  44.567  49.786  1.00  0.00    -0.253 N 
HETATM   20  H   UNL     1      26.041  44.894  48.834  1.00  0.00     0.191 HD
BRANCH  17  21
HETATM   21  C   UNL     1      28.122  43.769  52.578  1.00  0.00     0.013 A 
HETATM   22  C   UNL     1      28.107  44.481  53.785  1.00  0.00     0.015 A 
HETATM   23  C   UNL     1      29.101  44.279  54.747  1.00  0.00     0.001 A 
HETATM   24  C   UNL     1      30.118  43.357  54.515  1.00  0.00     0.000 A 
HETATM   25  C   UNL     1      30.144  42.636  53.323  1.00  0.00     0.001 A 
HETATM   26  C   UNL     1      29.152  42.841  52.359  1.00  0.00     0.015 A 
ENDBRANCH  17  21
ENDBRANCH  14  15
ENDBRANCH  13  14
ENDBRANCH   8  13
BRANCH   1  27
HETATM   27  C   UNL     1      18.559  50.727  48.621  1.00  0.00     0.293 C 
HETATM   28  O   UNL     1      17.988  50.817  47.546  1.00  0.00    -0.259 OA
BRANCH  27  29
HETATM   29  O   UNL     1      18.026  51.028  49.830  1.00  0.00    -0.323 OA
HETATM   30  C   UNL     1      17.582  52.380  49.949  1.00  0.00     0.213 C 
ENDBRANCH  27  29
ENDBRANCH   1  27
TORSDOF 6
ENDMDL
