MODEL 1
REMARK VINA RESULT:      -7.8      0.000      0.000
REMARK  7 active torsions:
REMARK  status: ('A' for Active; 'I' for Inactive)
REMARK    1  A    between atoms: O_2  and  C_3 
REMARK    2  A    between atoms: C_4  and  O_5 
REMARK    3  A    between atoms: C_6  and  C_7 
REMARK    4  A    between atoms: C_7  and  N_8 
REMARK    5  A    between atoms: C_11  and  C_12 
REMARK    6  A    between atoms: C_12  and  N_13 
REMARK    7  A    between atoms: N_13  and  C_14 
ROOT
HETATM    1  N   UNL     1      26.748  43.402  51.279  1.00  0.00    -0.067 N 
HETATM    2  H   UNL     1      27.078  43.650  50.325  1.00  0.00     0.280 HD
HETATM    3  C   UNL     1      27.863  43.685  52.254  1.00  0.00     0.241 C 
HETATM    4  C   UNL     1      27.146  44.290  53.455  1.00  0.00     0.031 C 
HETATM    5  C   UNL     1      26.093  45.161  52.775  1.00  0.00     0.035 C 
HETATM    6  C   UNL     1      25.578  44.288  51.639  1.00  0.00     0.235 C 
ENDROOT
BRANCH   1   7
HETATM    7  C   UNL     1      26.374  41.945  51.133  1.00  0.00     0.276 C 
BRANCH   7   8
HETATM    8  C   UNL     1      27.293  41.176  50.228  1.00  0.00     0.005 A 
HETATM    9  C   UNL     1      27.455  41.536  48.887  1.00  0.00     0.107 A 
HETATM   10  C   UNL     1      28.258  40.797  48.005  1.00  0.00     0.103 A 
HETATM   11  C   UNL     1      28.940  39.683  48.484  1.00  0.00     0.058 A 
HETATM   12  C   UNL     1      28.796  39.315  49.824  1.00  0.00     0.014 A 
HETATM   13  C   UNL     1      27.974  40.042  50.690  1.00  0.00     0.030 A 
HETATM   14 BR   UNL     1      29.729  37.809  50.486  1.00  0.00    -0.051 Br
BRANCH   9  15
HETATM   15  O   UNL     1      26.813  42.662  48.428  1.00  0.00    -0.357 OA
HETATM   16  H   UNL     1      26.722  42.510  47.457  1.00  0.00     0.218 HD
ENDBRANCH   9  15
BRANCH  10  17
HETATM   17  O   UNL     1      28.292  41.280  46.723  1.00  0.00    -0.353 OA
HETATM   18  C   UNL     1      27.527  40.564  45.754  1.00  0.00     0.210 C 
ENDBRANCH  10  17
ENDBRANCH   7   8
ENDBRANCH   1   7
BRANCH   4  19
HETATM   19  C   UNL     1      28.093  45.055  54.386  1.00  0.00     0.127 C 
BRANCH  19  20
HETATM   20  N   UNL     1      29.386  44.369  54.474  1.00  0.00    -0.376 N 
HETATM   21  H   UNL     1      29.953  44.436  53.634  1.00  0.00     0.161 HD
BRANCH  20  22
HETATM   22  C   UNL     1      30.081  44.353  55.676  1.00  0.00     0.100 A 
HETATM   23  N   UNL     1      29.885  45.368  56.541  1.00  0.00    -0.353 N 
HETATM   24  H   UNL     1      29.238  46.104  56.278  1.00  0.00     0.166 HD
HETATM   25  C   UNL     1      30.509  45.473  57.725  1.00  0.00     0.089 A 
HETATM   26  C   UNL     1      31.426  44.513  58.117  1.00  0.00     0.017 A 
HETATM   27  C   UNL     1      31.692  43.459  57.257  1.00  0.00     0.005 A 
HETATM   28  C   UNL     1      31.025  43.380  56.034  1.00  0.00     0.048 A 
ENDBRANCH  20  22
ENDBRANCH  19  20
ENDBRANCH   4  19
TORSDOF 7
ENDMDL
MODEL 2
REMARK VINA RESULT:      -7.7      4.021      5.692
REMARK  7 active torsions:
REMARK  status: ('A' for Active; 'I' for Inactive)
REMARK    1  A    between atoms: O_2  and  C_3 
REMARK    2  A    between atoms: C_4  and  O_5 
REMARK    3  A    between atoms: C_6  and  C_7 
REMARK    4  A    between atoms: C_7  and  N_8 
REMARK    5  A    between atoms: C_11  and  C_12 
REMARK    6  A    between atoms: C_12  and  N_13 
REMARK    7  A    between atoms: N_13  and  C_14 
ROOT
HETATM    1  N   UNL     1      25.848  44.351  51.532  1.00  0.00    -0.067 N 
HETATM    2  H   UNL     1      24.819  44.229  51.444  1.00  0.00     0.280 HD
HETATM    3  C   UNL     1      26.114  45.327  52.650  1.00  0.00     0.241 C 
HETATM    4  C   UNL     1      27.321  44.733  53.366  1.00  0.00     0.031 C 
HETATM    5  C   UNL     1      26.998  43.241  53.323  1.00  0.00     0.035 C 
HETATM    6  C   UNL     1      26.466  43.026  51.912  1.00  0.00     0.235 C 
ENDROOT
BRANCH   1   7
HETATM    7  C   UNL     1      26.246  44.826  50.154  1.00  0.00     0.276 C 
BRANCH   7   8
HETATM    8  C   UNL     1      25.734  46.197  49.818  1.00  0.00     0.005 A 
HETATM    9  C   UNL     1      24.363  46.451  49.714  1.00  0.00     0.107 A 
HETATM   10  C   UNL     1      23.860  47.706  49.341  1.00  0.00     0.103 A 
HETATM   11  C   UNL     1      24.753  48.744  49.091  1.00  0.00     0.058 A 
HETATM   12  C   UNL     1      26.126  48.509  49.199  1.00  0.00     0.014 A 
HETATM   13  C   UNL     1      26.619  47.248  49.548  1.00  0.00     0.030 A 
HETATM   14 BR   UNL     1      27.345  49.918  48.873  1.00  0.00    -0.051 Br
BRANCH   9  15
HETATM   15  O   UNL     1      23.483  45.434  50.003  1.00  0.00    -0.357 OA
HETATM   16  H   UNL     1      23.805  45.073  50.863  1.00  0.00     0.218 HD
ENDBRANCH   9  15
BRANCH  10  17
HETATM   17  O   UNL     1      22.494  47.777  49.272  1.00  0.00    -0.353 OA
HETATM   18  C   UNL     1      21.948  48.942  48.655  1.00  0.00     0.210 C 
ENDBRANCH  10  17
ENDBRANCH   7   8
ENDBRANCH   1   7
BRANCH   4  19
HETATM   19  C   UNL     1      27.508  45.297  54.779  1.00  0.00     0.127 C 
BRANCH  19  20
HETATM   20  N   UNL     1      28.885  45.769  54.961  1.00  0.00    -0.376 N 
HETATM   21  H   UNL     1      28.987  46.780  54.939  1.00  0.00     0.161 HD
BRANCH  20  22
HETATM   22  C   UNL     1      29.743  45.091  55.816  1.00  0.00     0.100 A 
HETATM   23  N   UNL     1      29.959  45.605  57.043  1.00  0.00    -0.353 N 
HETATM   24  H   UNL     1      29.486  46.468  57.292  1.00  0.00     0.166 HD
HETATM   25  C   UNL     1      30.776  45.052  57.953  1.00  0.00     0.089 A 
HETATM   26  C   UNL     1      31.470  43.892  57.652  1.00  0.00     0.017 A 
HETATM   27  C   UNL     1      31.311  43.331  56.395  1.00  0.00     0.005 A 
HETATM   28  C   UNL     1      30.453  43.932  55.473  1.00  0.00     0.048 A 
ENDBRANCH  20  22
ENDBRANCH  19  20
ENDBRANCH   4  19
TORSDOF 7
ENDMDL
MODEL 3
REMARK VINA RESULT:      -7.7      4.584      5.826
REMARK  7 active torsions:
REMARK  status: ('A' for Active; 'I' for Inactive)
REMARK    1  A    between atoms: O_2  and  C_3 
REMARK    2  A    between atoms: C_4  and  O_5 
REMARK    3  A    between atoms: C_6  and  C_7 
REMARK    4  A    between atoms: C_7  and  N_8 
REMARK    5  A    between atoms: C_11  and  C_12 
REMARK    6  A    between atoms: C_12  and  N_13 
REMARK    7  A    between atoms: N_13  and  C_14 
ROOT
HETATM    1  N   UNL     1      25.519  45.280  52.347  1.00  0.00    -0.067 N 
HETATM    2  H   UNL     1      24.487  45.407  52.342  1.00  0.00     0.280 HD
HETATM    3  C   UNL     1      26.117  46.302  53.282  1.00  0.00     0.241 C 
HETATM    4  C   UNL     1      27.213  45.528  54.006  1.00  0.00     0.031 C 
HETATM    5  C   UNL     1      26.544  44.172  54.214  1.00  0.00     0.035 C 
HETATM    6  C   UNL     1      25.841  43.907  52.889  1.00  0.00     0.235 C 
ENDROOT
BRANCH   1   7
HETATM    7  C   UNL     1      25.882  45.450  50.890  1.00  0.00     0.276 C 
BRANCH   7   8
HETATM    8  C   UNL     1      24.854  46.204  50.097  1.00  0.00     0.005 A 
HETATM    9  C   UNL     1      24.940  47.591  49.935  1.00  0.00     0.107 A 
HETATM   10  C   UNL     1      23.961  48.327  49.253  1.00  0.00     0.103 A 
HETATM   11  C   UNL     1      22.878  47.656  48.693  1.00  0.00     0.058 A 
HETATM   12  C   UNL     1      22.781  46.269  48.838  1.00  0.00     0.014 A 
HETATM   13  C   UNL     1      23.750  45.546  49.541  1.00  0.00     0.030 A 
HETATM   14 BR   UNL     1      21.320  45.348  48.070  1.00  0.00    -0.051 Br
BRANCH   9  15
HETATM   15  O   UNL     1      26.034  48.245  50.454  1.00  0.00    -0.357 OA
HETATM   16  H   UNL     1      26.121  47.883  51.367  1.00  0.00     0.218 HD
ENDBRANCH   9  15
BRANCH  10  17
HETATM   17  O   UNL     1      24.193  49.677  49.202  1.00  0.00    -0.353 OA
HETATM   18  C   UNL     1      23.904  50.325  47.964  1.00  0.00     0.210 C 
ENDBRANCH  10  17
ENDBRANCH   7   8
ENDBRANCH   1   7
BRANCH   4  19
HETATM   19  C   UNL     1      27.665  46.214  55.300  1.00  0.00     0.127 C 
BRANCH  19  20
HETATM   20  N   UNL     1      29.127  46.324  55.334  1.00  0.00    -0.376 N 
HETATM   21  H   UNL     1      29.473  47.276  55.413  1.00  0.00     0.161 HD
BRANCH  20  22
HETATM   22  C   UNL     1      29.881  45.350  55.974  1.00  0.00     0.100 A 
HETATM   23  N   UNL     1      30.299  45.590  57.232  1.00  0.00    -0.353 N 
HETATM   24  H   UNL     1      30.047  46.474  57.661  1.00  0.00     0.166 HD
HETATM   25  C   UNL     1      31.044  44.735  57.949  1.00  0.00     0.089 A 
HETATM   26  C   UNL     1      31.443  43.528  57.400  1.00  0.00     0.017 A 
HETATM   27  C   UNL     1      31.068  43.235  56.098  1.00  0.00     0.005 A 
HETATM   28  C   UNL     1      30.292  44.147  55.382  1.00  0.00     0.048 A 
ENDBRANCH  20  22
ENDBRANCH  19  20
ENDBRANCH   4  19
TORSDOF 7
ENDMDL
MODEL 4
REMARK VINA RESULT:      -7.5      1.886      2.389
REMARK  7 active torsions:
REMARK  status: ('A' for Active; 'I' for Inactive)
REMARK    1  A    between atoms: O_2  and  C_3 
REMARK    2  A    between atoms: C_4  and  O_5 
REMARK    3  A    between atoms: C_6  and  C_7 
REMARK    4  A    between atoms: C_7  and  N_8 
REMARK    5  A    between atoms: C_11  and  C_12 
REMARK    6  A    between atoms: C_12  and  N_13 
REMARK    7  A    between atoms: N_13  and  C_14 
ROOT
HETATM    1  N   UNL     1      26.407  43.923  51.089  1.00  0.00    -0.067 N 
HETATM    2  H   UNL     1      26.686  44.199  50.127  1.00  0.00     0.280 HD
HETATM    3  C   UNL     1      27.625  44.003  51.976  1.00  0.00     0.241 C 
HETATM    4  C   UNL     1      27.089  44.599  53.271  1.00  0.00     0.031 C 
HETATM    5  C   UNL     1      26.097  45.634  52.745  1.00  0.00     0.035 C 
HETATM    6  C   UNL     1      25.388  44.911  51.607  1.00  0.00     0.235 C 
ENDROOT
BRANCH   1   7
HETATM    7  C   UNL     1      25.848  42.534  50.889  1.00  0.00     0.276 C 
BRANCH   7   8
HETATM    8  C   UNL     1      26.790  41.602  50.182  1.00  0.00     0.005 A 
HETATM    9  C   UNL     1      27.556  40.672  50.893  1.00  0.00     0.107 A 
HETATM   10  C   UNL     1      28.489  39.834  50.265  1.00  0.00     0.103 A 
HETATM   11  C   UNL     1      28.640  39.907  48.883  1.00  0.00     0.058 A 
HETATM   12  C   UNL     1      27.875  40.824  48.157  1.00  0.00     0.014 A 
HETATM   13  C   UNL     1      26.966  41.673  48.795  1.00  0.00     0.030 A 
HETATM   14 BR   UNL     1      28.066  40.920  46.278  1.00  0.00    -0.051 Br
BRANCH   9  15
HETATM   15  O   UNL     1      27.373  40.575  52.253  1.00  0.00    -0.357 OA
HETATM   16  H   UNL     1      27.532  41.490  52.585  1.00  0.00     0.218 HD
ENDBRANCH   9  15
BRANCH  10  17
HETATM   17  O   UNL     1      29.165  38.996  51.112  1.00  0.00    -0.353 OA
HETATM   18  C   UNL     1      29.830  37.886  50.511  1.00  0.00     0.210 C 
ENDBRANCH  10  17
ENDBRANCH   7   8
ENDBRANCH   1   7
BRANCH   4  19
HETATM   19  C   UNL     1      28.195  45.181  54.159  1.00  0.00     0.127 C 
BRANCH  19  20
HETATM   20  N   UNL     1      29.227  44.171  54.413  1.00  0.00    -0.376 N 
HETATM   21  H   UNL     1      29.728  43.865  53.584  1.00  0.00     0.161 HD
BRANCH  20  22
HETATM   22  C   UNL     1      29.969  44.219  55.586  1.00  0.00     0.100 A 
HETATM   23  N   UNL     1      29.802  45.275  56.405  1.00  0.00    -0.353 N 
HETATM   24  H   UNL     1      29.141  45.995  56.130  1.00  0.00     0.166 HD
HETATM   25  C   UNL     1      30.470  45.443  57.556  1.00  0.00     0.089 A 
HETATM   26  C   UNL     1      31.408  44.508  57.961  1.00  0.00     0.017 A 
HETATM   27  C   UNL     1      31.645  43.411  57.146  1.00  0.00     0.005 A 
HETATM   28  C   UNL     1      30.931  43.268  55.956  1.00  0.00     0.048 A 
ENDBRANCH  20  22
ENDBRANCH  19  20
ENDBRANCH   4  19
TORSDOF 7
ENDMDL
MODEL 5
REMARK VINA RESULT:      -7.5      3.669      6.914
REMARK  7 active torsions:
REMARK  status: ('A' for Active; 'I' for Inactive)
REMARK    1  A    between atoms: O_2  and  C_3 
REMARK    2  A    between atoms: C_4  and  O_5 
REMARK    3  A    between atoms: C_6  and  C_7 
REMARK    4  A    between atoms: C_7  and  N_8 
REMARK    5  A    between atoms: C_11  and  C_12 
REMARK    6  A    between atoms: C_12  and  N_13 
REMARK    7  A    between atoms: N_13  and  C_14 
ROOT
HETATM    1  N   UNL     1      27.151  44.897  53.271  1.00  0.00    -0.067 N 
HETATM    2  H   UNL     1      27.414  45.817  52.862  1.00  0.00     0.280 HD
HETATM    3  C   UNL     1      27.753  43.811  52.416  1.00  0.00     0.241 C 
HETATM    4  C   UNL     1      28.240  42.783  53.430  1.00  0.00     0.031 C 
HETATM    5  C   UNL     1      28.790  43.680  54.536  1.00  0.00     0.035 C 
HETATM    6  C   UNL     1      27.751  44.787  54.654  1.00  0.00     0.235 C 
ENDROOT
BRANCH   1   7
HETATM    7  C   UNL     1      25.642  44.952  53.274  1.00  0.00     0.276 C 
BRANCH   7   8
HETATM    8  C   UNL     1      25.051  45.358  51.955  1.00  0.00     0.005 A 
HETATM    9  C   UNL     1      25.150  46.675  51.493  1.00  0.00     0.107 A 
HETATM   10  C   UNL     1      24.554  47.095  50.295  1.00  0.00     0.103 A 
HETATM   11  C   UNL     1      23.863  46.166  49.522  1.00  0.00     0.058 A 
HETATM   12  C   UNL     1      23.763  44.844  49.964  1.00  0.00     0.014 A 
HETATM   13  C   UNL     1      24.340  44.440  51.172  1.00  0.00     0.030 A 
HETATM   14 BR   UNL     1      22.837  43.573  48.913  1.00  0.00    -0.051 Br
BRANCH   9  15
HETATM   15  O   UNL     1      25.868  47.580  52.239  1.00  0.00    -0.357 OA
HETATM   16  H   UNL     1      26.240  48.203  51.571  1.00  0.00     0.218 HD
ENDBRANCH   9  15
BRANCH  10  17
HETATM   17  O   UNL     1      24.734  48.421  50.001  1.00  0.00    -0.353 OA
HETATM   18  C   UNL     1      24.067  48.910  48.838  1.00  0.00     0.210 C 
ENDBRANCH  10  17
ENDBRANCH   7   8
ENDBRANCH   1   7
BRANCH   4  19
HETATM   19  C   UNL     1      29.266  41.809  52.840  1.00  0.00     0.127 C 
BRANCH  19  20
HETATM   20  N   UNL     1      28.636  40.515  52.557  1.00  0.00    -0.376 N 
HETATM   21  H   UNL     1      27.737  40.379  53.009  1.00  0.00     0.161 HD
BRANCH  20  22
HETATM   22  C   UNL     1      28.780  39.934  51.304  1.00  0.00     0.100 A 
HETATM   23  N   UNL     1      29.467  38.779  51.210  1.00  0.00    -0.353 N 
HETATM   24  H   UNL     1      29.855  38.381  52.060  1.00  0.00     0.166 HD
HETATM   25  C   UNL     1      29.687  38.130  50.057  1.00  0.00     0.089 A 
HETATM   26  C   UNL     1      29.209  38.648  48.864  1.00  0.00     0.017 A 
HETATM   27  C   UNL     1      28.517  39.848  48.892  1.00  0.00     0.005 A 
HETATM   28  C   UNL     1      28.307  40.496  50.110  1.00  0.00     0.048 A 
ENDBRANCH  20  22
ENDBRANCH  19  20
ENDBRANCH   4  19
TORSDOF 7
ENDMDL
MODEL 6
REMARK VINA RESULT:      -7.5      3.377      6.890
REMARK  7 active torsions:
REMARK  status: ('A' for Active; 'I' for Inactive)
REMARK    1  A    between atoms: O_2  and  C_3 
REMARK    2  A    between atoms: C_4  and  O_5 
REMARK    3  A    between atoms: C_6  and  C_7 
REMARK    4  A    between atoms: C_7  and  N_8 
REMARK    5  A    between atoms: C_11  and  C_12 
REMARK    6  A    between atoms: C_12  and  N_13 
REMARK    7  A    between atoms: N_13  and  C_14 
ROOT
HETATM    1  N   UNL     1      28.254  45.009  53.824  1.00  0.00    -0.067 N 
HETATM    2  H   UNL     1      28.744  45.844  53.446  1.00  0.00     0.280 HD
HETATM    3  C   UNL     1      28.363  43.898  52.810  1.00  0.00     0.241 C 
HETATM    4  C   UNL     1      28.618  42.659  53.659  1.00  0.00     0.031 C 
HETATM    5  C   UNL     1      29.561  43.208  54.726  1.00  0.00     0.035 C 
HETATM    6  C   UNL     1      28.956  44.559  55.085  1.00  0.00     0.235 C 
ENDROOT
BRANCH   1   7
HETATM    7  C   UNL     1      26.855  45.523  54.068  1.00  0.00     0.276 C 
BRANCH   7   8
HETATM    8  C   UNL     1      26.032  45.645  52.817  1.00  0.00     0.005 A 
HETATM    9  C   UNL     1      25.068  44.686  52.490  1.00  0.00     0.107 A 
HETATM   10  C   UNL     1      24.331  44.742  51.298  1.00  0.00     0.103 A 
HETATM   11  C   UNL     1      24.543  45.803  50.422  1.00  0.00     0.058 A 
HETATM   12  C   UNL     1      25.495  46.775  50.739  1.00  0.00     0.014 A 
HETATM   13  C   UNL     1      26.244  46.697  51.917  1.00  0.00     0.030 A 
HETATM   14 BR   UNL     1      25.780  48.225  49.559  1.00  0.00    -0.051 Br
BRANCH   9  15
HETATM   15  O   UNL     1      24.833  43.663  53.378  1.00  0.00    -0.357 OA
HETATM   16  H   UNL     1      24.431  44.110  54.161  1.00  0.00     0.218 HD
ENDBRANCH   9  15
BRANCH  10  17
HETATM   17  O   UNL     1      23.442  43.714  51.128  1.00  0.00    -0.353 OA
HETATM   18  C   UNL     1      23.486  43.038  49.872  1.00  0.00     0.210 C 
ENDBRANCH  10  17
ENDBRANCH   7   8
ENDBRANCH   1   7
BRANCH   4  19
HETATM   19  C   UNL     1      29.195  41.493  52.847  1.00  0.00     0.127 C 
BRANCH  19  20
HETATM   20  N   UNL     1      28.117  40.748  52.189  1.00  0.00    -0.376 N 
HETATM   21  H   UNL     1      27.263  40.676  52.735  1.00  0.00     0.161 HD
BRANCH  20  22
HETATM   22  C   UNL     1      27.951  40.841  50.813  1.00  0.00     0.100 A 
HETATM   23  N   UNL     1      28.769  40.121  50.021  1.00  0.00    -0.353 N 
HETATM   24  H   UNL     1      29.475  39.540  50.462  1.00  0.00     0.166 HD
HETATM   25  C   UNL     1      28.718  40.137  48.680  1.00  0.00     0.089 A 
HETATM   26  C   UNL     1      27.795  40.937  48.028  1.00  0.00     0.017 A 
HETATM   27  C   UNL     1      26.943  41.723  48.789  1.00  0.00     0.005 A 
HETATM   28  C   UNL     1      27.024  41.681  50.181  1.00  0.00     0.048 A 
ENDBRANCH  20  22
ENDBRANCH  19  20
ENDBRANCH   4  19
TORSDOF 7
ENDMDL
MODEL 7
REMARK VINA RESULT:      -7.4      5.479      9.388
REMARK  7 active torsions:
REMARK  status: ('A' for Active; 'I' for Inactive)
REMARK    1  A    between atoms: O_2  and  C_3 
REMARK    2  A    between atoms: C_4  and  O_5 
REMARK    3  A    between atoms: C_6  and  C_7 
REMARK    4  A    between atoms: C_7  and  N_8 
REMARK    5  A    between atoms: C_11  and  C_12 
REMARK    6  A    between atoms: C_12  and  N_13 
REMARK    7  A    between atoms: N_13  and  C_14 
ROOT
HETATM    1  N   UNL     1      25.664  45.807  51.119  1.00  0.00    -0.067 N 
HETATM    2  H   UNL     1      26.694  45.947  51.116  1.00  0.00     0.280 HD
HETATM    3  C   UNL     1      25.012  47.088  50.663  1.00  0.00     0.241 C 
HETATM    4  C   UNL     1      23.878  46.614  49.762  1.00  0.00     0.031 C 
HETATM    5  C   UNL     1      24.537  45.447  49.030  1.00  0.00     0.035 C 
HETATM    6  C   UNL     1      25.314  44.726  50.123  1.00  0.00     0.235 C 
ENDROOT
BRANCH   1   7
HETATM    7  C   UNL     1      25.384  45.416  52.551  1.00  0.00     0.276 C 
BRANCH   7   8
HETATM    8  C   UNL     1      26.624  45.204  53.371  1.00  0.00     0.005 A 
HETATM    9  C   UNL     1      26.881  45.980  54.506  1.00  0.00     0.107 A 
HETATM   10  C   UNL     1      28.061  45.846  55.253  1.00  0.00     0.103 A 
HETATM   11  C   UNL     1      28.997  44.889  54.871  1.00  0.00     0.058 A 
HETATM   12  C   UNL     1      28.751  44.100  53.745  1.00  0.00     0.014 A 
HETATM   13  C   UNL     1      27.584  44.258  52.992  1.00  0.00     0.030 A 
HETATM   14 BR   UNL     1      30.013  42.790  53.226  1.00  0.00    -0.051 Br
BRANCH   9  15
HETATM   15  O   UNL     1      25.934  46.895  54.904  1.00  0.00    -0.357 OA
HETATM   16  H   UNL     1      26.354  47.363  55.664  1.00  0.00     0.218 HD
ENDBRANCH   9  15
BRANCH  10  17
HETATM   17  O   UNL     1      28.159  46.695  56.324  1.00  0.00    -0.353 OA
HETATM   18  C   UNL     1      28.734  46.155  57.513  1.00  0.00     0.210 C 
ENDBRANCH  10  17
ENDBRANCH   7   8
ENDBRANCH   1   7
BRANCH   4  19
HETATM   19  C   UNL     1      23.352  47.720  48.840  1.00  0.00     0.127 C 
BRANCH  19  20
HETATM   20  N   UNL     1      23.047  48.927  49.615  1.00  0.00    -0.376 N 
HETATM   21  H   UNL     1      23.851  49.520  49.801  1.00  0.00     0.161 HD
BRANCH  20  22
HETATM   22  C   UNL     1      21.839  49.585  49.427  1.00  0.00     0.100 A 
HETATM   23  N   UNL     1      20.701  48.930  49.728  1.00  0.00    -0.353 N 
HETATM   24  H   UNL     1      20.773  47.980  50.080  1.00  0.00     0.166 HD
HETATM   25  C   UNL     1      19.474  49.451  49.575  1.00  0.00     0.089 A 
HETATM   26  C   UNL     1      19.319  50.730  49.068  1.00  0.00     0.017 A 
HETATM   27  C   UNL     1      20.452  51.445  48.713  1.00  0.00     0.005 A 
HETATM   28  C   UNL     1      21.712  50.872  48.886  1.00  0.00     0.048 A 
ENDBRANCH  20  22
ENDBRANCH  19  20
ENDBRANCH   4  19
TORSDOF 7
ENDMDL
MODEL 8
REMARK VINA RESULT:      -7.4      4.511      8.092
REMARK  7 active torsions:
REMARK  status: ('A' for Active; 'I' for Inactive)
REMARK    1  A    between atoms: O_2  and  C_3 
REMARK    2  A    between atoms: C_4  and  O_5 
REMARK    3  A    between atoms: C_6  and  C_7 
REMARK    4  A    between atoms: C_7  and  N_8 
REMARK    5  A    between atoms: C_11  and  C_12 
REMARK    6  A    between atoms: C_12  and  N_13 
REMARK    7  A    between atoms: N_13  and  C_14 
ROOT
HETATM    1  N   UNL     1      27.472  43.279  51.868  1.00  0.00    -0.067 N 
HETATM    2  H   UNL     1      28.507  43.249  51.778  1.00  0.00     0.280 HD
HETATM    3  C   UNL     1      26.986  44.588  51.298  1.00  0.00     0.241 C 
HETATM    4  C   UNL     1      25.720  44.204  50.542  1.00  0.00     0.031 C 
HETATM    5  C   UNL     1      26.127  42.869  49.921  1.00  0.00     0.035 C 
HETATM    6  C   UNL     1      26.877  42.162  51.043  1.00  0.00     0.235 C 
ENDROOT
BRANCH   1   7
HETATM    7  C   UNL     1      27.261  43.106  53.353  1.00  0.00     0.276 C 
BRANCH   7   8
HETATM    8  C   UNL     1      27.877  44.198  54.180  1.00  0.00     0.005 A 
HETATM    9  C   UNL     1      29.117  44.021  54.802  1.00  0.00     0.107 A 
HETATM   10  C   UNL     1      29.685  45.000  55.631  1.00  0.00     0.103 A 
HETATM   11  C   UNL     1      29.008  46.201  55.820  1.00  0.00     0.058 A 
HETATM   12  C   UNL     1      27.772  46.397  55.199  1.00  0.00     0.014 A 
HETATM   13  C   UNL     1      27.201  45.406  54.395  1.00  0.00     0.030 A 
HETATM   14 BR   UNL     1      26.852  48.031  55.442  1.00  0.00    -0.051 Br
BRANCH   9  15
HETATM   15  O   UNL     1      29.802  42.849  54.578  1.00  0.00    -0.357 OA
HETATM   16  H   UNL     1      30.636  42.954  55.095  1.00  0.00     0.218 HD
ENDBRANCH   9  15
BRANCH  10  17
HETATM   17  O   UNL     1      30.896  44.656  56.172  1.00  0.00    -0.353 OA
HETATM   18  C   UNL     1      30.969  44.628  57.597  1.00  0.00     0.210 C 
ENDBRANCH  10  17
ENDBRANCH   7   8
ENDBRANCH   1   7
BRANCH   4  19
HETATM   19  C   UNL     1      25.291  45.267  49.525  1.00  0.00     0.127 C 
BRANCH  19  20
HETATM   20  N   UNL     1      25.112  46.563  50.188  1.00  0.00    -0.376 N 
HETATM   21  H   UNL     1      25.095  46.516  51.202  1.00  0.00     0.161 HD
BRANCH  20  22
HETATM   22  C   UNL     1      25.685  47.704  49.643  1.00  0.00     0.100 A 
HETATM   23  N   UNL     1      24.876  48.608  49.056  1.00  0.00    -0.353 N 
HETATM   24  H   UNL     1      23.879  48.417  49.035  1.00  0.00     0.166 HD
HETATM   25  C   UNL     1      25.310  49.740  48.482  1.00  0.00     0.089 A 
HETATM   26  C   UNL     1      26.663  50.033  48.455  1.00  0.00     0.017 A 
HETATM   27  C   UNL     1      27.549  49.128  49.018  1.00  0.00     0.005 A 
HETATM   28  C   UNL     1      27.063  47.960  49.607  1.00  0.00     0.048 A 
ENDBRANCH  20  22
ENDBRANCH  19  20
ENDBRANCH   4  19
TORSDOF 7
ENDMDL
MODEL 9
REMARK VINA RESULT:      -7.4      5.848      8.925
REMARK  7 active torsions:
REMARK  status: ('A' for Active; 'I' for Inactive)
REMARK    1  A    between atoms: O_2  and  C_3 
REMARK    2  A    between atoms: C_4  and  O_5 
REMARK    3  A    between atoms: C_6  and  C_7 
REMARK    4  A    between atoms: C_7  and  N_8 
REMARK    5  A    between atoms: C_11  and  C_12 
REMARK    6  A    between atoms: C_12  and  N_13 
REMARK    7  A    between atoms: N_13  and  C_14 
ROOT
HETATM    1  N   UNL     1      25.842  47.167  50.110  1.00  0.00    -0.067 N 
HETATM    2  H   UNL     1      26.177  47.244  51.091  1.00  0.00     0.280 HD
HETATM    3  C   UNL     1      24.341  47.016  50.134  1.00  0.00     0.241 C 
HETATM    4  C   UNL     1      23.874  47.880  48.969  1.00  0.00     0.031 C 
HETATM    5  C   UNL     1      24.815  49.077  49.079  1.00  0.00     0.035 C 
HETATM    6  C   UNL     1      26.169  48.447  49.377  1.00  0.00     0.235 C 
ENDROOT
BRANCH   1   7
HETATM    7  C   UNL     1      26.601  45.968  49.592  1.00  0.00     0.276 C 
BRANCH   7   8
HETATM    8  C   UNL     1      26.834  44.908  50.630  1.00  0.00     0.005 A 
HETATM    9  C   UNL     1      26.933  43.559  50.276  1.00  0.00     0.107 A 
HETATM   10  C   UNL     1      27.088  42.544  51.232  1.00  0.00     0.103 A 
HETATM   11  C   UNL     1      27.174  42.890  52.577  1.00  0.00     0.058 A 
HETATM   12  C   UNL     1      27.086  44.234  52.947  1.00  0.00     0.014 A 
HETATM   13  C   UNL     1      26.907  45.237  51.989  1.00  0.00     0.030 A 
HETATM   14 BR   UNL     1      27.215  44.713  54.772  1.00  0.00    -0.051 Br
BRANCH   9  15
HETATM   15  O   UNL     1      26.890  43.225  48.942  1.00  0.00    -0.357 OA
HETATM   16  H   UNL     1      27.281  42.321  48.906  1.00  0.00     0.218 HD
ENDBRANCH   9  15
BRANCH  10  17
HETATM   17  O   UNL     1      27.151  41.277  50.714  1.00  0.00    -0.353 OA
HETATM   18  C   UNL     1      28.304  40.508  51.054  1.00  0.00     0.210 C 
ENDBRANCH  10  17
ENDBRANCH   7   8
ENDBRANCH   1   7
BRANCH   4  19
HETATM   19  C   UNL     1      22.386  48.238  49.056  1.00  0.00     0.127 C 
BRANCH  19  20
HETATM   20  N   UNL     1      22.204  49.478  49.818  1.00  0.00    -0.376 N 
HETATM   21  H   UNL     1      23.064  49.991  49.995  1.00  0.00     0.161 HD
BRANCH  20  22
HETATM   22  C   UNL     1      21.067  50.250  49.623  1.00  0.00     0.100 A 
HETATM   23  N   UNL     1      19.962  49.949  50.333  1.00  0.00    -0.353 N 
HETATM   24  H   UNL     1      20.005  49.169  50.980  1.00  0.00     0.166 HD
HETATM   25  C   UNL     1      18.799  50.610  50.223  1.00  0.00     0.089 A 
HETATM   26  C   UNL     1      18.676  51.661  49.330  1.00  0.00     0.017 A 
HETATM   27  C   UNL     1      19.771  52.001  48.551  1.00  0.00     0.005 A 
HETATM   28  C   UNL     1      20.965  51.293  48.692  1.00  0.00     0.048 A 
ENDBRANCH  20  22
ENDBRANCH  19  20
ENDBRANCH   4  19
TORSDOF 7
ENDMDL
MODEL 10
REMARK VINA RESULT:      -7.3      5.381      8.804
REMARK  7 active torsions:
REMARK  status: ('A' for Active; 'I' for Inactive)
REMARK    1  A    between atoms: O_2  and  C_3 
REMARK    2  A    between atoms: C_4  and  O_5 
REMARK    3  A    between atoms: C_6  and  C_7 
REMARK    4  A    between atoms: C_7  and  N_8 
REMARK    5  A    between atoms: C_11  and  C_12 
REMARK    6  A    between atoms: C_12  and  N_13 
REMARK    7  A    between atoms: N_13  and  C_14 
ROOT
HETATM    1  N   UNL     1      25.926  45.935  51.442  1.00  0.00    -0.067 N 
HETATM    2  H   UNL     1      26.958  46.062  51.450  1.00  0.00     0.280 HD
HETATM    3  C   UNL     1      25.288  47.271  51.149  1.00  0.00     0.241 C 
HETATM    4  C   UNL     1      24.144  46.924  50.204  1.00  0.00     0.031 C 
HETATM    5  C   UNL     1      24.783  45.846  49.332  1.00  0.00     0.035 C 
HETATM    6  C   UNL     1      25.556  44.988  50.325  1.00  0.00     0.235 C 
ENDROOT
BRANCH   1   7
HETATM    7  C   UNL     1      25.648  45.378  52.819  1.00  0.00     0.276 C 
BRANCH   7   8
HETATM    8  C   UNL     1      26.815  44.651  53.421  1.00  0.00     0.005 A 
HETATM    9  C   UNL     1      27.004  43.282  53.204  1.00  0.00     0.107 A 
HETATM   10  C   UNL     1      28.050  42.566  53.805  1.00  0.00     0.103 A 
HETATM   11  C   UNL     1      28.949  43.243  54.624  1.00  0.00     0.058 A 
HETATM   12  C   UNL     1      28.779  44.613  54.844  1.00  0.00     0.014 A 
HETATM   13  C   UNL     1      27.719  45.313  54.261  1.00  0.00     0.030 A 
HETATM   14 BR   UNL     1      30.003  45.542  55.947  1.00  0.00    -0.051 Br
BRANCH   9  15
HETATM   15  O   UNL     1      26.138  42.626  52.360  1.00  0.00    -0.357 OA
HETATM   16  H   UNL     1      26.441  41.687  52.386  1.00  0.00     0.218 HD
ENDBRANCH   9  15
BRANCH  10  17
HETATM   17  O   UNL     1      28.078  41.231  53.498  1.00  0.00    -0.353 OA
HETATM   18  C   UNL     1      29.030  40.826  52.515  1.00  0.00     0.210 C 
ENDBRANCH  10  17
ENDBRANCH   7   8
ENDBRANCH   1   7
BRANCH   4  19
HETATM   19  C   UNL     1      23.628  48.139  49.427  1.00  0.00     0.127 C 
BRANCH  19  20
HETATM   20  N   UNL     1      22.168  48.083  49.303  1.00  0.00    -0.376 N 
HETATM   21  H   UNL     1      21.737  47.295  49.778  1.00  0.00     0.161 HD
BRANCH  20  22
HETATM   22  C   UNL     1      21.428  49.258  49.286  1.00  0.00     0.100 A 
HETATM   23  N   UNL     1      20.372  49.360  50.116  1.00  0.00    -0.353 N 
HETATM   24  H   UNL     1      20.159  48.573  50.721  1.00  0.00     0.166 HD
HETATM   25  C   UNL     1      19.573  50.436  50.182  1.00  0.00     0.089 A 
HETATM   26  C   UNL     1      19.799  51.524  49.355  1.00  0.00     0.017 A 
HETATM   27  C   UNL     1      20.854  51.467  48.458  1.00  0.00     0.005 A 
HETATM   28  C   UNL     1      21.666  50.332  48.418  1.00  0.00     0.048 A 
ENDBRANCH  20  22
ENDBRANCH  19  20
ENDBRANCH   4  19
TORSDOF 7
ENDMDL
