MODEL 1
REMARK VINA RESULT:      -8.5      0.000      0.000
REMARK  6 active torsions:
REMARK  status: ('A' for Active; 'I' for Inactive)
REMARK    1  A    between atoms: C_2  and  N_3 
REMARK    2  A    between atoms: N_3  and  C_5 
REMARK    3  A    between atoms: N_3  and  C_28 
REMARK    4  A    between atoms: C_8  and  C_9 
REMARK    5  A    between atoms: N_10  and  C_11 
REMARK    6  A    between atoms: C_11  and  C_12 
ROOT
HETATM    1  C   UNL     1      25.643  45.757  52.194  1.00  0.00     0.222 C 
HETATM    2  N   UNL     1      26.195  46.267  50.957  1.00  0.00    -0.316 N 
HETATM    3  C   UNL     1      26.711  45.413  49.996  1.00  0.00     0.258 C 
HETATM    4  O   UNL     1      27.470  45.779  49.104  1.00  0.00    -0.267 OA
HETATM    5  C   UNL     1      26.288  43.998  50.073  1.00  0.00     0.058 A 
HETATM    6  C   UNL     1      25.338  43.646  51.038  1.00  0.00     0.045 A 
HETATM    7  N   UNL     1      24.809  44.603  51.903  1.00  0.00    -0.364 N 
HETATM    8  C   UNL     1      26.768  43.058  49.153  1.00  0.00     0.019 A 
HETATM    9  C   UNL     1      26.275  41.755  49.177  1.00  0.00     0.001 A 
HETATM   10  C   UNL     1      25.296  41.403  50.105  1.00  0.00     0.002 A 
HETATM   11  C   UNL     1      24.822  42.347  51.020  1.00  0.00     0.030 A 
HETATM   12  H   UNL     1      24.317  44.219  52.699  1.00  0.00     0.162 HD
ENDROOT
BRANCH   1  13
HETATM   13  C   UNL     1      26.686  45.428  53.278  1.00  0.00    -0.016 A 
HETATM   14  C   UNL     1      27.262  44.152  53.420  1.00  0.00     0.013 A 
HETATM   15  C   UNL     1      28.263  43.903  54.367  1.00  0.00     0.038 A 
HETATM   16  C   UNL     1      28.693  44.922  55.213  1.00  0.00     0.134 A 
HETATM   17  C   UNL     1      28.123  46.194  55.104  1.00  0.00     0.038 A 
HETATM   18  C   UNL     1      27.142  46.444  54.139  1.00  0.00     0.013 A 
BRANCH  16  19
HETATM   19  N   UNL     1      29.784  44.721  56.195  1.00  0.00    -0.042 N 
HETATM   20  H   UNL     1      29.335  44.263  56.998  1.00  0.00     0.286 HD
BRANCH  19  21
HETATM   21  C   UNL     1      30.331  46.014  56.755  1.00  0.00     0.237 C 
HETATM   22  C   UNL     1      30.141  46.076  58.263  1.00  0.00     0.035 C 
ENDBRANCH  19  21
BRANCH  19  23
HETATM   23  C   UNL     1      30.804  43.704  55.739  1.00  0.00     0.237 C 
HETATM   24  C   UNL     1      31.629  43.095  56.859  1.00  0.00     0.035 C 
ENDBRANCH  19  23
ENDBRANCH  16  19
ENDBRANCH   1  13
BRANCH   2  25
HETATM   25  C   UNL     1      26.418  47.702  50.834  1.00  0.00     0.193 C 
BRANCH  25  26
HETATM   26  C   UNL     1      25.398  48.296  49.934  1.00  0.00     0.070 A 
HETATM   27  O   UNL     1      24.093  48.008  50.213  1.00  0.00    -0.325 OA
HETATM   28  C   UNL     1      23.340  48.646  49.280  1.00  0.00     0.142 A 
HETATM   29  C   UNL     1      24.144  49.332  48.399  1.00  0.00     0.027 A 
HETATM   30  C   UNL     1      25.475  49.106  48.819  1.00  0.00     0.036 A 
ENDBRANCH  25  26
ENDBRANCH   2  25
TORSDOF 6
ENDMDL
MODEL 2
REMARK VINA RESULT:      -8.5      2.149      5.023
REMARK  6 active torsions:
REMARK  status: ('A' for Active; 'I' for Inactive)
REMARK    1  A    between atoms: C_2  and  N_3 
REMARK    2  A    between atoms: N_3  and  C_5 
REMARK    3  A    between atoms: N_3  and  C_28 
REMARK    4  A    between atoms: C_8  and  C_9 
REMARK    5  A    between atoms: N_10  and  C_11 
REMARK    6  A    between atoms: C_11  and  C_12 
ROOT
HETATM    1  C   UNL     1      27.634  43.171  50.843  1.00  0.00     0.222 C 
HETATM    2  N   UNL     1      26.297  42.616  50.861  1.00  0.00    -0.316 N 
HETATM    3  C   UNL     1      25.186  43.430  51.016  1.00  0.00     0.258 C 
HETATM    4  O   UNL     1      24.086  43.012  51.364  1.00  0.00    -0.267 OA
HETATM    5  C   UNL     1      25.372  44.867  50.720  1.00  0.00     0.058 A 
HETATM    6  C   UNL     1      26.611  45.281  50.222  1.00  0.00     0.045 A 
HETATM    7  N   UNL     1      27.642  44.365  50.016  1.00  0.00    -0.364 N 
HETATM    8  C   UNL     1      24.309  45.767  50.861  1.00  0.00     0.019 A 
HETATM    9  C   UNL     1      24.476  47.096  50.474  1.00  0.00     0.001 A 
HETATM   10  C   UNL     1      25.692  47.513  49.936  1.00  0.00     0.002 A 
HETATM   11  C   UNL     1      26.748  46.607  49.799  1.00  0.00     0.030 A 
HETATM   12  H   UNL     1      28.552  44.785  49.879  1.00  0.00     0.162 HD
ENDROOT
BRANCH   1  13
HETATM   13  C   UNL     1      28.235  43.455  52.232  1.00  0.00    -0.016 A 
HETATM   14  C   UNL     1      29.417  42.844  52.691  1.00  0.00     0.013 A 
HETATM   15  C   UNL     1      29.979  43.179  53.928  1.00  0.00     0.038 A 
HETATM   16  C   UNL     1      29.356  44.117  54.748  1.00  0.00     0.134 A 
HETATM   17  C   UNL     1      28.171  44.724  54.323  1.00  0.00     0.038 A 
HETATM   18  C   UNL     1      27.627  44.404  53.074  1.00  0.00     0.013 A 
BRANCH  16  19
HETATM   19  N   UNL     1      29.939  44.540  56.042  1.00  0.00    -0.042 N 
HETATM   20  H   UNL     1      29.469  43.958  56.746  1.00  0.00     0.286 HD
BRANCH  19  21
HETATM   21  C   UNL     1      29.582  45.958  56.424  1.00  0.00     0.237 C 
HETATM   22  C   UNL     1      28.988  46.010  57.824  1.00  0.00     0.035 C 
ENDBRANCH  19  21
BRANCH  19  23
HETATM   23  C   UNL     1      31.393  44.156  56.185  1.00  0.00     0.237 C 
HETATM   24  C   UNL     1      31.718  43.381  57.449  1.00  0.00     0.035 C 
ENDBRANCH  19  23
ENDBRANCH  16  19
ENDBRANCH   1  13
BRANCH   2  25
HETATM   25  C   UNL     1      26.145  41.170  50.954  1.00  0.00     0.193 C 
BRANCH  25  26
HETATM   26  C   UNL     1      27.137  40.500  50.076  1.00  0.00     0.070 A 
HETATM   27  O   UNL     1      26.917  40.581  48.731  1.00  0.00    -0.325 OA
HETATM   28  C   UNL     1      27.931  39.911  48.125  1.00  0.00     0.142 A 
HETATM   29  C   UNL     1      28.794  39.392  49.062  1.00  0.00     0.027 A 
HETATM   30  C   UNL     1      28.281  39.771  50.325  1.00  0.00     0.036 A 
ENDBRANCH  25  26
ENDBRANCH   2  25
TORSDOF 6
ENDMDL
MODEL 3
REMARK VINA RESULT:      -7.8     12.080     14.321
REMARK  6 active torsions:
REMARK  status: ('A' for Active; 'I' for Inactive)
REMARK    1  A    between atoms: C_2  and  N_3 
REMARK    2  A    between atoms: N_3  and  C_5 
REMARK    3  A    between atoms: N_3  and  C_28 
REMARK    4  A    between atoms: C_8  and  C_9 
REMARK    5  A    between atoms: N_10  and  C_11 
REMARK    6  A    between atoms: C_11  and  C_12 
ROOT
HETATM    1  C   UNL     1      31.136  51.241  39.605  1.00  0.00     0.222 C 
HETATM    2  N   UNL     1      30.298  52.195  40.301  1.00  0.00    -0.316 N 
HETATM    3  C   UNL     1      30.439  52.412  41.662  1.00  0.00     0.258 C 
HETATM    4  O   UNL     1      29.574  52.938  42.356  1.00  0.00    -0.267 OA
HETATM    5  C   UNL     1      31.720  51.991  42.271  1.00  0.00     0.058 A 
HETATM    6  C   UNL     1      32.718  51.497  41.426  1.00  0.00     0.045 A 
HETATM    7  N   UNL     1      32.509  51.401  40.051  1.00  0.00    -0.364 N 
HETATM    8  C   UNL     1      31.947  52.159  43.642  1.00  0.00     0.019 A 
HETATM    9  C   UNL     1      33.199  51.855  44.175  1.00  0.00     0.001 A 
HETATM   10  C   UNL     1      34.216  51.403  43.337  1.00  0.00     0.002 A 
HETATM   11  C   UNL     1      33.980  51.238  41.970  1.00  0.00     0.030 A 
HETATM   12  H   UNL     1      33.186  50.828  39.565  1.00  0.00     0.162 HD
ENDROOT
BRANCH   1  13
HETATM   13  C   UNL     1      30.681  49.775  39.724  1.00  0.00    -0.016 A 
HETATM   14  C   UNL     1      30.281  49.197  40.943  1.00  0.00     0.013 A 
HETATM   15  C   UNL     1      29.801  47.883  41.005  1.00  0.00     0.038 A 
HETATM   16  C   UNL     1      29.735  47.107  39.850  1.00  0.00     0.134 A 
HETATM   17  C   UNL     1      30.145  47.653  38.631  1.00  0.00     0.038 A 
HETATM   18  C   UNL     1      30.599  48.975  38.569  1.00  0.00     0.013 A 
BRANCH  16  19
HETATM   19  N   UNL     1      29.188  45.732  39.858  1.00  0.00    -0.042 N 
HETATM   20  H   UNL     1      29.728  45.237  40.579  1.00  0.00     0.286 HD
BRANCH  19  21
HETATM   21  C   UNL     1      29.470  44.968  38.585  1.00  0.00     0.237 C 
HETATM   22  C   UNL     1      28.877  43.568  38.648  1.00  0.00     0.035 C 
ENDBRANCH  19  21
BRANCH  19  23
HETATM   23  C   UNL     1      27.770  45.665  40.376  1.00  0.00     0.237 C 
HETATM   24  C   UNL     1      26.761  46.443  39.551  1.00  0.00     0.035 C 
ENDBRANCH  19  23
ENDBRANCH  16  19
ENDBRANCH   1  13
BRANCH   2  25
HETATM   25  C   UNL     1      29.146  52.749  39.603  1.00  0.00     0.193 C 
BRANCH  25  26
HETATM   26  C   UNL     1      28.127  51.691  39.390  1.00  0.00     0.070 A 
HETATM   27  O   UNL     1      27.898  51.312  38.099  1.00  0.00    -0.325 OA
HETATM   28  C   UNL     1      26.945  50.346  38.134  1.00  0.00     0.142 A 
HETATM   29  C   UNL     1      26.549  50.106  39.430  1.00  0.00     0.027 A 
HETATM   30  C   UNL     1      27.312  50.976  40.244  1.00  0.00     0.036 A 
ENDBRANCH  25  26
ENDBRANCH   2  25
TORSDOF 6
ENDMDL
MODEL 4
REMARK VINA RESULT:      -7.7      4.664      8.586
REMARK  6 active torsions:
REMARK  status: ('A' for Active; 'I' for Inactive)
REMARK    1  A    between atoms: C_2  and  N_3 
REMARK    2  A    between atoms: N_3  and  C_5 
REMARK    3  A    between atoms: N_3  and  C_28 
REMARK    4  A    between atoms: C_8  and  C_9 
REMARK    5  A    between atoms: N_10  and  C_11 
REMARK    6  A    between atoms: C_11  and  C_12 
ROOT
HETATM    1  C   UNL     1      20.703  47.671  47.810  1.00  0.00     0.222 C 
HETATM    2  N   UNL     1      19.694  47.261  48.763  1.00  0.00    -0.316 N 
HETATM    3  C   UNL     1      19.145  48.165  49.658  1.00  0.00     0.258 C 
HETATM    4  O   UNL     1      18.552  47.830  50.679  1.00  0.00    -0.267 OA
HETATM    5  C   UNL     1      19.284  49.598  49.321  1.00  0.00     0.058 A 
HETATM    6  C   UNL     1      19.870  49.932  48.096  1.00  0.00     0.045 A 
HETATM    7  N   UNL     1      20.312  48.940  47.220  1.00  0.00    -0.364 N 
HETATM    8  C   UNL     1      18.772  50.584  50.172  1.00  0.00     0.019 A 
HETATM    9  C   UNL     1      18.819  51.922  49.784  1.00  0.00     0.001 A 
HETATM   10  C   UNL     1      19.361  52.265  48.547  1.00  0.00     0.002 A 
HETATM   11  C   UNL     1      19.870  51.274  47.703  1.00  0.00     0.030 A 
HETATM   12  H   UNL     1      20.918  49.275  46.483  1.00  0.00     0.162 HD
ENDROOT
BRANCH   1  13
HETATM   13  C   UNL     1      22.134  47.739  48.373  1.00  0.00    -0.016 A 
HETATM   14  C   UNL     1      22.859  48.942  48.471  1.00  0.00     0.013 A 
HETATM   15  C   UNL     1      24.130  48.983  49.057  1.00  0.00     0.038 A 
HETATM   16  C   UNL     1      24.717  47.815  49.536  1.00  0.00     0.134 A 
HETATM   17  C   UNL     1      24.025  46.605  49.433  1.00  0.00     0.038 A 
HETATM   18  C   UNL     1      22.744  46.573  48.870  1.00  0.00     0.013 A 
BRANCH  16  19
HETATM   19  N   UNL     1      26.036  47.817  50.209  1.00  0.00    -0.042 N 
HETATM   20  H   UNL     1      26.060  48.696  50.740  1.00  0.00     0.286 HD
BRANCH  19  21
HETATM   21  C   UNL     1      27.197  47.925  49.248  1.00  0.00     0.237 C 
HETATM   22  C   UNL     1      27.661  49.367  49.117  1.00  0.00     0.035 C 
ENDBRANCH  19  21
BRANCH  19  23
HETATM   23  C   UNL     1      26.151  46.758  51.281  1.00  0.00     0.237 C 
HETATM   24  C   UNL     1      25.679  47.198  52.655  1.00  0.00     0.035 C 
ENDBRANCH  19  23
ENDBRANCH  16  19
ENDBRANCH   1  13
BRANCH   2  25
HETATM   25  C   UNL     1      19.435  45.837  48.933  1.00  0.00     0.193 C 
BRANCH  25  26
HETATM   26  C   UNL     1      18.926  45.262  47.663  1.00  0.00     0.070 A 
HETATM   27  O   UNL     1      17.673  45.641  47.278  1.00  0.00    -0.325 OA
HETATM   28  C   UNL     1      17.412  45.007  46.105  1.00  0.00     0.142 A 
HETATM   29  C   UNL     1      18.476  44.217  45.737  1.00  0.00     0.027 A 
HETATM   30  C   UNL     1      19.457  44.380  46.744  1.00  0.00     0.036 A 
ENDBRANCH  25  26
ENDBRANCH   2  25
TORSDOF 6
ENDMDL
MODEL 5
REMARK VINA RESULT:      -7.6     11.510     14.148
REMARK  6 active torsions:
REMARK  status: ('A' for Active; 'I' for Inactive)
REMARK    1  A    between atoms: C_2  and  N_3 
REMARK    2  A    between atoms: N_3  and  C_5 
REMARK    3  A    between atoms: N_3  and  C_28 
REMARK    4  A    between atoms: C_8  and  C_9 
REMARK    5  A    between atoms: N_10  and  C_11 
REMARK    6  A    between atoms: C_11  and  C_12 
ROOT
HETATM    1  C   UNL     1      29.848  49.435  41.665  1.00  0.00     0.222 C 
HETATM    2  N   UNL     1      31.204  49.835  41.354  1.00  0.00    -0.316 N 
HETATM    3  C   UNL     1      31.506  50.480  40.165  1.00  0.00     0.258 C 
HETATM    4  O   UNL     1      32.641  50.547  39.702  1.00  0.00    -0.267 OA
HETATM    5  C   UNL     1      30.379  51.124  39.457  1.00  0.00     0.058 A 
HETATM    6  C   UNL     1      29.124  51.118  40.074  1.00  0.00     0.045 A 
HETATM    7  N   UNL     1      28.942  50.517  41.320  1.00  0.00    -0.364 N 
HETATM    8  C   UNL     1      30.586  51.788  38.242  1.00  0.00     0.019 A 
HETATM    9  C   UNL     1      29.532  52.479  37.646  1.00  0.00     0.001 A 
HETATM   10  C   UNL     1      28.288  52.517  38.273  1.00  0.00     0.002 A 
HETATM   11  C   UNL     1      28.090  51.852  39.486  1.00  0.00     0.030 A 
HETATM   12  H   UNL     1      27.975  50.362  41.571  1.00  0.00     0.162 HD
ENDROOT
BRANCH   1  13
HETATM   13  C   UNL     1      29.401  48.110  41.019  1.00  0.00    -0.016 A 
HETATM   14  C   UNL     1      28.125  47.554  41.226  1.00  0.00     0.013 A 
HETATM   15  C   UNL     1      27.722  46.388  40.565  1.00  0.00     0.038 A 
HETATM   16  C   UNL     1      28.597  45.736  39.699  1.00  0.00     0.134 A 
HETATM   17  C   UNL     1      29.876  46.258  39.492  1.00  0.00     0.038 A 
HETATM   18  C   UNL     1      30.266  47.439  40.135  1.00  0.00     0.013 A 
BRANCH  16  19
HETATM   19  N   UNL     1      28.198  44.529  38.940  1.00  0.00    -0.042 N 
HETATM   20  H   UNL     1      27.687  44.888  38.124  1.00  0.00     0.286 HD
BRANCH  19  21
HETATM   21  C   UNL     1      27.190  43.670  39.668  1.00  0.00     0.237 C 
HETATM   22  C   UNL     1      27.887  42.632  40.535  1.00  0.00     0.035 C 
ENDBRANCH  19  21
BRANCH  19  23
HETATM   23  C   UNL     1      29.373  43.805  38.326  1.00  0.00     0.237 C 
HETATM   24  C   UNL     1      29.087  43.171  36.977  1.00  0.00     0.035 C 
ENDBRANCH  19  23
ENDBRANCH  16  19
ENDBRANCH   1  13
BRANCH   2  25
HETATM   25  C   UNL     1      32.286  49.341  42.195  1.00  0.00     0.193 C 
BRANCH  25  26
HETATM   26  C   UNL     1      32.806  50.440  43.046  1.00  0.00     0.070 A 
HETATM   27  O   UNL     1      32.003  50.856  44.068  1.00  0.00    -0.325 OA
HETATM   28  C   UNL     1      32.665  51.853  44.710  1.00  0.00     0.142 A 
HETATM   29  C   UNL     1      33.879  52.091  44.108  1.00  0.00     0.027 A 
HETATM   30  C   UNL     1      33.971  51.179  43.031  1.00  0.00     0.036 A 
ENDBRANCH  25  26
ENDBRANCH   2  25
TORSDOF 6
ENDMDL
MODEL 6
REMARK VINA RESULT:      -7.6     11.759     13.361
REMARK  6 active torsions:
REMARK  status: ('A' for Active; 'I' for Inactive)
REMARK    1  A    between atoms: C_2  and  N_3 
REMARK    2  A    between atoms: N_3  and  C_5 
REMARK    3  A    between atoms: N_3  and  C_28 
REMARK    4  A    between atoms: C_8  and  C_9 
REMARK    5  A    between atoms: N_10  and  C_11 
REMARK    6  A    between atoms: C_11  and  C_12 
ROOT
HETATM    1  C   UNL     1      28.636  49.487  41.845  1.00  0.00     0.222 C 
HETATM    2  N   UNL     1      27.749  50.252  40.995  1.00  0.00    -0.316 N 
HETATM    3  C   UNL     1      27.331  49.760  39.769  1.00  0.00     0.258 C 
HETATM    4  O   UNL     1      26.866  50.468  38.880  1.00  0.00    -0.267 OA
HETATM    5  C   UNL     1      27.453  48.301  39.565  1.00  0.00     0.058 A 
HETATM    6  C   UNL     1      27.885  47.520  40.641  1.00  0.00     0.045 A 
HETATM    7  N   UNL     1      28.197  48.102  41.869  1.00  0.00    -0.364 N 
HETATM    8  C   UNL     1      27.068  47.716  38.352  1.00  0.00     0.019 A 
HETATM    9  C   UNL     1      27.089  46.328  38.219  1.00  0.00     0.001 A 
HETATM   10  C   UNL     1      27.477  45.536  39.298  1.00  0.00     0.002 A 
HETATM   11  C   UNL     1      27.859  46.128  40.505  1.00  0.00     0.030 A 
HETATM   12  H   UNL     1      28.711  47.500  42.497  1.00  0.00     0.162 HD
ENDROOT
BRANCH   1  13
HETATM   13  C   UNL     1      30.128  49.588  41.477  1.00  0.00    -0.016 A 
HETATM   14  C   UNL     1      30.586  49.608  40.147  1.00  0.00     0.013 A 
HETATM   15  C   UNL     1      31.943  49.777  39.844  1.00  0.00     0.038 A 
HETATM   16  C   UNL     1      32.877  49.905  40.869  1.00  0.00     0.134 A 
HETATM   17  C   UNL     1      32.449  49.869  42.199  1.00  0.00     0.038 A 
HETATM   18  C   UNL     1      31.089  49.727  42.496  1.00  0.00     0.013 A 
BRANCH  16  19
HETATM   19  N   UNL     1      34.314  50.136  40.597  1.00  0.00    -0.042 N 
HETATM   20  H   UNL     1      34.643  49.268  40.155  1.00  0.00     0.286 HD
BRANCH  19  21
HETATM   21  C   UNL     1      35.149  50.258  41.852  1.00  0.00     0.237 C 
HETATM   22  C   UNL     1      36.578  50.655  41.517  1.00  0.00     0.035 C 
ENDBRANCH  19  21
BRANCH  19  23
HETATM   23  C   UNL     1      34.551  51.181  39.533  1.00  0.00     0.237 C 
HETATM   24  C   UNL     1      33.883  52.517  39.802  1.00  0.00     0.035 C 
ENDBRANCH  19  23
ENDBRANCH  16  19
ENDBRANCH   1  13
BRANCH   2  25
HETATM   25  C   UNL     1      27.488  51.644  41.335  1.00  0.00     0.193 C 
BRANCH  25  26
HETATM   26  C   UNL     1      28.704  52.460  41.089  1.00  0.00     0.070 A 
HETATM   27  O   UNL     1      29.522  52.678  42.159  1.00  0.00    -0.325 OA
HETATM   28  C   UNL     1      30.559  53.435  41.715  1.00  0.00     0.142 A 
HETATM   29  C   UNL     1      30.413  53.715  40.376  1.00  0.00     0.027 A 
HETATM   30  C   UNL     1      29.212  53.087  39.969  1.00  0.00     0.036 A 
ENDBRANCH  25  26
ENDBRANCH   2  25
TORSDOF 6
ENDMDL
MODEL 7
REMARK VINA RESULT:      -7.5      2.289      7.337
REMARK  6 active torsions:
REMARK  status: ('A' for Active; 'I' for Inactive)
REMARK    1  A    between atoms: C_2  and  N_3 
REMARK    2  A    between atoms: N_3  and  C_5 
REMARK    3  A    between atoms: N_3  and  C_28 
REMARK    4  A    between atoms: C_8  and  C_9 
REMARK    5  A    between atoms: N_10  and  C_11 
REMARK    6  A    between atoms: C_11  and  C_12 
ROOT
HETATM    1  C   UNL     1      26.631  46.195  51.094  1.00  0.00     0.222 C 
HETATM    2  N   UNL     1      26.105  45.649  52.327  1.00  0.00    -0.316 N 
HETATM    3  C   UNL     1      25.377  44.470  52.335  1.00  0.00     0.258 C 
HETATM    4  O   UNL     1      24.643  44.135  53.260  1.00  0.00    -0.267 OA
HETATM    5  C   UNL     1      25.534  43.587  51.159  1.00  0.00     0.058 A 
HETATM    6  C   UNL     1      26.462  43.954  50.180  1.00  0.00     0.045 A 
HETATM    7  N   UNL     1      27.215  45.121  50.309  1.00  0.00    -0.364 N 
HETATM    8  C   UNL     1      24.828  42.381  51.074  1.00  0.00     0.019 A 
HETATM    9  C   UNL     1      25.072  41.514  50.009  1.00  0.00     0.001 A 
HETATM   10  C   UNL     1      26.026  41.847  49.050  1.00  0.00     0.002 A 
HETATM   11  C   UNL     1      26.726  43.054  49.143  1.00  0.00     0.030 A 
HETATM   12  H   UNL     1      27.678  45.414  49.460  1.00  0.00     0.162 HD
ENDROOT
BRANCH   1  13
HETATM   13  C   UNL     1      25.618  47.002  50.261  1.00  0.00    -0.016 A 
HETATM   14  C   UNL     1      24.269  46.624  50.126  1.00  0.00     0.013 A 
HETATM   15  C   UNL     1      23.355  47.419  49.424  1.00  0.00     0.038 A 
HETATM   16  C   UNL     1      23.776  48.601  48.819  1.00  0.00     0.134 A 
HETATM   17  C   UNL     1      25.115  48.988  48.924  1.00  0.00     0.038 A 
HETATM   18  C   UNL     1      26.019  48.203  49.648  1.00  0.00     0.013 A 
BRANCH  16  19
HETATM   19  N   UNL     1      22.837  49.499  48.111  1.00  0.00    -0.042 N 
HETATM   20  H   UNL     1      23.247  49.628  47.178  1.00  0.00     0.286 HD
BRANCH  19  21
HETATM   21  C   UNL     1      22.784  50.892  48.695  1.00  0.00     0.237 C 
HETATM   22  C   UNL     1      22.106  50.885  50.057  1.00  0.00     0.035 C 
ENDBRANCH  19  21
BRANCH  19  23
HETATM   23  C   UNL     1      21.506  48.847  47.819  1.00  0.00     0.237 C 
HETATM   24  C   UNL     1      20.439  49.795  47.303  1.00  0.00     0.035 C 
ENDBRANCH  19  23
ENDBRANCH  16  19
ENDBRANCH   1  13
BRANCH   2  25
HETATM   25  C   UNL     1      26.144  46.474  53.527  1.00  0.00     0.193 C 
BRANCH  25  26
HETATM   26  C   UNL     1      27.300  46.082  54.372  1.00  0.00     0.070 A 
HETATM   27  O   UNL     1      27.632  46.931  55.387  1.00  0.00    -0.325 OA
HETATM   28  C   UNL     1      28.700  46.385  56.024  1.00  0.00     0.142 A 
HETATM   29  C   UNL     1      29.065  45.201  55.426  1.00  0.00     0.027 A 
HETATM   30  C   UNL     1      28.161  45.004  54.356  1.00  0.00     0.036 A 
ENDBRANCH  25  26
ENDBRANCH   2  25
TORSDOF 6
ENDMDL
MODEL 8
REMARK VINA RESULT:      -7.3      2.704      4.153
REMARK  6 active torsions:
REMARK  status: ('A' for Active; 'I' for Inactive)
REMARK    1  A    between atoms: C_2  and  N_3 
REMARK    2  A    between atoms: N_3  and  C_5 
REMARK    3  A    between atoms: N_3  and  C_28 
REMARK    4  A    between atoms: C_8  and  C_9 
REMARK    5  A    between atoms: N_10  and  C_11 
REMARK    6  A    between atoms: C_11  and  C_12 
ROOT
HETATM    1  C   UNL     1      26.342  41.237  51.028  1.00  0.00     0.222 C 
HETATM    2  N   UNL     1      26.368  41.725  49.665  1.00  0.00    -0.316 N 
HETATM    3  C   UNL     1      27.376  41.353  48.790  1.00  0.00     0.258 C 
HETATM    4  O   UNL     1      27.638  41.968  47.761  1.00  0.00    -0.267 OA
HETATM    5  C   UNL     1      28.141  40.137  49.140  1.00  0.00     0.058 A 
HETATM    6  C   UNL     1      27.739  39.407  50.263  1.00  0.00     0.045 A 
HETATM    7  N   UNL     1      26.649  39.817  51.031  1.00  0.00    -0.364 N 
HETATM    8  C   UNL     1      29.187  39.692  48.323  1.00  0.00     0.019 A 
HETATM    9  C   UNL     1      29.824  38.487  48.613  1.00  0.00     0.001 A 
HETATM   10  C   UNL     1      29.404  37.727  49.704  1.00  0.00     0.002 A 
HETATM   11  C   UNL     1      28.359  38.179  50.515  1.00  0.00     0.030 A 
HETATM   12  H   UNL     1      26.582  39.367  51.933  1.00  0.00     0.162 HD
ENDROOT
BRANCH   1  13
HETATM   13  C   UNL     1      27.253  42.003  52.005  1.00  0.00    -0.016 A 
HETATM   14  C   UNL     1      28.590  42.327  51.707  1.00  0.00     0.013 A 
HETATM   15  C   UNL     1      29.369  43.090  52.585  1.00  0.00     0.038 A 
HETATM   16  C   UNL     1      28.836  43.526  53.795  1.00  0.00     0.134 A 
HETATM   17  C   UNL     1      27.517  43.201  54.122  1.00  0.00     0.038 A 
HETATM   18  C   UNL     1      26.733  42.461  53.230  1.00  0.00     0.013 A 
BRANCH  16  19
HETATM   19  N   UNL     1      29.604  44.377  54.732  1.00  0.00    -0.042 N 
HETATM   20  H   UNL     1      30.131  45.023  54.130  1.00  0.00     0.286 HD
BRANCH  19  21
HETATM   21  C   UNL     1      30.668  43.620  55.493  1.00  0.00     0.237 C 
HETATM   22  C   UNL     1      31.018  44.333  56.791  1.00  0.00     0.035 C 
ENDBRANCH  19  21
BRANCH  19  23
HETATM   23  C   UNL     1      28.726  45.297  55.546  1.00  0.00     0.237 C 
HETATM   24  C   UNL     1      28.404  46.619  54.874  1.00  0.00     0.035 C 
ENDBRANCH  19  23
ENDBRANCH  16  19
ENDBRANCH   1  13
BRANCH   2  25
HETATM   25  C   UNL     1      25.456  42.798  49.292  1.00  0.00     0.193 C 
BRANCH  25  26
HETATM   26  C   UNL     1      25.808  44.038  50.029  1.00  0.00     0.070 A 
HETATM   27  O   UNL     1      24.946  44.432  51.011  1.00  0.00    -0.325 OA
HETATM   28  C   UNL     1      25.454  45.571  51.548  1.00  0.00     0.142 A 
HETATM   29  C   UNL     1      26.626  45.921  50.917  1.00  0.00     0.027 A 
HETATM   30  C   UNL     1      26.855  44.931  49.933  1.00  0.00     0.036 A 
ENDBRANCH  25  26
ENDBRANCH   2  25
TORSDOF 6
ENDMDL
MODEL 9
REMARK VINA RESULT:      -7.3      2.647      6.797
REMARK  6 active torsions:
REMARK  status: ('A' for Active; 'I' for Inactive)
REMARK    1  A    between atoms: C_2  and  N_3 
REMARK    2  A    between atoms: N_3  and  C_5 
REMARK    3  A    between atoms: N_3  and  C_28 
REMARK    4  A    between atoms: C_8  and  C_9 
REMARK    5  A    between atoms: N_10  and  C_11 
REMARK    6  A    between atoms: C_11  and  C_12 
ROOT
HETATM    1  C   UNL     1      26.467  44.142  50.205  1.00  0.00     0.222 C 
HETATM    2  N   UNL     1      25.566  44.588  51.246  1.00  0.00    -0.316 N 
HETATM    3  C   UNL     1      25.737  44.189  52.562  1.00  0.00     0.258 C 
HETATM    4  O   UNL     1      24.852  44.254  53.409  1.00  0.00    -0.267 OA
HETATM    5  C   UNL     1      27.076  43.679  52.930  1.00  0.00     0.058 A 
HETATM    6  C   UNL     1      28.085  43.724  51.963  1.00  0.00     0.045 A 
HETATM    7  N   UNL     1      27.834  44.231  50.689  1.00  0.00    -0.364 N 
HETATM    8  C   UNL     1      27.339  43.240  54.233  1.00  0.00     0.019 A 
HETATM    9  C   UNL     1      28.635  42.865  54.586  1.00  0.00     0.001 A 
HETATM   10  C   UNL     1      29.659  42.946  53.644  1.00  0.00     0.002 A 
HETATM   11  C   UNL     1      29.387  43.386  52.345  1.00  0.00     0.030 A 
HETATM   12  H   UNL     1      28.545  44.011  50.004  1.00  0.00     0.162 HD
ENDROOT
BRANCH   1  13
HETATM   13  C   UNL     1      26.166  42.738  49.649  1.00  0.00    -0.016 A 
HETATM   14  C   UNL     1      24.863  42.302  49.344  1.00  0.00     0.013 A 
HETATM   15  C   UNL     1      24.629  41.047  48.769  1.00  0.00     0.038 A 
HETATM   16  C   UNL     1      25.694  40.187  48.509  1.00  0.00     0.134 A 
HETATM   17  C   UNL     1      26.995  40.590  48.821  1.00  0.00     0.038 A 
HETATM   18  C   UNL     1      27.226  41.856  49.371  1.00  0.00     0.013 A 
BRANCH  16  19
HETATM   19  N   UNL     1      25.501  38.873  47.856  1.00  0.00    -0.042 N 
HETATM   20  H   UNL     1      24.821  38.380  48.449  1.00  0.00     0.286 HD
BRANCH  19  21
HETATM   21  C   UNL     1      26.734  38.000  47.891  1.00  0.00     0.237 C 
HETATM   22  C   UNL     1      26.613  36.932  48.968  1.00  0.00     0.035 C 
ENDBRANCH  19  21
BRANCH  19  23
HETATM   23  C   UNL     1      24.793  38.975  46.525  1.00  0.00     0.237 C 
HETATM   24  C   UNL     1      25.599  39.655  45.434  1.00  0.00     0.035 C 
ENDBRANCH  19  23
ENDBRANCH  16  19
ENDBRANCH   1  13
BRANCH   2  25
HETATM   25  C   UNL     1      24.338  45.270  50.859  1.00  0.00     0.193 C 
BRANCH  25  26
HETATM   26  C   UNL     1      24.661  46.586  50.251  1.00  0.00     0.070 A 
HETATM   27  O   UNL     1      23.643  47.231  49.611  1.00  0.00    -0.325 OA
HETATM   28  C   UNL     1      24.151  48.398  49.138  1.00  0.00     0.142 A 
HETATM   29  C   UNL     1      25.486  48.507  49.455  1.00  0.00     0.027 A 
HETATM   30  C   UNL     1      25.818  47.334  50.174  1.00  0.00     0.036 A 
ENDBRANCH  25  26
ENDBRANCH   2  25
TORSDOF 6
ENDMDL
MODEL 10
REMARK VINA RESULT:      -7.3     11.320     12.812
REMARK  6 active torsions:
REMARK  status: ('A' for Active; 'I' for Inactive)
REMARK    1  A    between atoms: C_2  and  N_3 
REMARK    2  A    between atoms: N_3  and  C_5 
REMARK    3  A    between atoms: N_3  and  C_28 
REMARK    4  A    between atoms: C_8  and  C_9 
REMARK    5  A    between atoms: N_10  and  C_11 
REMARK    6  A    between atoms: C_11  and  C_12 
ROOT
HETATM    1  C   UNL     1      26.954  49.132  40.534  1.00  0.00     0.222 C 
HETATM    2  N   UNL     1      26.861  48.851  39.117  1.00  0.00    -0.316 N 
HETATM    3  C   UNL     1      27.083  47.576  38.624  1.00  0.00     0.258 C 
HETATM    4  O   UNL     1      27.341  47.341  37.447  1.00  0.00    -0.267 OA
HETATM    5  C   UNL     1      26.978  46.463  39.593  1.00  0.00     0.058 A 
HETATM    6  C   UNL     1      26.575  46.764  40.897  1.00  0.00     0.045 A 
HETATM    7  N   UNL     1      26.286  48.075  41.273  1.00  0.00    -0.364 N 
HETATM    8  C   UNL     1      27.199  45.141  39.188  1.00  0.00     0.019 A 
HETATM    9  C   UNL     1      26.989  44.100  40.091  1.00  0.00     0.001 A 
HETATM   10  C   UNL     1      26.546  44.382  41.382  1.00  0.00     0.002 A 
HETATM   11  C   UNL     1      26.328  45.705  41.777  1.00  0.00     0.030 A 
HETATM   12  H   UNL     1      26.231  48.220  42.273  1.00  0.00     0.162 HD
ENDROOT
BRANCH   1  13
HETATM   13  C   UNL     1      28.386  49.354  41.055  1.00  0.00    -0.016 A 
HETATM   14  C   UNL     1      29.398  48.383  40.940  1.00  0.00     0.013 A 
HETATM   15  C   UNL     1      30.709  48.643  41.356  1.00  0.00     0.038 A 
HETATM   16  C   UNL     1      31.033  49.874  41.921  1.00  0.00     0.134 A 
HETATM   17  C   UNL     1      30.041  50.848  42.063  1.00  0.00     0.038 A 
HETATM   18  C   UNL     1      28.737  50.593  41.622  1.00  0.00     0.013 A 
BRANCH  16  19
HETATM   19  N   UNL     1      32.415  50.212  42.329  1.00  0.00    -0.042 N 
HETATM   20  H   UNL     1      32.576  49.675  43.190  1.00  0.00     0.286 HD
BRANCH  19  21
HETATM   21  C   UNL     1      32.580  51.655  42.749  1.00  0.00     0.237 C 
HETATM   22  C   UNL     1      32.742  51.767  44.257  1.00  0.00     0.035 C 
ENDBRANCH  19  21
BRANCH  19  23
HETATM   23  C   UNL     1      33.458  49.670  41.379  1.00  0.00     0.237 C 
HETATM   24  C   UNL     1      34.878  50.110  41.685  1.00  0.00     0.035 C 
ENDBRANCH  19  23
ENDBRANCH  16  19
ENDBRANCH   1  13
BRANCH   2  25
HETATM   25  C   UNL     1      26.765  49.971  38.190  1.00  0.00     0.193 C 
BRANCH  25  26
HETATM   26  C   UNL     1      28.002  50.789  38.257  1.00  0.00     0.070 A 
HETATM   27  O   UNL     1      29.171  50.158  37.944  1.00  0.00    -0.325 OA
HETATM   28  C   UNL     1      30.161  51.080  38.067  1.00  0.00     0.142 A 
HETATM   29  C   UNL     1      29.646  52.292  38.465  1.00  0.00     0.027 A 
HETATM   30  C   UNL     1      28.248  52.105  38.589  1.00  0.00     0.036 A 
ENDBRANCH  25  26
ENDBRANCH   2  25
TORSDOF 6
ENDMDL
