MODEL 1
REMARK VINA RESULT:      -9.4      0.000      0.000
REMARK  5 active torsions:
REMARK  status: ('A' for Active; 'I' for Inactive)
REMARK    1  A    between atoms: C_6  and  O_7 
REMARK    2  A    between atoms: O_7  and  C_8 
REMARK    3  A    between atoms: C_8  and  C_9 
REMARK       I    between atoms: C_9  and  N_10 
REMARK    4  A    between atoms: N_10  and  N_11 
REMARK    5  A    between atoms: C_12  and  C_13 
ROOT
HETATM    1  C   UNL     1      25.745  45.392  52.435  1.00  0.00     0.261 C 
HETATM    2  N   UNL     1      26.503  46.510  52.122  1.00  0.00    -0.246 N 
HETATM    3  O   UNL     1      24.585  45.193  52.074  1.00  0.00    -0.269 OA
HETATM    4  H   UNL     1      27.441  46.599  52.503  1.00  0.00     0.192 HD
ENDROOT
BRANCH   2   5
HETATM    5  N   UNL     1      25.962  47.501  51.357  1.00  0.00    -0.184 NA
HETATM    6  C   UNL     1      26.346  47.551  50.123  1.00  0.00     0.152 C 
BRANCH   6   7
HETATM    7  C   UNL     1      25.799  48.575  49.258  1.00  0.00     0.011 A 
HETATM    8  C   UNL     1      24.420  48.837  48.966  1.00  0.00     0.004 A 
HETATM    9  C   UNL     1      24.378  49.927  48.094  1.00  0.00     0.043 A 
HETATM   10  C   UNL     1      23.198  48.260  49.372  1.00  0.00     0.014 A 
HETATM   11  C   UNL     1      23.181  50.466  47.607  1.00  0.00     0.030 A 
HETATM   12  N   UNL     1      25.677  50.310  47.857  1.00  0.00    -0.364 N 
HETATM   13  C   UNL     1      21.987  49.876  48.026  1.00  0.00     0.002 A 
HETATM   14  C   UNL     1      21.991  48.789  48.897  1.00  0.00     0.001 A 
HETATM   15  H   UNL     1      25.952  51.078  47.261  1.00  0.00     0.165 HD
HETATM   16  C   UNL     1      26.538  49.509  48.555  1.00  0.00     0.102 A 
ENDBRANCH   6   7
ENDBRANCH   2   5
BRANCH   1  17
HETATM   17  C   UNL     1      26.528  44.332  53.202  1.00  0.00     0.280 C 
BRANCH  17  18
HETATM   18  O   UNL     1      27.892  44.288  52.782  1.00  0.00    -0.342 OA
BRANCH  18  19
HETATM   19  C   UNL     1      28.781  44.189  53.820  1.00  0.00     0.069 A 
HETATM   20  C   UNL     1      28.819  45.067  54.906  1.00  0.00     0.044 A 
HETATM   21  C   UNL     1      29.752  44.891  55.943  1.00  0.00    -0.053 A 
HETATM   22  C   UNL     1      30.668  43.823  55.876  1.00  0.00    -0.056 A 
HETATM   23  C   UNL     1      29.766  45.868  57.088  1.00  0.00     0.049 C 
HETATM   24  C   UNL     1      31.693  43.595  56.953  1.00  0.00     0.049 C 
HETATM   25  C   UNL     1      30.597  42.929  54.796  1.00  0.00     0.010 A 
HETATM   26  C   UNL     1      29.655  43.107  53.781  1.00  0.00     0.037 A 
ENDBRANCH  18  19
ENDBRANCH  17  18
ENDBRANCH   1  17
TORSDOF 5
ENDMDL
MODEL 2
REMARK VINA RESULT:      -9.3      1.839      2.216
REMARK  5 active torsions:
REMARK  status: ('A' for Active; 'I' for Inactive)
REMARK    1  A    between atoms: C_6  and  O_7 
REMARK    2  A    between atoms: O_7  and  C_8 
REMARK    3  A    between atoms: C_8  and  C_9 
REMARK       I    between atoms: C_9  and  N_10 
REMARK    4  A    between atoms: N_10  and  N_11 
REMARK    5  A    between atoms: C_12  and  C_13 
ROOT
HETATM    1  C   UNL     1      26.207  47.432  53.713  1.00  0.00     0.261 C 
HETATM    2  N   UNL     1      26.103  46.855  52.455  1.00  0.00    -0.246 N 
HETATM    3  O   UNL     1      25.361  48.155  54.239  1.00  0.00    -0.269 OA
HETATM    4  H   UNL     1      26.876  46.305  52.093  1.00  0.00     0.192 HD
ENDROOT
BRANCH   2   5
HETATM    5  N   UNL     1      24.990  47.081  51.700  1.00  0.00    -0.184 NA
HETATM    6  C   UNL     1      25.158  47.096  50.418  1.00  0.00     0.152 C 
BRANCH   6   7
HETATM    7  C   UNL     1      24.012  47.321  49.561  1.00  0.00     0.011 A 
HETATM    8  C   UNL     1      23.520  48.570  49.059  1.00  0.00     0.004 A 
HETATM    9  C   UNL     1      22.404  48.290  48.266  1.00  0.00     0.043 A 
HETATM   10  C   UNL     1      23.924  49.916  49.190  1.00  0.00     0.014 A 
HETATM   11  C   UNL     1      21.674  49.283  47.602  1.00  0.00     0.030 A 
HETATM   12  N   UNL     1      22.219  46.928  48.289  1.00  0.00    -0.364 N 
HETATM   13  C   UNL     1      22.098  50.606  47.749  1.00  0.00     0.002 A 
HETATM   14  C   UNL     1      23.206  50.921  48.530  1.00  0.00     0.001 A 
HETATM   15  H   UNL     1      21.484  46.438  47.798  1.00  0.00     0.165 HD
HETATM   16  C   UNL     1      23.182  46.335  49.058  1.00  0.00     0.102 A 
ENDBRANCH   6   7
ENDBRANCH   2   5
BRANCH   1  17
HETATM   17  C   UNL     1      27.457  46.995  54.470  1.00  0.00     0.280 C 
BRANCH  17  18
HETATM   18  O   UNL     1      27.828  45.658  54.134  1.00  0.00    -0.342 OA
BRANCH  18  19
HETATM   19  C   UNL     1      28.826  45.152  54.926  1.00  0.00     0.069 A 
HETATM   20  C   UNL     1      29.246  45.733  56.124  1.00  0.00     0.044 A 
HETATM   21  C   UNL     1      30.267  45.145  56.892  1.00  0.00    -0.053 A 
HETATM   22  C   UNL     1      30.882  43.963  56.435  1.00  0.00    -0.056 A 
HETATM   23  C   UNL     1      30.697  45.811  58.171  1.00  0.00     0.049 C 
HETATM   24  C   UNL     1      31.985  43.297  57.211  1.00  0.00     0.049 C 
HETATM   25  C   UNL     1      30.427  43.371  55.245  1.00  0.00     0.010 A 
HETATM   26  C   UNL     1      29.402  43.959  54.502  1.00  0.00     0.037 A 
ENDBRANCH  18  19
ENDBRANCH  17  18
ENDBRANCH   1  17
TORSDOF 5
ENDMDL
MODEL 3
REMARK VINA RESULT:      -9.1      2.416      9.680
REMARK  5 active torsions:
REMARK  status: ('A' for Active; 'I' for Inactive)
REMARK    1  A    between atoms: C_6  and  O_7 
REMARK    2  A    between atoms: O_7  and  C_8 
REMARK    3  A    between atoms: C_8  and  C_9 
REMARK       I    between atoms: C_9  and  N_10 
REMARK    4  A    between atoms: N_10  and  N_11 
REMARK    5  A    between atoms: C_12  and  C_13 
ROOT
HETATM    1  C   UNL     1      24.285  47.830  49.848  1.00  0.00     0.261 C 
HETATM    2  N   UNL     1      24.321  47.026  50.978  1.00  0.00    -0.246 N 
HETATM    3  O   UNL     1      25.034  48.780  49.625  1.00  0.00    -0.269 OA
HETATM    4  H   UNL     1      23.631  46.288  51.088  1.00  0.00     0.192 HD
ENDROOT
BRANCH   2   5
HETATM    5  N   UNL     1      25.243  47.271  51.953  1.00  0.00    -0.184 NA
HETATM    6  C   UNL     1      25.577  46.266  52.695  1.00  0.00     0.152 C 
BRANCH   6   7
HETATM    7  C   UNL     1      26.559  46.461  53.741  1.00  0.00     0.011 A 
HETATM    8  C   UNL     1      27.618  45.577  54.131  1.00  0.00     0.004 A 
HETATM    9  C   UNL     1      28.315  46.193  55.173  1.00  0.00     0.043 A 
HETATM   10  C   UNL     1      28.062  44.312  53.687  1.00  0.00     0.014 A 
HETATM   11  C   UNL     1      29.426  45.611  55.793  1.00  0.00     0.030 A 
HETATM   12  N   UNL     1      27.703  47.400  55.414  1.00  0.00    -0.364 N 
HETATM   13  C   UNL     1      29.845  44.360  55.333  1.00  0.00     0.002 A 
HETATM   14  C   UNL     1      29.175  43.718  54.295  1.00  0.00     0.001 A 
HETATM   15  H   UNL     1      27.997  48.065  56.116  1.00  0.00     0.165 HD
HETATM   16  C   UNL     1      26.652  47.575  54.557  1.00  0.00     0.102 A 
ENDBRANCH   6   7
ENDBRANCH   2   5
BRANCH   1  17
HETATM   17  C   UNL     1      23.273  47.358  48.809  1.00  0.00     0.280 C 
BRANCH  17  18
HETATM   18  O   UNL     1      22.897  48.418  47.930  1.00  0.00    -0.342 OA
BRANCH  18  19
HETATM   19  C   UNL     1      21.875  49.193  48.412  1.00  0.00     0.069 A 
HETATM   20  C   UNL     1      20.845  48.714  49.224  1.00  0.00     0.044 A 
HETATM   21  C   UNL     1      19.837  49.575  49.694  1.00  0.00    -0.053 A 
HETATM   22  C   UNL     1      19.863  50.935  49.327  1.00  0.00    -0.056 A 
HETATM   23  C   UNL     1      18.739  49.014  50.556  1.00  0.00     0.049 C 
HETATM   24  C   UNL     1      18.806  51.898  49.794  1.00  0.00     0.049 C 
HETATM   25  C   UNL     1      20.923  51.410  48.538  1.00  0.00     0.010 A 
HETATM   26  C   UNL     1      21.924  50.546  48.091  1.00  0.00     0.037 A 
ENDBRANCH  18  19
ENDBRANCH  17  18
ENDBRANCH   1  17
TORSDOF 5
ENDMDL
MODEL 4
REMARK VINA RESULT:      -8.7      2.010      9.786
REMARK  5 active torsions:
REMARK  status: ('A' for Active; 'I' for Inactive)
REMARK    1  A    between atoms: C_6  and  O_7 
REMARK    2  A    between atoms: O_7  and  C_8 
REMARK    3  A    between atoms: C_8  and  C_9 
REMARK       I    between atoms: C_9  and  N_10 
REMARK    4  A    between atoms: N_10  and  N_11 
REMARK    5  A    between atoms: C_12  and  C_13 
ROOT
HETATM    1  C   UNL     1      25.672  45.920  50.158  1.00  0.00     0.261 C 
HETATM    2  N   UNL     1      25.788  45.618  51.507  1.00  0.00    -0.246 N 
HETATM    3  O   UNL     1      26.428  45.525  49.271  1.00  0.00    -0.269 OA
HETATM    4  H   UNL     1      25.134  46.027  52.168  1.00  0.00     0.192 HD
ENDROOT
BRANCH   2   5
HETATM    5  N   UNL     1      26.811  44.823  51.936  1.00  0.00    -0.184 NA
HETATM    6  C   UNL     1      27.254  45.049  53.129  1.00  0.00     0.152 C 
BRANCH   6   7
HETATM    7  C   UNL     1      28.333  44.231  53.644  1.00  0.00     0.011 A 
HETATM    8  C   UNL     1      29.148  44.474  54.798  1.00  0.00     0.004 A 
HETATM    9  C   UNL     1      30.044  43.408  54.908  1.00  0.00     0.043 A 
HETATM   10  C   UNL     1      29.202  45.495  55.772  1.00  0.00     0.014 A 
HETATM   11  C   UNL     1      30.989  43.312  55.937  1.00  0.00     0.030 A 
HETATM   12  N   UNL     1      29.791  42.554  53.861  1.00  0.00    -0.364 N 
HETATM   13  C   UNL     1      31.019  44.335  56.888  1.00  0.00     0.002 A 
HETATM   14  C   UNL     1      30.139  45.412  56.809  1.00  0.00     0.001 A 
HETATM   15  H   UNL     1      30.288  41.691  53.689  1.00  0.00     0.165 HD
HETATM   16  C   UNL     1      28.762  43.034  53.100  1.00  0.00     0.102 A 
ENDBRANCH   6   7
ENDBRANCH   2   5
BRANCH   1  17
HETATM   17  C   UNL     1      24.419  46.725  49.831  1.00  0.00     0.280 C 
BRANCH  17  18
HETATM   18  O   UNL     1      24.749  48.003  49.287  1.00  0.00    -0.342 OA
BRANCH  18  19
HETATM   19  C   UNL     1      23.661  48.816  49.099  1.00  0.00     0.069 A 
HETATM   20  C   UNL     1      22.336  48.391  49.218  1.00  0.00     0.044 A 
HETATM   21  C   UNL     1      21.271  49.288  49.026  1.00  0.00    -0.053 A 
HETATM   22  C   UNL     1      21.548  50.630  48.695  1.00  0.00    -0.056 A 
HETATM   23  C   UNL     1      19.859  48.785  49.152  1.00  0.00     0.049 C 
HETATM   24  C   UNL     1      20.447  51.630  48.470  1.00  0.00     0.049 C 
HETATM   25  C   UNL     1      22.885  51.051  48.612  1.00  0.00     0.010 A 
HETATM   26  C   UNL     1      23.932  50.151  48.820  1.00  0.00     0.037 A 
ENDBRANCH  18  19
ENDBRANCH  17  18
ENDBRANCH   1  17
TORSDOF 5
ENDMDL
MODEL 5
REMARK VINA RESULT:      -8.6      5.450      7.367
REMARK  5 active torsions:
REMARK  status: ('A' for Active; 'I' for Inactive)
REMARK    1  A    between atoms: C_6  and  O_7 
REMARK    2  A    between atoms: O_7  and  C_8 
REMARK    3  A    between atoms: C_8  and  C_9 
REMARK       I    between atoms: C_9  and  N_10 
REMARK    4  A    between atoms: N_10  and  N_11 
REMARK    5  A    between atoms: C_12  and  C_13 
ROOT
HETATM    1  C   UNL     1      26.856  42.950  52.094  1.00  0.00     0.261 C 
HETATM    2  N   UNL     1      27.221  41.622  52.261  1.00  0.00    -0.246 N 
HETATM    3  O   UNL     1      26.473  43.457  51.040  1.00  0.00    -0.269 OA
HETATM    4  H   UNL     1      27.562  41.309  53.165  1.00  0.00     0.192 HD
ENDROOT
BRANCH   2   5
HETATM    5  N   UNL     1      27.171  40.769  51.199  1.00  0.00    -0.184 NA
HETATM    6  C   UNL     1      28.300  40.294  50.788  1.00  0.00     0.152 C 
BRANCH   6   7
HETATM    7  C   UNL     1      28.311  39.374  49.669  1.00  0.00     0.011 A 
HETATM    8  C   UNL     1      28.192  39.683  48.274  1.00  0.00     0.004 A 
HETATM    9  C   UNL     1      28.270  38.479  47.571  1.00  0.00     0.043 A 
HETATM   10  C   UNL     1      28.038  40.877  47.537  1.00  0.00     0.014 A 
HETATM   11  C   UNL     1      28.200  38.407  46.175  1.00  0.00     0.030 A 
HETATM   12  N   UNL     1      28.424  37.475  48.499  1.00  0.00    -0.364 N 
HETATM   13  C   UNL     1      28.050  39.604  45.471  1.00  0.00     0.002 A 
HETATM   14  C   UNL     1      27.970  40.823  46.139  1.00  0.00     0.001 A 
HETATM   15  H   UNL     1      28.511  36.494  48.276  1.00  0.00     0.165 HD
HETATM   16  C   UNL     1      28.456  38.002  49.760  1.00  0.00     0.102 A 
ENDBRANCH   6   7
ENDBRANCH   2   5
BRANCH   1  17
HETATM   17  C   UNL     1      26.863  43.742  53.398  1.00  0.00     0.280 C 
BRANCH  17  18
HETATM   18  O   UNL     1      27.898  44.726  53.403  1.00  0.00    -0.342 OA
BRANCH  18  19
HETATM   19  C   UNL     1      28.857  44.506  54.357  1.00  0.00     0.069 A 
HETATM   20  C   UNL     1      29.057  45.325  55.470  1.00  0.00     0.044 A 
HETATM   21  C   UNL     1      30.053  45.025  56.416  1.00  0.00    -0.053 A 
HETATM   22  C   UNL     1      30.867  43.891  56.228  1.00  0.00    -0.056 A 
HETATM   23  C   UNL     1      30.243  45.942  57.595  1.00  0.00     0.049 C 
HETATM   24  C   UNL     1      31.954  43.529  57.203  1.00  0.00     0.049 C 
HETATM   25  C   UNL     1      30.633  43.058  55.122  1.00  0.00     0.010 A 
HETATM   26  C   UNL     1      29.630  43.360  54.199  1.00  0.00     0.037 A 
ENDBRANCH  18  19
ENDBRANCH  17  18
ENDBRANCH   1  17
TORSDOF 5
ENDMDL
MODEL 6
REMARK VINA RESULT:      -8.5      1.951      2.858
REMARK  5 active torsions:
REMARK  status: ('A' for Active; 'I' for Inactive)
REMARK    1  A    between atoms: C_6  and  O_7 
REMARK    2  A    between atoms: O_7  and  C_8 
REMARK    3  A    between atoms: C_8  and  C_9 
REMARK       I    between atoms: C_9  and  N_10 
REMARK    4  A    between atoms: N_10  and  N_11 
REMARK    5  A    between atoms: C_12  and  C_13 
ROOT
HETATM    1  C   UNL     1      26.999  42.632  51.050  1.00  0.00     0.261 C 
HETATM    2  N   UNL     1      27.566  43.837  50.660  1.00  0.00    -0.246 N 
HETATM    3  O   UNL     1      25.832  42.295  50.851  1.00  0.00    -0.269 OA
HETATM    4  H   UNL     1      28.530  44.037  50.907  1.00  0.00     0.192 HD
ENDROOT
BRANCH   2   5
HETATM    5  N   UNL     1      26.806  44.758  50.002  1.00  0.00    -0.184 NA
HETATM    6  C   UNL     1      26.307  45.712  50.719  1.00  0.00     0.152 C 
BRANCH   6   7
HETATM    7  C   UNL     1      25.500  46.727  50.076  1.00  0.00     0.011 A 
HETATM    8  C   UNL     1      25.937  47.963  49.496  1.00  0.00     0.004 A 
HETATM    9  C   UNL     1      24.808  48.606  48.984  1.00  0.00     0.043 A 
HETATM   10  C   UNL     1      27.190  48.594  49.345  1.00  0.00     0.014 A 
HETATM   11  C   UNL     1      24.867  49.844  48.333  1.00  0.00     0.030 A 
HETATM   12  N   UNL     1      23.725  47.799  49.245  1.00  0.00    -0.364 N 
HETATM   13  C   UNL     1      26.121  50.445  48.195  1.00  0.00     0.002 A 
HETATM   14  C   UNL     1      27.267  49.832  48.693  1.00  0.00     0.001 A 
HETATM   15  H   UNL     1      22.772  48.011  48.984  1.00  0.00     0.165 HD
HETATM   16  C   UNL     1      24.130  46.666  49.894  1.00  0.00     0.102 A 
ENDBRANCH   6   7
ENDBRANCH   2   5
BRANCH   1  17
HETATM   17  C   UNL     1      28.006  41.671  51.674  1.00  0.00     0.280 C 
BRANCH  17  18
HETATM   18  O   UNL     1      27.800  41.543  53.081  1.00  0.00    -0.342 OA
BRANCH  18  19
HETATM   19  C   UNL     1      28.376  42.549  53.812  1.00  0.00     0.069 A 
HETATM   20  C   UNL     1      27.731  43.740  54.151  1.00  0.00     0.044 A 
HETATM   21  C   UNL     1      28.383  44.721  54.919  1.00  0.00    -0.053 A 
HETATM   22  C   UNL     1      29.710  44.501  55.338  1.00  0.00    -0.056 A 
HETATM   23  C   UNL     1      27.654  45.995  55.251  1.00  0.00     0.049 C 
HETATM   24  C   UNL     1      30.459  45.520  56.153  1.00  0.00     0.049 C 
HETATM   25  C   UNL     1      30.336  43.285  55.019  1.00  0.00     0.010 A 
HETATM   26  C   UNL     1      29.670  42.315  54.268  1.00  0.00     0.037 A 
ENDBRANCH  18  19
ENDBRANCH  17  18
ENDBRANCH   1  17
TORSDOF 5
ENDMDL
MODEL 7
REMARK VINA RESULT:      -8.5      1.636      2.099
REMARK  5 active torsions:
REMARK  status: ('A' for Active; 'I' for Inactive)
REMARK    1  A    between atoms: C_6  and  O_7 
REMARK    2  A    between atoms: O_7  and  C_8 
REMARK    3  A    between atoms: C_8  and  C_9 
REMARK       I    between atoms: C_9  and  N_10 
REMARK    4  A    between atoms: N_10  and  N_11 
REMARK    5  A    between atoms: C_12  and  C_13 
ROOT
HETATM    1  C   UNL     1      26.558  45.456  50.107  1.00  0.00     0.261 C 
HETATM    2  N   UNL     1      25.433  46.028  50.683  1.00  0.00    -0.246 N 
HETATM    3  O   UNL     1      27.271  45.986  49.255  1.00  0.00    -0.269 OA
HETATM    4  H   UNL     1      24.887  45.491  51.350  1.00  0.00     0.192 HD
ENDROOT
BRANCH   2   5
HETATM    5  N   UNL     1      25.042  47.278  50.305  1.00  0.00    -0.184 NA
HETATM    6  C   UNL     1      24.042  47.347  49.489  1.00  0.00     0.152 C 
BRANCH   6   7
HETATM    7  C   UNL     1      23.574  48.649  49.058  1.00  0.00     0.011 A 
HETATM    8  C   UNL     1      22.219  49.101  48.939  1.00  0.00     0.004 A 
HETATM    9  C   UNL     1      22.259  50.428  48.502  1.00  0.00     0.043 A 
HETATM   10  C   UNL     1      20.957  48.515  49.174  1.00  0.00     0.014 A 
HETATM   11  C   UNL     1      21.107  51.193  48.287  1.00  0.00     0.030 A 
HETATM   12  N   UNL     1      23.583  50.768  48.355  1.00  0.00    -0.364 N 
HETATM   13  C   UNL     1      19.872  50.587  48.529  1.00  0.00     0.002 A 
HETATM   14  C   UNL     1      19.794  49.268  48.966  1.00  0.00     0.001 A 
HETATM   15  H   UNL     1      23.915  51.673  48.052  1.00  0.00     0.165 HD
HETATM   16  C   UNL     1      24.381  49.710  48.692  1.00  0.00     0.102 A 
ENDBRANCH   6   7
ENDBRANCH   2   5
BRANCH   1  17
HETATM   17  C   UNL     1      26.921  44.105  50.715  1.00  0.00     0.280 C 
BRANCH  17  18
HETATM   18  O   UNL     1      26.491  44.013  52.073  1.00  0.00    -0.342 OA
BRANCH  18  19
HETATM   19  C   UNL     1      27.523  43.925  52.970  1.00  0.00     0.069 A 
HETATM   20  C   UNL     1      27.838  44.916  53.902  1.00  0.00     0.044 A 
HETATM   21  C   UNL     1      28.904  44.746  54.803  1.00  0.00    -0.053 A 
HETATM   22  C   UNL     1      29.672  43.566  54.751  1.00  0.00    -0.056 A 
HETATM   23  C   UNL     1      29.216  45.844  55.783  1.00  0.00     0.049 C 
HETATM   24  C   UNL     1      30.830  43.337  55.684  1.00  0.00     0.049 C 
HETATM   25  C   UNL     1      29.324  42.564  53.831  1.00  0.00     0.010 A 
HETATM   26  C   UNL     1      28.253  42.740  52.953  1.00  0.00     0.037 A 
ENDBRANCH  18  19
ENDBRANCH  17  18
ENDBRANCH   1  17
TORSDOF 5
ENDMDL
MODEL 8
REMARK VINA RESULT:      -8.5      1.893      2.488
REMARK  5 active torsions:
REMARK  status: ('A' for Active; 'I' for Inactive)
REMARK    1  A    between atoms: C_6  and  O_7 
REMARK    2  A    between atoms: O_7  and  C_8 
REMARK    3  A    between atoms: C_8  and  C_9 
REMARK       I    between atoms: C_9  and  N_10 
REMARK    4  A    between atoms: N_10  and  N_11 
REMARK    5  A    between atoms: C_12  and  C_13 
ROOT
HETATM    1  C   UNL     1      26.893  45.057  50.206  1.00  0.00     0.261 C 
HETATM    2  N   UNL     1      25.589  45.199  50.658  1.00  0.00    -0.246 N 
HETATM    3  O   UNL     1      27.435  45.764  49.357  1.00  0.00    -0.269 OA
HETATM    4  H   UNL     1      25.221  44.537  51.335  1.00  0.00     0.192 HD
ENDROOT
BRANCH   2   5
HETATM    5  N   UNL     1      24.802  46.189  50.148  1.00  0.00    -0.184 NA
HETATM    6  C   UNL     1      23.832  45.814  49.379  1.00  0.00     0.152 C 
BRANCH   6   7
HETATM    7  C   UNL     1      22.954  46.819  48.814  1.00  0.00     0.011 A 
HETATM    8  C   UNL     1      23.227  48.211  48.610  1.00  0.00     0.004 A 
HETATM    9  C   UNL     1      22.091  48.777  48.027  1.00  0.00     0.043 A 
HETATM   10  C   UNL     1      24.339  49.046  48.852  1.00  0.00     0.014 A 
HETATM   11  C   UNL     1      22.009  50.130  47.677  1.00  0.00     0.030 A 
HETATM   12  N   UNL     1      21.161  47.774  47.888  1.00  0.00    -0.364 N 
HETATM   13  C   UNL     1      23.125  50.933  47.926  1.00  0.00     0.002 A 
HETATM   14  C   UNL     1      24.275  50.401  48.504  1.00  0.00     0.001 A 
HETATM   15  H   UNL     1      20.240  47.893  47.490  1.00  0.00     0.165 HD
HETATM   16  C   UNL     1      21.671  46.593  48.351  1.00  0.00     0.102 A 
ENDBRANCH   6   7
ENDBRANCH   2   5
BRANCH   1  17
HETATM   17  C   UNL     1      27.671  43.978  50.952  1.00  0.00     0.280 C 
BRANCH  17  18
HETATM   18  O   UNL     1      27.157  43.783  52.270  1.00  0.00    -0.342 OA
BRANCH  18  19
HETATM   19  C   UNL     1      28.112  43.873  53.249  1.00  0.00     0.069 A 
HETATM   20  C   UNL     1      28.116  44.845  54.252  1.00  0.00     0.044 A 
HETATM   21  C   UNL     1      29.122  44.864  55.234  1.00  0.00    -0.053 A 
HETATM   22  C   UNL     1      30.146  43.897  55.193  1.00  0.00    -0.056 A 
HETATM   23  C   UNL     1      29.095  45.937  56.289  1.00  0.00     0.049 C 
HETATM   24  C   UNL     1      31.253  43.877  56.212  1.00  0.00     0.049 C 
HETATM   25  C   UNL     1      30.112  42.906  54.199  1.00  0.00     0.010 A 
HETATM   26  C   UNL     1      29.097  42.891  53.240  1.00  0.00     0.037 A 
ENDBRANCH  18  19
ENDBRANCH  17  18
ENDBRANCH   1  17
TORSDOF 5
ENDMDL
MODEL 9
REMARK VINA RESULT:      -8.3      2.880     10.034
REMARK  5 active torsions:
REMARK  status: ('A' for Active; 'I' for Inactive)
REMARK    1  A    between atoms: C_6  and  O_7 
REMARK    2  A    between atoms: O_7  and  C_8 
REMARK    3  A    between atoms: C_8  and  C_9 
REMARK       I    between atoms: C_9  and  N_10 
REMARK    4  A    between atoms: N_10  and  N_11 
REMARK    5  A    between atoms: C_12  and  C_13 
ROOT
HETATM    1  C   UNL     1      24.154  48.487  49.345  1.00  0.00     0.261 C 
HETATM    2  N   UNL     1      23.959  47.529  50.329  1.00  0.00    -0.246 N 
HETATM    3  O   UNL     1      25.205  49.093  49.138  1.00  0.00    -0.269 OA
HETATM    4  H   UNL     1      23.039  47.115  50.446  1.00  0.00     0.192 HD
ENDROOT
BRANCH   2   5
HETATM    5  N   UNL     1      24.986  47.198  51.163  1.00  0.00    -0.184 NA
HETATM    6  C   UNL     1      25.062  45.957  51.518  1.00  0.00     0.152 C 
BRANCH   6   7
HETATM    7  C   UNL     1      26.137  45.542  52.395  1.00  0.00     0.011 A 
HETATM    8  C   UNL     1      26.617  46.202  53.573  1.00  0.00     0.004 A 
HETATM    9  C   UNL     1      27.654  45.424  54.094  1.00  0.00     0.043 A 
HETATM   10  C   UNL     1      26.260  47.382  54.259  1.00  0.00     0.014 A 
HETATM   11  C   UNL     1      28.351  45.767  55.258  1.00  0.00     0.030 A 
HETATM   12  N   UNL     1      27.806  44.338  53.264  1.00  0.00    -0.364 N 
HETATM   13  C   UNL     1      27.975  46.940  55.917  1.00  0.00     0.002 A 
HETATM   14  C   UNL     1      26.945  47.738  55.428  1.00  0.00     0.001 A 
HETATM   15  H   UNL     1      28.484  43.602  53.397  1.00  0.00     0.165 HD
HETATM   16  C   UNL     1      26.897  44.395  52.245  1.00  0.00     0.102 A 
ENDBRANCH   6   7
ENDBRANCH   2   5
BRANCH   1  17
HETATM   17  C   UNL     1      22.945  48.663  48.431  1.00  0.00     0.280 C 
BRANCH  17  18
HETATM   18  O   UNL     1      22.781  50.027  48.042  1.00  0.00    -0.342 OA
BRANCH  18  19
HETATM   19  C   UNL     1      21.553  50.544  48.365  1.00  0.00     0.069 A 
HETATM   20  C   UNL     1      20.509  50.709  47.453  1.00  0.00     0.044 A 
HETATM   21  C   UNL     1      19.269  51.232  47.863  1.00  0.00    -0.053 A 
HETATM   22  C   UNL     1      19.089  51.607  49.209  1.00  0.00    -0.056 A 
HETATM   23  C   UNL     1      18.175  51.405  46.845  1.00  0.00     0.049 C 
HETATM   24  C   UNL     1      17.787  52.181  49.700  1.00  0.00     0.049 C 
HETATM   25  C   UNL     1      20.136  51.404  50.122  1.00  0.00     0.010 A 
HETATM   26  C   UNL     1      21.356  50.870  49.703  1.00  0.00     0.037 A 
ENDBRANCH  18  19
ENDBRANCH  17  18
ENDBRANCH   1  17
TORSDOF 5
ENDMDL
MODEL 10
REMARK VINA RESULT:      -8.3      2.844      4.486
REMARK  5 active torsions:
REMARK  status: ('A' for Active; 'I' for Inactive)
REMARK    1  A    between atoms: C_6  and  O_7 
REMARK    2  A    between atoms: O_7  and  C_8 
REMARK    3  A    between atoms: C_8  and  C_9 
REMARK       I    between atoms: C_9  and  N_10 
REMARK    4  A    between atoms: N_10  and  N_11 
REMARK    5  A    between atoms: C_12  and  C_13 
ROOT
HETATM    1  C   UNL     1      24.520  46.936  50.199  1.00  0.00     0.261 C 
HETATM    2  N   UNL     1      23.914  48.160  49.955  1.00  0.00    -0.246 N 
HETATM    3  O   UNL     1      24.240  45.877  49.639  1.00  0.00    -0.269 OA
HETATM    4  H   UNL     1      24.190  48.971  50.501  1.00  0.00     0.192 HD
ENDROOT
BRANCH   2   5
HETATM    5  N   UNL     1      22.918  48.247  49.027  1.00  0.00    -0.184 NA
HETATM    6  C   UNL     1      21.954  49.066  49.292  1.00  0.00     0.152 C 
BRANCH   6   7
HETATM    7  C   UNL     1      20.871  49.210  48.341  1.00  0.00     0.011 A 
HETATM    8  C   UNL     1      20.019  50.345  48.142  1.00  0.00     0.004 A 
HETATM    9  C   UNL     1      19.135  50.027  47.109  1.00  0.00     0.043 A 
HETATM   10  C   UNL     1      19.922  51.623  48.734  1.00  0.00     0.014 A 
HETATM   11  C   UNL     1      18.161  50.917  46.640  1.00  0.00     0.030 A 
HETATM   12  N   UNL     1      19.431  48.749  46.698  1.00  0.00    -0.364 N 
HETATM   13  C   UNL     1      18.088  52.175  47.243  1.00  0.00     0.002 A 
HETATM   14  C   UNL     1      18.955  52.526  48.275  1.00  0.00     0.001 A 
HETATM   15  H   UNL     1      18.951  48.256  45.958  1.00  0.00     0.165 HD
HETATM   16  C   UNL     1      20.475  48.251  47.426  1.00  0.00     0.102 A 
ENDBRANCH   6   7
ENDBRANCH   2   5
BRANCH   1  17
HETATM   17  C   UNL     1      25.684  47.030  51.181  1.00  0.00     0.280 C 
BRANCH  17  18
HETATM   18  O   UNL     1      25.227  47.308  52.505  1.00  0.00    -0.342 OA
BRANCH  18  19
HETATM   19  C   UNL     1      26.118  46.944  53.480  1.00  0.00     0.069 A 
HETATM   20  C   UNL     1      26.836  45.746  53.476  1.00  0.00     0.044 A 
HETATM   21  C   UNL     1      27.748  45.449  54.505  1.00  0.00    -0.053 A 
HETATM   22  C   UNL     1      27.925  46.367  55.559  1.00  0.00    -0.056 A 
HETATM   23  C   UNL     1      28.491  44.141  54.469  1.00  0.00     0.049 C 
HETATM   24  C   UNL     1      28.879  46.096  56.690  1.00  0.00     0.049 C 
HETATM   25  C   UNL     1      27.222  47.582  55.532  1.00  0.00     0.010 A 
HETATM   26  C   UNL     1      26.331  47.870  54.496  1.00  0.00     0.037 A 
ENDBRANCH  18  19
ENDBRANCH  17  18
ENDBRANCH   1  17
TORSDOF 5
ENDMDL
