MODEL 1
REMARK VINA RESULT:      -8.0      0.000      0.000
REMARK  6 active torsions:
REMARK  status: ('A' for Active; 'I' for Inactive)
REMARK    1  A    between atoms: C_7  and  S_8 
REMARK    2  A    between atoms: S_8  and  C_9 
REMARK    3  A    between atoms: C_9  and  C_10 
REMARK    4  A    between atoms: C_18  and  C_19 
REMARK    5  A    between atoms: C_26  and  C_27 
REMARK    6  A    between atoms: C_27  and  O_28 
ROOT
HETATM    1  C   UNL     1      29.768  37.498  50.661  1.00  0.00     0.070 C 
HETATM    2  C   UNL     1      28.833  38.621  50.286  1.00  0.00     0.037 A 
HETATM    3  N   UNL     1      28.952  39.778  51.046  1.00  0.00    -0.192 N 
HETATM    4  C   UNL     1      28.188  40.870  50.858  1.00  0.00     0.726 A 
HETATM    5  N   UNL     1      27.217  40.855  49.897  1.00  0.00    -0.082 N 
HETATM    6  N   UNL     1      26.533  42.019  49.873  1.00  0.00    -0.128 NA
HETATM    7  C   UNL     1      27.202  42.721  50.798  1.00  0.00     0.226 A 
HETATM    8  N   UNL     1      28.202  42.037  51.444  1.00  0.00    -0.035 NA
HETATM    9  C   UNL     1      26.967  39.720  48.993  1.00  0.00     0.204 A 
HETATM   10  C   UNL     1      27.904  38.557  49.302  1.00  0.00     0.070 A 
HETATM   11  H   UNL     1      29.674  39.804  51.762  1.00  0.00     0.184 HD
ENDROOT
BRANCH   7  12
HETATM   12  S   UNL     1      26.880  44.394  51.155  1.00  0.00    -0.083 SA
BRANCH  12  13
HETATM   13  C   UNL     1      26.262  44.293  52.857  1.00  0.00     0.123 C 
BRANCH  13  14
HETATM   14  C   UNL     1      27.218  44.957  53.823  1.00  0.00    -0.027 A 
HETATM   15  C   UNL     1      27.074  46.290  54.241  1.00  0.00     0.041 A 
HETATM   16 CL   UNL     1      25.767  47.289  53.710  1.00  0.00    -0.084 Cl
HETATM   17  C   UNL     1      28.004  46.866  55.115  1.00  0.00     0.024 A 
HETATM   18  C   UNL     1      29.094  46.126  55.572  1.00  0.00     0.002 A 
HETATM   19  C   UNL     1      29.256  44.807  55.158  1.00  0.00     0.001 A 
HETATM   20  C   UNL     1      28.327  44.227  54.293  1.00  0.00     0.009 A 
ENDBRANCH  13  14
ENDBRANCH  12  13
ENDBRANCH   7  12
BRANCH   9  21
HETATM   21  C   UNL     1      27.064  40.190  47.542  1.00  0.00    -0.006 A 
HETATM   22  C   UNL     1      25.957  40.195  46.675  1.00  0.00     0.042 A 
HETATM   23 CL   UNL     1      24.389  39.659  47.166  1.00  0.00    -0.084 Cl
HETATM   24  C   UNL     1      26.088  40.636  45.354  1.00  0.00     0.024 A 
HETATM   25  C   UNL     1      27.319  41.082  44.876  1.00  0.00     0.002 A 
HETATM   26  C   UNL     1      28.425  41.086  45.717  1.00  0.00     0.001 A 
HETATM   27  C   UNL     1      28.303  40.643  47.036  1.00  0.00     0.011 A 
ENDBRANCH   9  21
BRANCH  10  28
HETATM   28  C   UNL     1      27.784  37.367  48.438  1.00  0.00     0.293 C 
HETATM   29  O   UNL     1      28.508  37.135  47.483  1.00  0.00    -0.259 OA
BRANCH  28  30
HETATM   30  O   UNL     1      26.763  36.596  48.879  1.00  0.00    -0.323 OA
HETATM   31  C   UNL     1      25.785  36.309  47.876  1.00  0.00     0.213 C 
ENDBRANCH  28  30
ENDBRANCH  10  28
TORSDOF 6
ENDMDL
MODEL 2
REMARK VINA RESULT:      -7.7     12.341     14.975
REMARK  6 active torsions:
REMARK  status: ('A' for Active; 'I' for Inactive)
REMARK    1  A    between atoms: C_7  and  S_8 
REMARK    2  A    between atoms: S_8  and  C_9 
REMARK    3  A    between atoms: C_9  and  C_10 
REMARK    4  A    between atoms: C_18  and  C_19 
REMARK    5  A    between atoms: C_26  and  C_27 
REMARK    6  A    between atoms: C_27  and  O_28 
ROOT
HETATM    1  C   UNL     1      28.741  53.196  37.879  1.00  0.00     0.070 C 
HETATM    2  C   UNL     1      28.554  52.070  38.866  1.00  0.00     0.037 A 
HETATM    3  N   UNL     1      27.390  51.327  38.714  1.00  0.00    -0.192 N 
HETATM    4  C   UNL     1      27.057  50.300  39.515  1.00  0.00     0.726 A 
HETATM    5  N   UNL     1      27.874  49.967  40.559  1.00  0.00    -0.082 N 
HETATM    6  N   UNL     1      27.367  48.937  41.270  1.00  0.00    -0.128 NA
HETATM    7  C   UNL     1      26.277  48.646  40.546  1.00  0.00     0.226 A 
HETATM    8  N   UNL     1      26.040  49.480  39.482  1.00  0.00    -0.035 NA
HETATM    9  C   UNL     1      29.151  50.638  40.854  1.00  0.00     0.204 A 
HETATM   10  C   UNL     1      29.414  51.772  39.869  1.00  0.00     0.070 A 
HETATM   11  H   UNL     1      26.775  51.561  37.938  1.00  0.00     0.184 HD
ENDROOT
BRANCH   7  12
HETATM   12  S   UNL     1      25.236  47.291  40.877  1.00  0.00    -0.083 SA
BRANCH  12  13
HETATM   13  C   UNL     1      25.255  46.419  39.287  1.00  0.00     0.123 C 
BRANCH  13  14
HETATM   14  C   UNL     1      26.666  46.049  38.888  1.00  0.00    -0.027 A 
HETATM   15  C   UNL     1      27.237  46.432  37.662  1.00  0.00     0.041 A 
HETATM   16 CL   UNL     1      26.381  47.390  36.506  1.00  0.00    -0.084 Cl
HETATM   17  C   UNL     1      28.538  46.039  37.329  1.00  0.00     0.024 A 
HETATM   18  C   UNL     1      29.283  45.251  38.206  1.00  0.00     0.002 A 
HETATM   19  C   UNL     1      28.728  44.854  39.420  1.00  0.00     0.001 A 
HETATM   20  C   UNL     1      27.433  45.250  39.758  1.00  0.00     0.009 A 
ENDBRANCH  13  14
ENDBRANCH  12  13
ENDBRANCH   7  12
BRANCH   9  21
HETATM   21  C   UNL     1      30.276  49.604  40.884  1.00  0.00    -0.006 A 
HETATM   22  C   UNL     1      31.291  49.622  41.857  1.00  0.00     0.042 A 
HETATM   23 CL   UNL     1      31.367  50.820  43.100  1.00  0.00    -0.084 Cl
HETATM   24  C   UNL     1      32.303  48.656  41.849  1.00  0.00     0.024 A 
HETATM   25  C   UNL     1      32.319  47.656  40.879  1.00  0.00     0.002 A 
HETATM   26  C   UNL     1      31.324  47.620  39.909  1.00  0.00     0.001 A 
HETATM   27  C   UNL     1      30.314  48.584  39.907  1.00  0.00     0.011 A 
ENDBRANCH   9  21
BRANCH  10  28
HETATM   28  C   UNL     1      30.687  52.501  40.029  1.00  0.00     0.293 C 
HETATM   29  O   UNL     1      30.887  53.358  40.876  1.00  0.00    -0.259 OA
BRANCH  28  30
HETATM   30  O   UNL     1      31.571  52.065  39.103  1.00  0.00    -0.323 OA
HETATM   31  C   UNL     1      32.924  52.045  39.564  1.00  0.00     0.213 C 
ENDBRANCH  28  30
ENDBRANCH  10  28
TORSDOF 6
ENDMDL
MODEL 3
REMARK VINA RESULT:      -7.6     12.499     15.054
REMARK  6 active torsions:
REMARK  status: ('A' for Active; 'I' for Inactive)
REMARK    1  A    between atoms: C_7  and  S_8 
REMARK    2  A    between atoms: S_8  and  C_9 
REMARK    3  A    between atoms: C_9  and  C_10 
REMARK    4  A    between atoms: C_18  and  C_19 
REMARK    5  A    between atoms: C_26  and  C_27 
REMARK    6  A    between atoms: C_27  and  O_28 
ROOT
HETATM    1  C   UNL     1      34.794  49.862  41.692  1.00  0.00     0.070 C 
HETATM    2  C   UNL     1      33.509  49.593  40.950  1.00  0.00     0.037 A 
HETATM    3  N   UNL     1      33.036  48.288  41.025  1.00  0.00    -0.192 N 
HETATM    4  C   UNL     1      31.914  47.870  40.412  1.00  0.00     0.726 A 
HETATM    5  N   UNL     1      31.200  48.747  39.644  1.00  0.00    -0.082 N 
HETATM    6  N   UNL     1      30.128  48.147  39.084  1.00  0.00    -0.128 NA
HETATM    7  C   UNL     1      30.215  46.923  39.624  1.00  0.00     0.226 A 
HETATM    8  N   UNL     1      31.315  46.709  40.418  1.00  0.00    -0.035 NA
HETATM    9  C   UNL     1      31.548  50.167  39.471  1.00  0.00     0.204 A 
HETATM   10  C   UNL     1      32.829  50.512  40.223  1.00  0.00     0.070 A 
HETATM   11  H   UNL     1      33.556  47.627  41.597  1.00  0.00     0.184 HD
ENDROOT
BRANCH   7  12
HETATM   12  S   UNL     1      29.019  45.681  39.391  1.00  0.00    -0.083 SA
BRANCH  12  13
HETATM   13  C   UNL     1      27.687  46.245  40.485  1.00  0.00     0.123 C 
BRANCH  13  14
HETATM   14  C   UNL     1      26.839  47.299  39.809  1.00  0.00    -0.027 A 
HETATM   15  C   UNL     1      25.913  46.998  38.796  1.00  0.00     0.041 A 
HETATM   16 CL   UNL     1      25.638  45.381  38.249  1.00  0.00    -0.084 Cl
HETATM   17  C   UNL     1      25.173  48.014  38.182  1.00  0.00     0.024 A 
HETATM   18  C   UNL     1      25.354  49.344  38.560  1.00  0.00     0.002 A 
HETATM   19  C   UNL     1      26.275  49.661  39.555  1.00  0.00     0.001 A 
HETATM   20  C   UNL     1      27.010  48.649  40.174  1.00  0.00     0.009 A 
ENDBRANCH  13  14
ENDBRANCH  12  13
ENDBRANCH   7  12
BRANCH   9  21
HETATM   21  C   UNL     1      30.363  51.039  39.884  1.00  0.00    -0.006 A 
HETATM   22  C   UNL     1      29.670  51.852  38.970  1.00  0.00     0.042 A 
HETATM   23 CL   UNL     1      30.101  51.949  37.300  1.00  0.00    -0.084 Cl
HETATM   24  C   UNL     1      28.589  52.634  39.390  1.00  0.00     0.024 A 
HETATM   25  C   UNL     1      28.178  52.617  40.721  1.00  0.00     0.002 A 
HETATM   26  C   UNL     1      28.849  51.819  41.640  1.00  0.00     0.001 A 
HETATM   27  C   UNL     1      29.932  51.039  41.230  1.00  0.00     0.011 A 
ENDBRANCH   9  21
BRANCH  10  28
HETATM   28  C   UNL     1      33.268  51.919  40.165  1.00  0.00     0.293 C 
HETATM   29  O   UNL     1      32.951  52.773  40.978  1.00  0.00    -0.259 OA
BRANCH  28  30
HETATM   30  O   UNL     1      34.066  52.094  39.086  1.00  0.00    -0.323 OA
HETATM   31  C   UNL     1      35.313  52.722  39.389  1.00  0.00     0.213 C 
ENDBRANCH  28  30
ENDBRANCH  10  28
TORSDOF 6
ENDMDL
MODEL 4
REMARK VINA RESULT:      -7.4      8.766     10.795
REMARK  6 active torsions:
REMARK  status: ('A' for Active; 'I' for Inactive)
REMARK    1  A    between atoms: C_7  and  S_8 
REMARK    2  A    between atoms: S_8  and  C_9 
REMARK    3  A    between atoms: C_9  and  C_10 
REMARK    4  A    between atoms: C_18  and  C_19 
REMARK    5  A    between atoms: C_26  and  C_27 
REMARK    6  A    between atoms: C_27  and  O_28 
ROOT
HETATM    1  C   UNL     1      19.002  52.276  48.804  1.00  0.00     0.070 C 
HETATM    2  C   UNL     1      19.931  51.138  48.461  1.00  0.00     0.037 A 
HETATM    3  N   UNL     1      21.094  51.064  49.219  1.00  0.00    -0.192 N 
HETATM    4  C   UNL     1      22.038  50.124  49.038  1.00  0.00     0.726 A 
HETATM    5  N   UNL     1      21.885  49.198  48.043  1.00  0.00    -0.082 N 
HETATM    6  N   UNL     1      22.940  48.358  47.989  1.00  0.00    -0.128 NA
HETATM    7  C   UNL     1      23.657  48.788  49.037  1.00  0.00     0.226 A 
HETATM    8  N   UNL     1      23.149  49.888  49.683  1.00  0.00    -0.035 NA
HETATM    9  C   UNL     1      20.709  49.122  47.160  1.00  0.00     0.204 A 
HETATM   10  C   UNL     1      19.714  50.233  47.476  1.00  0.00     0.070 A 
HETATM   11  H   UNL     1      21.217  51.744  49.965  1.00  0.00     0.184 HD
ENDROOT
BRANCH   7  12
HETATM   12  S   UNL     1      25.111  48.010  49.594  1.00  0.00    -0.083 SA
BRANCH  12  13
HETATM   13  C   UNL     1      24.484  46.386  50.103  1.00  0.00     0.123 C 
BRANCH  13  14
HETATM   14  C   UNL     1      24.978  46.024  51.487  1.00  0.00    -0.027 A 
HETATM   15  C   UNL     1      24.937  44.713  51.991  1.00  0.00     0.041 A 
HETATM   16 CL   UNL     1      24.341  43.384  51.060  1.00  0.00    -0.084 Cl
HETATM   17  C   UNL     1      25.380  44.436  53.289  1.00  0.00     0.024 A 
HETATM   18  C   UNL     1      25.859  45.461  54.105  1.00  0.00     0.002 A 
HETATM   19  C   UNL     1      25.896  46.766  53.623  1.00  0.00     0.001 A 
HETATM   20  C   UNL     1      25.461  47.046  52.327  1.00  0.00     0.009 A 
ENDBRANCH  13  14
ENDBRANCH  12  13
ENDBRANCH   7  12
BRANCH   9  21
HETATM   21  C   UNL     1      20.091  47.727  47.252  1.00  0.00    -0.006 A 
HETATM   22  C   UNL     1      19.476  47.251  48.423  1.00  0.00     0.042 A 
HETATM   23 CL   UNL     1      19.372  48.193  49.868  1.00  0.00    -0.084 Cl
HETATM   24  C   UNL     1      18.920  45.967  48.465  1.00  0.00     0.024 A 
HETATM   25  C   UNL     1      18.964  45.141  47.345  1.00  0.00     0.002 A 
HETATM   26  C   UNL     1      19.567  45.593  46.176  1.00  0.00     0.001 A 
HETATM   27  C   UNL     1      20.128  46.871  46.129  1.00  0.00     0.011 A 
ENDBRANCH   9  21
BRANCH  10  28
HETATM   28  C   UNL     1      18.467  50.244  46.688  1.00  0.00     0.293 C 
HETATM   29  O   UNL     1      17.388  49.851  47.101  1.00  0.00    -0.259 OA
BRANCH  28  30
HETATM   30  O   UNL     1      18.720  50.756  45.460  1.00  0.00    -0.323 OA
HETATM   31  C   UNL     1      17.564  51.292  44.812  1.00  0.00     0.213 C 
ENDBRANCH  28  30
ENDBRANCH  10  28
TORSDOF 6
ENDMDL
MODEL 5
REMARK VINA RESULT:      -7.3     10.526     12.795
REMARK  6 active torsions:
REMARK  status: ('A' for Active; 'I' for Inactive)
REMARK    1  A    between atoms: C_7  and  S_8 
REMARK    2  A    between atoms: S_8  and  C_9 
REMARK    3  A    between atoms: C_9  and  C_10 
REMARK    4  A    between atoms: C_18  and  C_19 
REMARK    5  A    between atoms: C_26  and  C_27 
REMARK    6  A    between atoms: C_27  and  O_28 
ROOT
HETATM    1  C   UNL     1      23.811  46.940  49.353  1.00  0.00     0.070 C 
HETATM    2  C   UNL     1      22.590  47.410  48.600  1.00  0.00     0.037 A 
HETATM    3  N   UNL     1      21.729  46.408  48.171  1.00  0.00    -0.192 N 
HETATM    4  C   UNL     1      20.603  46.646  47.474  1.00  0.00     0.726 A 
HETATM    5  N   UNL     1      20.282  47.929  47.132  1.00  0.00    -0.082 N 
HETATM    6  N   UNL     1      19.141  47.974  46.412  1.00  0.00    -0.128 NA
HETATM    7  C   UNL     1      18.785  46.682  46.426  1.00  0.00     0.226 A 
HETATM    8  N   UNL     1      19.674  45.836  47.041  1.00  0.00    -0.035 NA
HETATM    9  C   UNL     1      21.072  49.110  47.520  1.00  0.00     0.204 A 
HETATM   10  C   UNL     1      22.311  48.704  48.312  1.00  0.00     0.070 A 
HETATM   11  H   UNL     1      21.954  45.448  48.423  1.00  0.00     0.184 HD
ENDROOT
BRANCH   7  12
HETATM   12  S   UNL     1      17.292  46.087  45.758  1.00  0.00    -0.083 SA
BRANCH  12  13
HETATM   13  C   UNL     1      16.650  47.564  44.925  1.00  0.00     0.123 C 
BRANCH  13  14
HETATM   14  C   UNL     1      16.297  48.642  45.927  1.00  0.00    -0.027 A 
HETATM   15  C   UNL     1      16.628  49.994  45.739  1.00  0.00     0.041 A 
HETATM   16 CL   UNL     1      17.448  50.556  44.325  1.00  0.00    -0.084 Cl
HETATM   17  C   UNL     1      16.304  50.948  46.711  1.00  0.00     0.024 A 
HETATM   18  C   UNL     1      15.657  50.565  47.886  1.00  0.00     0.002 A 
HETATM   19  C   UNL     1      15.331  49.228  48.091  1.00  0.00     0.001 A 
HETATM   20  C   UNL     1      15.647  48.275  47.121  1.00  0.00     0.009 A 
ENDBRANCH  13  14
ENDBRANCH  12  13
ENDBRANCH   7  12
BRANCH   9  21
HETATM   21  C   UNL     1      20.182  50.096  48.275  1.00  0.00    -0.006 A 
HETATM   22  C   UNL     1      19.425  49.720  49.398  1.00  0.00     0.042 A 
HETATM   23 CL   UNL     1      19.422  48.107  50.020  1.00  0.00    -0.084 Cl
HETATM   24  C   UNL     1      18.623  50.654  50.063  1.00  0.00     0.024 A 
HETATM   25  C   UNL     1      18.565  51.975  49.624  1.00  0.00     0.002 A 
HETATM   26  C   UNL     1      19.307  52.368  48.517  1.00  0.00     0.001 A 
HETATM   27  C   UNL     1      20.106  51.440  47.846  1.00  0.00     0.011 A 
ENDBRANCH   9  21
BRANCH  10  28
HETATM   28  C   UNL     1      23.170  49.800  48.798  1.00  0.00     0.293 C 
HETATM   29  O   UNL     1      23.159  50.228  49.941  1.00  0.00    -0.259 OA
BRANCH  28  30
HETATM   30  O   UNL     1      23.956  50.234  47.784  1.00  0.00    -0.323 OA
HETATM   31  C   UNL     1      25.351  50.016  48.004  1.00  0.00     0.213 C 
ENDBRANCH  28  30
ENDBRANCH  10  28
TORSDOF 6
ENDMDL
MODEL 6
REMARK VINA RESULT:      -7.3      8.823     11.180
REMARK  6 active torsions:
REMARK  status: ('A' for Active; 'I' for Inactive)
REMARK    1  A    between atoms: C_7  and  S_8 
REMARK    2  A    between atoms: S_8  and  C_9 
REMARK    3  A    between atoms: C_9  and  C_10 
REMARK    4  A    between atoms: C_18  and  C_19 
REMARK    5  A    between atoms: C_26  and  C_27 
REMARK    6  A    between atoms: C_27  and  O_28 
ROOT
HETATM    1  C   UNL     1      17.830  48.462  44.481  1.00  0.00     0.070 C 
HETATM    2  C   UNL     1      18.714  48.035  45.627  1.00  0.00     0.037 A 
HETATM    3  N   UNL     1      19.503  46.916  45.389  1.00  0.00    -0.192 N 
HETATM    4  C   UNL     1      20.338  46.391  46.303  1.00  0.00     0.726 A 
HETATM    5  N   UNL     1      20.409  46.947  47.549  1.00  0.00    -0.082 N 
HETATM    6  N   UNL     1      21.270  46.272  48.340  1.00  0.00    -0.128 NA
HETATM    7  C   UNL     1      21.744  45.363  47.476  1.00  0.00     0.226 A 
HETATM    8  N   UNL     1      21.172  45.387  46.228  1.00  0.00    -0.035 NA
HETATM    9  C   UNL     1      19.655  48.143  47.964  1.00  0.00     0.204 A 
HETATM   10  C   UNL     1      18.760  48.644  46.836  1.00  0.00     0.070 A 
HETATM   11  H   UNL     1      19.464  46.495  44.464  1.00  0.00     0.184 HD
ENDROOT
BRANCH   7  12
HETATM   12  S   UNL     1      23.020  44.244  47.859  1.00  0.00    -0.083 SA
BRANCH  12  13
HETATM   13  C   UNL     1      23.429  44.723  49.559  1.00  0.00     0.123 C 
BRANCH  13  14
HETATM   14  C   UNL     1      24.555  45.734  49.583  1.00  0.00    -0.027 A 
HETATM   15  C   UNL     1      25.910  45.364  49.595  1.00  0.00     0.041 A 
HETATM   16 CL   UNL     1      26.416  43.711  49.555  1.00  0.00    -0.084 Cl
HETATM   17  C   UNL     1      26.913  46.338  49.645  1.00  0.00     0.024 A 
HETATM   18  C   UNL     1      26.580  47.691  49.696  1.00  0.00     0.002 A 
HETATM   19  C   UNL     1      25.241  48.074  49.695  1.00  0.00     0.001 A 
HETATM   20  C   UNL     1      24.238  47.105  49.638  1.00  0.00     0.009 A 
ENDBRANCH  13  14
ENDBRANCH  12  13
ENDBRANCH   7  12
BRANCH   9  21
HETATM   21  C   UNL     1      20.626  49.209  48.470  1.00  0.00    -0.006 A 
HETATM   22  C   UNL     1      20.443  49.873  49.696  1.00  0.00     0.042 A 
HETATM   23 CL   UNL     1      19.101  49.555  50.736  1.00  0.00    -0.084 Cl
HETATM   24  C   UNL     1      21.357  50.843  50.124  1.00  0.00     0.024 A 
HETATM   25  C   UNL     1      22.466  51.164  49.343  1.00  0.00     0.002 A 
HETATM   26  C   UNL     1      22.665  50.517  48.129  1.00  0.00     0.001 A 
HETATM   27  C   UNL     1      21.754  49.552  47.693  1.00  0.00     0.011 A 
ENDBRANCH   9  21
BRANCH  10  28
HETATM   28  C   UNL     1      17.979  49.865  47.109  1.00  0.00     0.293 C 
HETATM   29  O   UNL     1      18.257  50.971  46.674  1.00  0.00    -0.259 OA
BRANCH  28  30
HETATM   30  O   UNL     1      16.926  49.554  47.900  1.00  0.00    -0.323 OA
HETATM   31  C   UNL     1      16.017  50.639  48.101  1.00  0.00     0.213 C 
ENDBRANCH  28  30
ENDBRANCH  10  28
TORSDOF 6
ENDMDL
MODEL 7
REMARK VINA RESULT:      -7.3      6.638      8.583
REMARK  6 active torsions:
REMARK  status: ('A' for Active; 'I' for Inactive)
REMARK    1  A    between atoms: C_7  and  S_8 
REMARK    2  A    between atoms: S_8  and  C_9 
REMARK    3  A    between atoms: C_9  and  C_10 
REMARK    4  A    between atoms: C_18  and  C_19 
REMARK    5  A    between atoms: C_26  and  C_27 
REMARK    6  A    between atoms: C_27  and  O_28 
ROOT
HETATM    1  C   UNL     1      21.007  44.664  45.617  1.00  0.00     0.070 C 
HETATM    2  C   UNL     1      21.628  45.300  46.836  1.00  0.00     0.037 A 
HETATM    3  N   UNL     1      22.832  44.747  47.254  1.00  0.00    -0.192 N 
HETATM    4  C   UNL     1      23.514  45.180  48.329  1.00  0.00     0.726 A 
HETATM    5  N   UNL     1      23.003  46.197  49.085  1.00  0.00    -0.082 N 
HETATM    6  N   UNL     1      23.802  46.476  50.137  1.00  0.00    -0.128 NA
HETATM    7  C   UNL     1      24.822  45.638  49.904  1.00  0.00     0.226 A 
HETATM    8  N   UNL     1      24.664  44.807  48.823  1.00  0.00    -0.035 NA
HETATM    9  C   UNL     1      21.749  46.906  48.777  1.00  0.00     0.204 A 
HETATM   10  C   UNL     1      21.084  46.327  47.533  1.00  0.00     0.070 A 
HETATM   11  H   UNL     1      23.226  43.992  46.696  1.00  0.00     0.184 HD
ENDROOT
BRANCH   7  12
HETATM   12  S   UNL     1      26.277  45.604  50.860  1.00  0.00    -0.083 SA
BRANCH  12  13
HETATM   13  C   UNL     1      25.607  45.528  52.543  1.00  0.00     0.123 C 
BRANCH  13  14
HETATM   14  C   UNL     1      26.671  45.857  53.567  1.00  0.00    -0.027 A 
HETATM   15  C   UNL     1      27.479  44.878  54.169  1.00  0.00     0.041 A 
HETATM   16 CL   UNL     1      27.347  43.201  53.770  1.00  0.00    -0.084 Cl
HETATM   17  C   UNL     1      28.430  45.233  55.132  1.00  0.00     0.024 A 
HETATM   18  C   UNL     1      28.581  46.566  55.515  1.00  0.00     0.002 A 
HETATM   19  C   UNL     1      27.781  47.546  54.936  1.00  0.00     0.001 A 
HETATM   20  C   UNL     1      26.836  47.197  53.970  1.00  0.00     0.009 A 
ENDBRANCH  13  14
ENDBRANCH  12  13
ENDBRANCH   7  12
BRANCH   9  21
HETATM   21  C   UNL     1      22.025  48.405  48.660  1.00  0.00    -0.006 A 
HETATM   22  C   UNL     1      21.190  49.373  49.244  1.00  0.00     0.042 A 
HETATM   23 CL   UNL     1      19.770  48.960  50.137  1.00  0.00    -0.084 Cl
HETATM   24  C   UNL     1      21.479  50.736  49.114  1.00  0.00     0.024 A 
HETATM   25  C   UNL     1      22.604  51.156  48.406  1.00  0.00     0.002 A 
HETATM   26  C   UNL     1      23.443  50.214  47.822  1.00  0.00     0.001 A 
HETATM   27  C   UNL     1      23.158  48.853  47.944  1.00  0.00     0.011 A 
ENDBRANCH   9  21
BRANCH  10  28
HETATM   28  C   UNL     1      19.836  46.977  47.090  1.00  0.00     0.293 C 
HETATM   29  O   UNL     1      19.757  47.739  46.139  1.00  0.00    -0.259 OA
BRANCH  28  30
HETATM   30  O   UNL     1      18.821  46.591  47.897  1.00  0.00    -0.323 OA
HETATM   31  C   UNL     1      17.882  45.719  47.262  1.00  0.00     0.213 C 
ENDBRANCH  28  30
ENDBRANCH  10  28
TORSDOF 6
ENDMDL
MODEL 8
REMARK VINA RESULT:      -7.1      8.756     11.105
REMARK  6 active torsions:
REMARK  status: ('A' for Active; 'I' for Inactive)
REMARK    1  A    between atoms: C_7  and  S_8 
REMARK    2  A    between atoms: S_8  and  C_9 
REMARK    3  A    between atoms: C_9  and  C_10 
REMARK    4  A    between atoms: C_18  and  C_19 
REMARK    5  A    between atoms: C_26  and  C_27 
REMARK    6  A    between atoms: C_27  and  O_28 
ROOT
HETATM    1  C   UNL     1      24.185  44.779  50.516  1.00  0.00     0.070 C 
HETATM    2  C   UNL     1      23.436  45.552  49.459  1.00  0.00     0.037 A 
HETATM    3  N   UNL     1      22.518  44.818  48.718  1.00  0.00    -0.192 N 
HETATM    4  C   UNL     1      21.775  45.343  47.727  1.00  0.00     0.726 A 
HETATM    5  N   UNL     1      21.934  46.659  47.392  1.00  0.00    -0.082 N 
HETATM    6  N   UNL     1      21.134  47.002  46.361  1.00  0.00    -0.128 NA
HETATM    7  C   UNL     1      20.459  45.859  46.176  1.00  0.00     0.226 A 
HETATM    8  N   UNL     1      20.848  44.812  46.975  1.00  0.00    -0.035 NA
HETATM    9  C   UNL     1      22.849  47.583  48.084  1.00  0.00     0.204 A 
HETATM   10  C   UNL     1      23.619  46.866  49.188  1.00  0.00     0.070 A 
HETATM   11  H   UNL     1      22.387  43.838  48.960  1.00  0.00     0.184 HD
ENDROOT
BRANCH   7  12
HETATM   12  S   UNL     1      19.150  45.686  45.043  1.00  0.00    -0.083 SA
BRANCH  12  13
HETATM   13  C   UNL     1      17.718  46.121  46.068  1.00  0.00     0.123 C 
BRANCH  13  14
HETATM   14  C   UNL     1      17.708  47.600  46.386  1.00  0.00    -0.027 A 
HETATM   15  C   UNL     1      17.250  48.113  47.611  1.00  0.00     0.041 A 
HETATM   16 CL   UNL     1      16.682  47.091  48.884  1.00  0.00    -0.084 Cl
HETATM   17  C   UNL     1      17.235  49.493  47.844  1.00  0.00     0.024 A 
HETATM   18  C   UNL     1      17.664  50.379  46.857  1.00  0.00     0.002 A 
HETATM   19  C   UNL     1      18.110  49.887  45.633  1.00  0.00     0.001 A 
HETATM   20  C   UNL     1      18.133  48.511  45.400  1.00  0.00     0.009 A 
ENDBRANCH  13  14
ENDBRANCH  12  13
ENDBRANCH   7  12
BRANCH   9  21
HETATM   21  C   UNL     1      22.065  48.791  48.595  1.00  0.00    -0.006 A 
HETATM   22  C   UNL     1      22.492  50.113  48.378  1.00  0.00     0.042 A 
HETATM   23 CL   UNL     1      23.946  50.493  47.526  1.00  0.00    -0.084 Cl
HETATM   24  C   UNL     1      21.744  51.192  48.862  1.00  0.00     0.024 A 
HETATM   25  C   UNL     1      20.559  50.974  49.563  1.00  0.00     0.002 A 
HETATM   26  C   UNL     1      20.119  49.674  49.787  1.00  0.00     0.001 A 
HETATM   27  C   UNL     1      20.864  48.593  49.311  1.00  0.00     0.011 A 
ENDBRANCH   9  21
BRANCH  10  28
HETATM   28  C   UNL     1      24.543  47.692  49.988  1.00  0.00     0.293 C 
HETATM   29  O   UNL     1      24.451  47.855  51.195  1.00  0.00    -0.259 OA
BRANCH  28  30
HETATM   30  O   UNL     1      25.488  48.220  49.176  1.00  0.00    -0.323 OA
HETATM   31  C   UNL     1      26.809  48.165  49.719  1.00  0.00     0.213 C 
ENDBRANCH  28  30
ENDBRANCH  10  28
TORSDOF 6
ENDMDL
MODEL 9
REMARK VINA RESULT:      -7.1     14.048     15.800
REMARK  6 active torsions:
REMARK  status: ('A' for Active; 'I' for Inactive)
REMARK    1  A    between atoms: C_7  and  S_8 
REMARK    2  A    between atoms: S_8  and  C_9 
REMARK    3  A    between atoms: C_9  and  C_10 
REMARK    4  A    between atoms: C_18  and  C_19 
REMARK    5  A    between atoms: C_26  and  C_27 
REMARK    6  A    between atoms: C_27  and  O_28 
ROOT
HETATM    1  C   UNL     1      20.727  51.292  48.531  1.00  0.00     0.070 C 
HETATM    2  C   UNL     1      19.233  51.256  48.739  1.00  0.00     0.037 A 
HETATM    3  N   UNL     1      18.680  52.398  49.305  1.00  0.00    -0.192 N 
HETATM    4  C   UNL     1      17.369  52.531  49.573  1.00  0.00     0.726 A 
HETATM    5  N   UNL     1      16.519  51.493  49.312  1.00  0.00    -0.082 N 
HETATM    6  N   UNL     1      15.253  51.793  49.673  1.00  0.00    -0.128 NA
HETATM    7  C   UNL     1      15.401  53.064  50.072  1.00  0.00     0.226 A 
HETATM    8  N   UNL     1      16.689  53.538  50.053  1.00  0.00    -0.035 NA
HETATM    9  C   UNL     1      16.934  50.220  48.699  1.00  0.00     0.204 A 
HETATM   10  C   UNL     1      18.437  50.203  48.436  1.00  0.00     0.070 A 
HETATM   11  H   UNL     1      19.300  53.180  49.500  1.00  0.00     0.184 HD
ENDROOT
BRANCH   7  12
HETATM   12  S   UNL     1      14.073  54.084  50.547  1.00  0.00    -0.083 SA
BRANCH  12  13
HETATM   13  C   UNL     1      14.694  55.727  50.096  1.00  0.00     0.123 C 
BRANCH  13  14
HETATM   14  C   UNL     1      14.936  56.572  51.327  1.00  0.00    -0.027 A 
HETATM   15  C   UNL     1      14.932  57.977  51.299  1.00  0.00     0.041 A 
HETATM   16 CL   UNL     1      14.619  58.870  49.852  1.00  0.00    -0.084 Cl
HETATM   17  C   UNL     1      15.190  58.713  52.461  1.00  0.00     0.024 A 
HETATM   18  C   UNL     1      15.468  58.060  53.662  1.00  0.00     0.002 A 
HETATM   19  C   UNL     1      15.486  56.669  53.703  1.00  0.00     0.001 A 
HETATM   20  C   UNL     1      15.222  55.931  52.548  1.00  0.00     0.009 A 
ENDBRANCH  13  14
ENDBRANCH  12  13
ENDBRANCH   7  12
BRANCH   9  21
HETATM   21  C   UNL     1      16.108  49.967  47.438  1.00  0.00    -0.006 A 
HETATM   22  C   UNL     1      16.192  50.793  46.304  1.00  0.00     0.042 A 
HETATM   23 CL   UNL     1      17.227  52.175  46.234  1.00  0.00    -0.084 Cl
HETATM   24  C   UNL     1      15.420  50.525  45.168  1.00  0.00     0.024 A 
HETATM   25  C   UNL     1      14.556  49.432  45.142  1.00  0.00     0.002 A 
HETATM   26  C   UNL     1      14.460  48.602  46.253  1.00  0.00     0.001 A 
HETATM   27  C   UNL     1      15.224  48.866  47.391  1.00  0.00     0.011 A 
ENDBRANCH   9  21
BRANCH  10  28
HETATM   28  C   UNL     1      18.977  48.996  47.783  1.00  0.00     0.293 C 
HETATM   29  O   UNL     1      19.262  48.924  46.598  1.00  0.00    -0.259 OA
BRANCH  28  30
HETATM   30  O   UNL     1      19.103  48.010  48.702  1.00  0.00    -0.323 OA
HETATM   31  C   UNL     1      18.428  46.802  48.344  1.00  0.00     0.213 C 
ENDBRANCH  28  30
ENDBRANCH  10  28
TORSDOF 6
ENDMDL
MODEL 10
REMARK VINA RESULT:      -6.9     11.100     13.007
REMARK  6 active torsions:
REMARK  status: ('A' for Active; 'I' for Inactive)
REMARK    1  A    between atoms: C_7  and  S_8 
REMARK    2  A    between atoms: S_8  and  C_9 
REMARK    3  A    between atoms: C_9  and  C_10 
REMARK    4  A    between atoms: C_18  and  C_19 
REMARK    5  A    between atoms: C_26  and  C_27 
REMARK    6  A    between atoms: C_27  and  O_28 
ROOT
HETATM    1  C   UNL     1      23.531  50.614  48.119  1.00  0.00     0.070 C 
HETATM    2  C   UNL     1      22.124  50.299  48.565  1.00  0.00     0.037 A 
HETATM    3  N   UNL     1      21.286  51.396  48.723  1.00  0.00    -0.192 N 
HETATM    4  C   UNL     1      20.008  51.299  49.129  1.00  0.00     0.726 A 
HETATM    5  N   UNL     1      19.490  50.073  49.437  1.00  0.00    -0.082 N 
HETATM    6  N   UNL     1      18.210  50.172  49.854  1.00  0.00    -0.128 NA
HETATM    7  C   UNL     1      17.995  51.485  49.694  1.00  0.00     0.226 A 
HETATM    8  N   UNL     1      19.085  52.211  49.281  1.00  0.00    -0.035 NA
HETATM    9  C   UNL     1      20.233  48.807  49.311  1.00  0.00     0.204 A 
HETATM   10  C   UNL     1      21.660  49.055  48.833  1.00  0.00     0.070 A 
HETATM   11  H   UNL     1      21.658  52.314  48.492  1.00  0.00     0.184 HD
ENDROOT
BRANCH   7  12
HETATM   12  S   UNL     1      16.450  52.245  49.945  1.00  0.00    -0.083 SA
BRANCH  12  13
HETATM   13  C   UNL     1      15.959  52.645  48.245  1.00  0.00     0.123 C 
BRANCH  13  14
HETATM   14  C   UNL     1      15.826  51.390  47.409  1.00  0.00    -0.027 A 
HETATM   15  C   UNL     1      16.155  51.346  46.044  1.00  0.00     0.041 A 
HETATM   16 CL   UNL     1      16.771  52.722  45.198  1.00  0.00    -0.084 Cl
HETATM   17  C   UNL     1      15.986  50.167  45.309  1.00  0.00     0.024 A 
HETATM   18  C   UNL     1      15.479  49.021  45.922  1.00  0.00     0.002 A 
HETATM   19  C   UNL     1      15.139  49.052  47.271  1.00  0.00     0.001 A 
HETATM   20  C   UNL     1      15.312  50.224  48.009  1.00  0.00     0.009 A 
ENDBRANCH  13  14
ENDBRANCH  12  13
ENDBRANCH   7  12
BRANCH   9  21
HETATM   21  C   UNL     1      19.461  47.850  48.403  1.00  0.00    -0.006 A 
HETATM   22  C   UNL     1      19.063  48.202  47.102  1.00  0.00     0.042 A 
HETATM   23 CL   UNL     1      19.398  49.751  46.414  1.00  0.00    -0.084 Cl
HETATM   24  C   UNL     1      18.358  47.296  46.302  1.00  0.00     0.024 A 
HETATM   25  C   UNL     1      18.043  46.026  46.782  1.00  0.00     0.002 A 
HETATM   26  C   UNL     1      18.429  45.658  48.065  1.00  0.00     0.001 A 
HETATM   27  C   UNL     1      19.128  46.559  48.871  1.00  0.00     0.011 A 
ENDBRANCH   9  21
BRANCH  10  28
HETATM   28  C   UNL     1      22.501  47.862  48.625  1.00  0.00     0.293 C 
HETATM   29  O   UNL     1      23.200  47.353  49.487  1.00  0.00    -0.259 OA
BRANCH  28  30
HETATM   30  O   UNL     1      22.364  47.437  47.347  1.00  0.00    -0.323 OA
HETATM   31  C   UNL     1      22.335  46.014  47.214  1.00  0.00     0.213 C 
ENDBRANCH  28  30
ENDBRANCH  10  28
TORSDOF 6
ENDMDL
