MODEL 1
REMARK VINA RESULT:     -10.0      0.000      0.000
REMARK  5 active torsions:
REMARK  status: ('A' for Active; 'I' for Inactive)
REMARK    1  A    between atoms: C_7  and  C_8 
REMARK    2  A    between atoms: C_16  and  C_17 
REMARK    3  A    between atoms: C_19  and  O_20 
REMARK    4  A    between atoms: C_24  and  C_25 
REMARK       I    between atoms: C_25  and  N_26 
REMARK    5  A    between atoms: N_26  and  C_27 
ROOT
HETATM    1  C   UNL     1      24.469  50.276  47.719  1.00  0.00     0.070 C 
HETATM    2  C   UNL     1      24.427  49.056  48.606  1.00  0.00     0.037 C 
HETATM    3  N   UNL     1      25.656  48.661  49.144  1.00  0.00    -0.192 N 
HETATM    4  C   UNL     1      25.740  47.799  50.178  1.00  0.00     0.726 A 
HETATM    5  N   UNL     1      24.644  47.061  50.514  1.00  0.00    -0.083 N 
HETATM    6  N   UNL     1      24.843  46.351  51.639  1.00  0.00    -0.135 NA
HETATM    7  C   UNL     1      26.121  46.668  51.925  1.00  0.00     0.199 A 
HETATM    8  N   UNL     1      26.702  47.553  51.029  1.00  0.00    -0.041 NA
HETATM    9  C   UNL     1      23.372  47.118  49.794  1.00  0.00     0.202 C 
HETATM   10  C   UNL     1      23.298  48.363  48.912  1.00  0.00     0.062 C 
HETATM   11  H   UNL     1      26.432  49.306  49.011  1.00  0.00     0.184 HD
ENDROOT
BRANCH  10  12
HETATM   12  C   UNL     1      21.943  48.921  48.602  1.00  0.00     0.256 C 
HETATM   13  N   UNL     1      21.434  49.771  49.560  1.00  0.00    -0.323 N 
HETATM   14  H   UNL     1      21.931  49.875  50.434  1.00  0.00     0.169 HD
HETATM   15  O   UNL     1      21.418  48.648  47.529  1.00  0.00    -0.267 OA
BRANCH  13  16
HETATM   16  C   UNL     1      20.264  50.560  49.466  1.00  0.00     0.035 A 
HETATM   17  C   UNL     1      19.086  50.306  50.171  1.00  0.00     0.029 A 
HETATM   18  C   UNL     1      17.965  51.126  49.998  1.00  0.00     0.002 A 
HETATM   19  C   UNL     1      18.010  52.199  49.113  1.00  0.00     0.000 A 
HETATM   20  C   UNL     1      19.179  52.462  48.405  1.00  0.00     0.002 A 
HETATM   21  C   UNL     1      20.302  51.651  48.585  1.00  0.00     0.029 A 
ENDBRANCH  13  16
ENDBRANCH  10  12
BRANCH   9  22
HETATM   22  C   UNL     1      23.184  45.810  49.021  1.00  0.00    -0.025 A 
HETATM   23  C   UNL     1      24.244  44.906  48.812  1.00  0.00     0.046 A 
HETATM   24  C   UNL     1      24.034  43.739  48.082  1.00  0.00     0.066 A 
HETATM   25  C   UNL     1      22.782  43.436  47.567  1.00  0.00     0.036 A 
HETATM   26  C   UNL     1      21.717  44.306  47.789  1.00  0.00     0.003 A 
HETATM   27  C   UNL     1      21.914  45.484  48.512  1.00  0.00     0.010 A 
BRANCH  24  28
HETATM   28  O   UNL     1      25.046  42.856  47.848  1.00  0.00    -0.361 OA
HETATM   29  H   UNL     1      25.719  42.949  48.542  1.00  0.00     0.217 HD
ENDBRANCH  24  28
ENDBRANCH   9  22
BRANCH   7  30
HETATM   30  C   UNL     1      26.829  46.170  53.101  1.00  0.00     0.016 A 
HETATM   31  C   UNL     1      27.280  44.843  53.158  1.00  0.00     0.039 A 
HETATM   32  C   UNL     1      27.934  44.373  54.296  1.00  0.00     0.035 A 
HETATM   33 CL   UNL     1      28.478  42.741  54.355  1.00  0.00    -0.084 Cl
HETATM   34  C   UNL     1      28.146  45.210  55.389  1.00  0.00     0.024 A 
HETATM   35  C   UNL     1      27.704  46.532  55.343  1.00  0.00     0.003 A 
HETATM   36  C   UNL     1      27.051  47.009  54.204  1.00  0.00     0.015 A 
ENDBRANCH   7  30
TORSDOF 5
ENDMDL
MODEL 2
REMARK VINA RESULT:     -10.0      4.734      7.938
REMARK  5 active torsions:
REMARK  status: ('A' for Active; 'I' for Inactive)
REMARK    1  A    between atoms: C_7  and  C_8 
REMARK    2  A    between atoms: C_16  and  C_17 
REMARK    3  A    between atoms: C_19  and  O_20 
REMARK    4  A    between atoms: C_24  and  C_25 
REMARK       I    between atoms: C_25  and  N_26 
REMARK    5  A    between atoms: N_26  and  C_27 
ROOT
HETATM    1  C   UNL     1      26.618  38.955  49.962  1.00  0.00     0.070 C 
HETATM    2  C   UNL     1      26.852  40.377  50.407  1.00  0.00     0.037 C 
HETATM    3  N   UNL     1      26.973  40.563  51.787  1.00  0.00    -0.192 N 
HETATM    4  C   UNL     1      27.481  41.697  52.314  1.00  0.00     0.726 A 
HETATM    5  N   UNL     1      27.598  42.800  51.521  1.00  0.00    -0.083 N 
HETATM    6  N   UNL     1      28.239  43.803  52.148  1.00  0.00    -0.135 NA
HETATM    7  C   UNL     1      28.453  43.257  53.361  1.00  0.00     0.199 A 
HETATM    8  N   UNL     1      27.983  41.959  53.492  1.00  0.00    -0.041 NA
HETATM    9  C   UNL     1      27.170  42.846  50.123  1.00  0.00     0.202 C 
HETATM   10  C   UNL     1      26.968  41.439  49.565  1.00  0.00     0.062 C 
HETATM   11  H   UNL     1      27.038  39.718  52.350  1.00  0.00     0.184 HD
ENDROOT
BRANCH  10  12
HETATM   12  C   UNL     1      27.140  41.239  48.091  1.00  0.00     0.256 C 
HETATM   13  N   UNL     1      26.005  40.825  47.427  1.00  0.00    -0.323 N 
HETATM   14  H   UNL     1      25.186  40.580  47.967  1.00  0.00     0.169 HD
HETATM   15  O   UNL     1      28.219  41.504  47.575  1.00  0.00    -0.267 OA
BRANCH  13  16
HETATM   16  C   UNL     1      25.829  40.710  46.029  1.00  0.00     0.035 A 
HETATM   17  C   UNL     1      26.642  39.939  45.195  1.00  0.00     0.029 A 
HETATM   18  C   UNL     1      26.410  39.902  43.816  1.00  0.00     0.002 A 
HETATM   19  C   UNL     1      25.371  40.641  43.258  1.00  0.00     0.000 A 
HETATM   20  C   UNL     1      24.554  41.412  44.079  1.00  0.00     0.002 A 
HETATM   21  C   UNL     1      24.778  41.442  45.457  1.00  0.00     0.029 A 
ENDBRANCH  13  16
ENDBRANCH  10  12
BRANCH   9  22
HETATM   22  C   UNL     1      25.924  43.730  50.018  1.00  0.00    -0.025 A 
HETATM   23  C   UNL     1      24.654  43.282  50.431  1.00  0.00     0.046 A 
HETATM   24  C   UNL     1      23.543  44.111  50.295  1.00  0.00     0.066 A 
HETATM   25  C   UNL     1      23.667  45.390  49.772  1.00  0.00     0.036 A 
HETATM   26  C   UNL     1      24.921  45.857  49.385  1.00  0.00     0.003 A 
HETATM   27  C   UNL     1      26.043  45.035  49.509  1.00  0.00     0.010 A 
BRANCH  24  28
HETATM   28  O   UNL     1      22.298  43.697  50.668  1.00  0.00    -0.361 OA
HETATM   29  H   UNL     1      22.290  43.529  51.624  1.00  0.00     0.217 HD
ENDBRANCH  24  28
ENDBRANCH   9  22
BRANCH   7  30
HETATM   30  C   UNL     1      29.163  43.944  54.437  1.00  0.00     0.016 A 
HETATM   31  C   UNL     1      30.206  43.308  55.128  1.00  0.00     0.039 A 
HETATM   32  C   UNL     1      30.860  43.966  56.169  1.00  0.00     0.035 A 
HETATM   33 CL   UNL     1      32.133  43.172  57.012  1.00  0.00    -0.084 Cl
HETATM   34  C   UNL     1      30.488  45.256  56.537  1.00  0.00     0.024 A 
HETATM   35  C   UNL     1      29.455  45.899  55.856  1.00  0.00     0.003 A 
HETATM   36  C   UNL     1      28.798  45.246  54.810  1.00  0.00     0.015 A 
ENDBRANCH   7  30
TORSDOF 5
ENDMDL
MODEL 3
REMARK VINA RESULT:      -9.9      3.565      8.880
REMARK  5 active torsions:
REMARK  status: ('A' for Active; 'I' for Inactive)
REMARK    1  A    between atoms: C_7  and  C_8 
REMARK    2  A    between atoms: C_16  and  C_17 
REMARK    3  A    between atoms: C_19  and  O_20 
REMARK    4  A    between atoms: C_24  and  C_25 
REMARK       I    between atoms: C_25  and  N_26 
REMARK    5  A    between atoms: N_26  and  C_27 
ROOT
HETATM    1  C   UNL     1      23.247  43.689  47.818  1.00  0.00     0.070 C 
HETATM    2  C   UNL     1      23.157  45.125  48.274  1.00  0.00     0.037 C 
HETATM    3  N   UNL     1      22.340  45.952  47.497  1.00  0.00    -0.192 N 
HETATM    4  C   UNL     1      21.917  47.156  47.937  1.00  0.00     0.726 A 
HETATM    5  N   UNL     1      22.531  47.718  49.017  1.00  0.00    -0.083 N 
HETATM    6  N   UNL     1      21.916  48.846  49.413  1.00  0.00    -0.135 NA
HETATM    7  C   UNL     1      20.940  48.949  48.489  1.00  0.00     0.199 A 
HETATM    8  N   UNL     1      20.928  47.921  47.558  1.00  0.00    -0.041 NA
HETATM    9  C   UNL     1      23.658  47.107  49.721  1.00  0.00     0.202 C 
HETATM   10  C   UNL     1      23.789  45.628  49.368  1.00  0.00     0.062 C 
HETATM   11  H   UNL     1      21.771  45.488  46.792  1.00  0.00     0.184 HD
ENDROOT
BRANCH  10  12
HETATM   12  C   UNL     1      24.422  44.720  50.377  1.00  0.00     0.256 C 
HETATM   13  N   UNL     1      25.651  44.216  50.012  1.00  0.00    -0.323 N 
HETATM   14  H   UNL     1      25.990  44.388  49.075  1.00  0.00     0.169 HD
HETATM   15  O   UNL     1      23.858  44.536  51.450  1.00  0.00    -0.267 OA
BRANCH  13  16
HETATM   16  C   UNL     1      26.542  43.471  50.818  1.00  0.00     0.035 A 
HETATM   17  C   UNL     1      26.519  42.079  50.936  1.00  0.00     0.029 A 
HETATM   18  C   UNL     1      27.424  41.424  51.779  1.00  0.00     0.002 A 
HETATM   19  C   UNL     1      28.352  42.153  52.516  1.00  0.00     0.000 A 
HETATM   20  C   UNL     1      28.384  43.540  52.406  1.00  0.00     0.002 A 
HETATM   21  C   UNL     1      27.488  44.195  51.558  1.00  0.00     0.029 A 
ENDBRANCH  13  16
ENDBRANCH  10  12
BRANCH   9  22
HETATM   22  C   UNL     1      24.922  47.919  49.426  1.00  0.00    -0.025 A 
HETATM   23  C   UNL     1      24.918  49.008  48.532  1.00  0.00     0.046 A 
HETATM   24  C   UNL     1      26.097  49.705  48.274  1.00  0.00     0.066 A 
HETATM   25  C   UNL     1      27.283  49.355  48.901  1.00  0.00     0.036 A 
HETATM   26  C   UNL     1      27.298  48.298  49.808  1.00  0.00     0.003 A 
HETATM   27  C   UNL     1      26.126  47.585  50.072  1.00  0.00     0.010 A 
BRANCH  24  28
HETATM   28  O   UNL     1      26.127  50.750  47.399  1.00  0.00    -0.361 OA
HETATM   29  H   UNL     1      26.345  50.419  46.512  1.00  0.00     0.217 HD
ENDBRANCH  24  28
ENDBRANCH   9  22
BRANCH   7  30
HETATM   30  C   UNL     1      19.944  50.017  48.488  1.00  0.00     0.016 A 
HETATM   31  C   UNL     1      18.573  49.719  48.463  1.00  0.00     0.039 A 
HETATM   32  C   UNL     1      17.633  50.748  48.437  1.00  0.00     0.035 A 
HETATM   33 CL   UNL     1      15.954  50.369  48.402  1.00  0.00    -0.084 Cl
HETATM   34  C   UNL     1      18.039  52.080  48.435  1.00  0.00     0.024 A 
HETATM   35  C   UNL     1      19.399  52.389  48.462  1.00  0.00     0.003 A 
HETATM   36  C   UNL     1      20.345  51.362  48.491  1.00  0.00     0.015 A 
ENDBRANCH   7  30
TORSDOF 5
ENDMDL
MODEL 4
REMARK VINA RESULT:      -9.3      4.228      8.987
REMARK  5 active torsions:
REMARK  status: ('A' for Active; 'I' for Inactive)
REMARK    1  A    between atoms: C_7  and  C_8 
REMARK    2  A    between atoms: C_16  and  C_17 
REMARK    3  A    between atoms: C_19  and  O_20 
REMARK    4  A    between atoms: C_24  and  C_25 
REMARK       I    between atoms: C_25  and  N_26 
REMARK    5  A    between atoms: N_26  and  C_27 
ROOT
HETATM    1  C   UNL     1      26.137  41.713  50.492  1.00  0.00     0.070 C 
HETATM    2  C   UNL     1      25.231  42.883  50.193  1.00  0.00     0.037 C 
HETATM    3  N   UNL     1      24.440  42.753  49.048  1.00  0.00    -0.192 N 
HETATM    4  C   UNL     1      23.379  43.554  48.817  1.00  0.00     0.726 A 
HETATM    5  N   UNL     1      23.246  44.700  49.542  1.00  0.00    -0.083 N 
HETATM    6  N   UNL     1      22.079  45.320  49.293  1.00  0.00    -0.135 NA
HETATM    7  C   UNL     1      21.550  44.511  48.354  1.00  0.00     0.199 A 
HETATM    8  N   UNL     1      22.341  43.418  48.033  1.00  0.00    -0.041 NA
HETATM    9  C   UNL     1      24.213  45.144  50.548  1.00  0.00     0.202 C 
HETATM   10  C   UNL     1      25.136  44.001  50.961  1.00  0.00     0.062 C 
HETATM   11  H   UNL     1      24.436  41.836  48.606  1.00  0.00     0.184 HD
ENDROOT
BRANCH  10  12
HETATM   12  C   UNL     1      25.737  44.047  52.332  1.00  0.00     0.256 C 
HETATM   13  N   UNL     1      27.103  44.231  52.361  1.00  0.00    -0.323 N 
HETATM   14  H   UNL     1      27.616  44.210  51.489  1.00  0.00     0.169 HD
HETATM   15  O   UNL     1      24.999  43.982  53.309  1.00  0.00    -0.267 OA
BRANCH  13  16
HETATM   16  C   UNL     1      27.908  44.469  53.498  1.00  0.00     0.035 A 
HETATM   17  C   UNL     1      27.789  45.587  54.325  1.00  0.00     0.029 A 
HETATM   18  C   UNL     1      28.647  45.756  55.418  1.00  0.00     0.002 A 
HETATM   19  C   UNL     1      29.635  44.813  55.687  1.00  0.00     0.000 A 
HETATM   20  C   UNL     1      29.763  43.695  54.869  1.00  0.00     0.002 A 
HETATM   21  C   UNL     1      28.900  43.520  53.784  1.00  0.00     0.029 A 
ENDBRANCH  13  16
ENDBRANCH  10  12
BRANCH   9  22
HETATM   22  C   UNL     1      24.958  46.367  50.008  1.00  0.00    -0.025 A 
HETATM   23  C   UNL     1      26.309  46.304  49.610  1.00  0.00     0.046 A 
HETATM   24  C   UNL     1      26.955  47.447  49.147  1.00  0.00     0.066 A 
HETATM   25  C   UNL     1      26.283  48.657  49.052  1.00  0.00     0.036 A 
HETATM   26  C   UNL     1      24.940  48.730  49.415  1.00  0.00     0.003 A 
HETATM   27  C   UNL     1      24.280  47.593  49.888  1.00  0.00     0.010 A 
BRANCH  24  28
HETATM   28  O   UNL     1      28.266  47.420  48.774  1.00  0.00    -0.361 OA
HETATM   29  H   UNL     1      28.353  46.919  47.947  1.00  0.00     0.217 HD
ENDBRANCH  24  28
ENDBRANCH   9  22
BRANCH   7  30
HETATM   30  C   UNL     1      20.237  44.728  47.754  1.00  0.00     0.016 A 
HETATM   31  C   UNL     1      19.286  45.544  48.384  1.00  0.00     0.039 A 
HETATM   32  C   UNL     1      18.027  45.724  47.813  1.00  0.00     0.035 A 
HETATM   33 CL   UNL     1      16.868  46.724  48.600  1.00  0.00    -0.084 Cl
HETATM   34  C   UNL     1      17.696  45.097  46.614  1.00  0.00     0.024 A 
HETATM   35  C   UNL     1      18.634  44.285  45.977  1.00  0.00     0.003 A 
HETATM   36  C   UNL     1      19.898  44.104  46.543  1.00  0.00     0.015 A 
ENDBRANCH   7  30
TORSDOF 5
ENDMDL
MODEL 5
REMARK VINA RESULT:      -8.9      4.040      6.355
REMARK  5 active torsions:
REMARK  status: ('A' for Active; 'I' for Inactive)
REMARK    1  A    between atoms: C_7  and  C_8 
REMARK    2  A    between atoms: C_16  and  C_17 
REMARK    3  A    between atoms: C_19  and  O_20 
REMARK    4  A    between atoms: C_24  and  C_25 
REMARK       I    between atoms: C_25  and  N_26 
REMARK    5  A    between atoms: N_26  and  C_27 
ROOT
HETATM    1  C   UNL     1      22.088  44.742  49.813  1.00  0.00     0.070 C 
HETATM    2  C   UNL     1      23.473  44.233  50.127  1.00  0.00     0.037 C 
HETATM    3  N   UNL     1      23.645  42.850  50.013  1.00  0.00    -0.192 N 
HETATM    4  C   UNL     1      24.869  42.284  49.958  1.00  0.00     0.726 A 
HETATM    5  N   UNL     1      25.956  43.022  50.323  1.00  0.00    -0.083 N 
HETATM    6  N   UNL     1      27.107  42.368  50.090  1.00  0.00    -0.135 NA
HETATM    7  C   UNL     1      26.649  41.194  49.614  1.00  0.00     0.199 A 
HETATM    8  N   UNL     1      25.267  41.113  49.535  1.00  0.00    -0.041 NA
HETATM    9  C   UNL     1      25.877  44.399  50.811  1.00  0.00     0.202 C 
HETATM   10  C   UNL     1      24.523  45.022  50.480  1.00  0.00     0.062 C 
HETATM   11  H   UNL     1      22.875  42.334  49.594  1.00  0.00     0.184 HD
ENDROOT
BRANCH  10  12
HETATM   12  C   UNL     1      24.455  46.510  50.324  1.00  0.00     0.256 C 
HETATM   13  N   UNL     1      23.840  46.944  49.170  1.00  0.00    -0.323 N 
HETATM   14  H   UNL     1      23.584  46.263  48.468  1.00  0.00     0.169 HD
HETATM   15  O   UNL     1      24.879  47.223  51.226  1.00  0.00    -0.267 OA
BRANCH  13  16
HETATM   16  C   UNL     1      23.496  48.274  48.835  1.00  0.00     0.035 A 
HETATM   17  C   UNL     1      24.407  49.234  48.392  1.00  0.00     0.029 A 
HETATM   18  C   UNL     1      23.983  50.536  48.106  1.00  0.00     0.002 A 
HETATM   19  C   UNL     1      22.647  50.891  48.268  1.00  0.00     0.000 A 
HETATM   20  C   UNL     1      21.730  49.942  48.709  1.00  0.00     0.002 A 
HETATM   21  C   UNL     1      22.150  48.639  48.985  1.00  0.00     0.029 A 
ENDBRANCH  13  16
ENDBRANCH  10  12
BRANCH   9  22
HETATM   22  C   UNL     1      26.206  44.412  52.306  1.00  0.00    -0.025 A 
HETATM   23  C   UNL     1      27.519  44.600  52.781  1.00  0.00     0.046 A 
HETATM   24  C   UNL     1      27.777  44.581  54.149  1.00  0.00     0.066 A 
HETATM   25  C   UNL     1      26.752  44.397  55.065  1.00  0.00     0.036 A 
HETATM   26  C   UNL     1      25.444  44.237  54.613  1.00  0.00     0.003 A 
HETATM   27  C   UNL     1      25.171  44.247  53.243  1.00  0.00     0.010 A 
BRANCH  24  28
HETATM   28  O   UNL     1      29.040  44.741  54.636  1.00  0.00    -0.361 OA
HETATM   29  H   UNL     1      29.475  45.471  54.166  1.00  0.00     0.217 HD
ENDBRANCH  24  28
ENDBRANCH   9  22
BRANCH   7  30
HETATM   30  C   UNL     1      27.522  40.111  49.170  1.00  0.00     0.016 A 
HETATM   31  C   UNL     1      28.378  39.463  50.074  1.00  0.00     0.039 A 
HETATM   32  C   UNL     1      29.224  38.447  49.632  1.00  0.00     0.035 A 
HETATM   33 CL   UNL     1      30.273  37.665  50.750  1.00  0.00    -0.084 Cl
HETATM   34  C   UNL     1      29.231  38.062  48.294  1.00  0.00     0.024 A 
HETATM   35  C   UNL     1      28.383  38.696  47.387  1.00  0.00     0.003 A 
HETATM   36  C   UNL     1      27.531  39.713  47.825  1.00  0.00     0.015 A 
ENDBRANCH   7  30
TORSDOF 5
ENDMDL
MODEL 6
REMARK VINA RESULT:      -8.8      4.100      8.713
REMARK  5 active torsions:
REMARK  status: ('A' for Active; 'I' for Inactive)
REMARK    1  A    between atoms: C_7  and  C_8 
REMARK    2  A    between atoms: C_16  and  C_17 
REMARK    3  A    between atoms: C_19  and  O_20 
REMARK    4  A    between atoms: C_24  and  C_25 
REMARK       I    between atoms: C_25  and  N_26 
REMARK    5  A    between atoms: N_26  and  C_27 
ROOT
HETATM    1  C   UNL     1      26.230  42.731  50.099  1.00  0.00     0.070 C 
HETATM    2  C   UNL     1      25.262  43.821  49.705  1.00  0.00     0.037 C 
HETATM    3  N   UNL     1      24.648  43.658  48.460  1.00  0.00    -0.192 N 
HETATM    4  C   UNL     1      23.553  44.363  48.106  1.00  0.00     0.726 A 
HETATM    5  N   UNL     1      23.212  45.465  48.833  1.00  0.00    -0.083 N 
HETATM    6  N   UNL     1      22.034  45.980  48.441  1.00  0.00    -0.135 NA
HETATM    7  C   UNL     1      21.717  45.160  47.420  1.00  0.00     0.199 A 
HETATM    8  N   UNL     1      22.648  44.159  47.185  1.00  0.00    -0.041 NA
HETATM    9  C   UNL     1      23.988  45.961  49.970  1.00  0.00     0.202 C 
HETATM   10  C   UNL     1      24.956  44.896  50.479  1.00  0.00     0.062 C 
HETATM   11  H   UNL     1      24.792  42.761  48.001  1.00  0.00     0.184 HD
ENDROOT
BRANCH  10  12
HETATM   12  C   UNL     1      25.361  44.949  51.920  1.00  0.00     0.256 C 
HETATM   13  N   UNL     1      26.569  45.568  52.161  1.00  0.00    -0.323 N 
HETATM   14  H   UNL     1      27.143  45.838  51.373  1.00  0.00     0.169 HD
HETATM   15  O   UNL     1      24.595  44.510  52.771  1.00  0.00    -0.267 OA
BRANCH  13  16
HETATM   16  C   UNL     1      27.122  45.901  53.418  1.00  0.00     0.035 A 
HETATM   17  C   UNL     1      26.917  47.118  54.071  1.00  0.00     0.029 A 
HETATM   18  C   UNL     1      27.525  47.372  55.305  1.00  0.00     0.002 A 
HETATM   19  C   UNL     1      28.349  46.417  55.893  1.00  0.00     0.000 A 
HETATM   20  C   UNL     1      28.560  45.200  55.252  1.00  0.00     0.002 A 
HETATM   21  C   UNL     1      27.945  44.940  54.025  1.00  0.00     0.029 A 
ENDBRANCH  13  16
ENDBRANCH  10  12
BRANCH   9  22
HETATM   22  C   UNL     1      24.675  47.268  49.566  1.00  0.00    -0.025 A 
HETATM   23  C   UNL     1      26.077  47.402  49.551  1.00  0.00     0.046 A 
HETATM   24  C   UNL     1      26.660  48.617  49.200  1.00  0.00     0.066 A 
HETATM   25  C   UNL     1      25.878  49.705  48.841  1.00  0.00     0.036 A 
HETATM   26  C   UNL     1      24.490  49.581  48.824  1.00  0.00     0.003 A 
HETATM   27  C   UNL     1      23.891  48.371  49.181  1.00  0.00     0.010 A 
BRANCH  24  28
HETATM   28  O   UNL     1      28.013  48.781  49.196  1.00  0.00    -0.361 OA
HETATM   29  H   UNL     1      28.440  47.916  49.083  1.00  0.00     0.217 HD
ENDBRANCH  24  28
ENDBRANCH   9  22
BRANCH   7  30
HETATM   30  C   UNL     1      20.481  45.273  46.652  1.00  0.00     0.016 A 
HETATM   31  C   UNL     1      19.999  46.527  46.249  1.00  0.00     0.039 A 
HETATM   32  C   UNL     1      18.804  46.624  45.536  1.00  0.00     0.035 A 
HETATM   33 CL   UNL     1      18.222  48.169  45.053  1.00  0.00    -0.084 Cl
HETATM   34  C   UNL     1      18.076  45.481  45.216  1.00  0.00     0.024 A 
HETATM   35  C   UNL     1      18.546  44.228  45.609  1.00  0.00     0.003 A 
HETATM   36  C   UNL     1      19.744  44.126  46.320  1.00  0.00     0.015 A 
ENDBRANCH   7  30
TORSDOF 5
ENDMDL
MODEL 7
REMARK VINA RESULT:      -8.7      4.658      7.027
REMARK  5 active torsions:
REMARK  status: ('A' for Active; 'I' for Inactive)
REMARK    1  A    between atoms: C_7  and  C_8 
REMARK    2  A    between atoms: C_16  and  C_17 
REMARK    3  A    between atoms: C_19  and  O_20 
REMARK    4  A    between atoms: C_24  and  C_25 
REMARK       I    between atoms: C_25  and  N_26 
REMARK    5  A    between atoms: N_26  and  C_27 
ROOT
HETATM    1  C   UNL     1      23.751  44.879  48.055  1.00  0.00     0.070 C 
HETATM    2  C   UNL     1      24.708  44.013  48.836  1.00  0.00     0.037 C 
HETATM    3  N   UNL     1      25.794  44.683  49.408  1.00  0.00    -0.192 N 
HETATM    4  C   UNL     1      26.553  44.121  50.372  1.00  0.00     0.726 A 
HETATM    5  N   UNL     1      26.464  42.778  50.585  1.00  0.00    -0.083 N 
HETATM    6  N   UNL     1      27.177  42.391  51.657  1.00  0.00    -0.135 NA
HETATM    7  C   UNL     1      27.727  43.559  52.040  1.00  0.00     0.199 A 
HETATM    8  N   UNL     1      27.366  44.643  51.253  1.00  0.00    -0.041 NA
HETATM    9  C   UNL     1      25.610  41.885  49.801  1.00  0.00     0.202 C 
HETATM   10  C   UNL     1      24.562  42.674  49.021  1.00  0.00     0.062 C 
HETATM   11  H   UNL     1      25.765  45.700  49.372  1.00  0.00     0.184 HD
ENDROOT
BRANCH  10  12
HETATM   12  C   UNL     1      23.276  41.985  48.681  1.00  0.00     0.256 C 
HETATM   13  N   UNL     1      23.221  41.453  47.411  1.00  0.00    -0.323 N 
HETATM   14  H   UNL     1      23.976  41.650  46.767  1.00  0.00     0.169 HD
HETATM   15  O   UNL     1      22.407  41.887  49.540  1.00  0.00    -0.267 OA
BRANCH  13  16
HETATM   16  C   UNL     1      22.210  40.623  46.876  1.00  0.00     0.035 A 
HETATM   17  C   UNL     1      22.186  39.232  47.003  1.00  0.00     0.029 A 
HETATM   18  C   UNL     1      21.157  38.485  46.420  1.00  0.00     0.002 A 
HETATM   19  C   UNL     1      20.150  39.119  45.698  1.00  0.00     0.000 A 
HETATM   20  C   UNL     1      20.164  40.504  45.565  1.00  0.00     0.002 A 
HETATM   21  C   UNL     1      21.184  41.253  46.156  1.00  0.00     0.029 A 
ENDBRANCH  13  16
ENDBRANCH  10  12
BRANCH   9  22
HETATM   22  C   UNL     1      26.498  41.006  48.915  1.00  0.00    -0.025 A 
HETATM   23  C   UNL     1      27.244  41.538  47.844  1.00  0.00     0.046 A 
HETATM   24  C   UNL     1      28.020  40.698  47.049  1.00  0.00     0.066 A 
HETATM   25  C   UNL     1      28.088  39.337  47.304  1.00  0.00     0.036 A 
HETATM   26  C   UNL     1      27.378  38.800  48.376  1.00  0.00     0.003 A 
HETATM   27  C   UNL     1      26.589  39.628  49.178  1.00  0.00     0.010 A 
BRANCH  24  28
HETATM   28  O   UNL     1      28.736  41.182  45.995  1.00  0.00    -0.361 OA
HETATM   29  H   UNL     1      28.201  41.117  45.187  1.00  0.00     0.217 HD
ENDBRANCH  24  28
ENDBRANCH   9  22
BRANCH   7  30
HETATM   30  C   UNL     1      28.590  43.697  53.210  1.00  0.00     0.016 A 
HETATM   31  C   UNL     1      28.346  44.692  54.168  1.00  0.00     0.039 A 
HETATM   32  C   UNL     1      29.192  44.828  55.268  1.00  0.00     0.035 A 
HETATM   33 CL   UNL     1      28.884  46.056  56.433  1.00  0.00    -0.084 Cl
HETATM   34  C   UNL     1      30.287  43.982  55.430  1.00  0.00     0.024 A 
HETATM   35  C   UNL     1      30.538  42.988  54.485  1.00  0.00     0.003 A 
HETATM   36  C   UNL     1      29.692  42.845  53.382  1.00  0.00     0.015 A 
ENDBRANCH   7  30
TORSDOF 5
ENDMDL
MODEL 8
REMARK VINA RESULT:      -8.7     20.009     23.358
REMARK  5 active torsions:
REMARK  status: ('A' for Active; 'I' for Inactive)
REMARK    1  A    between atoms: C_7  and  C_8 
REMARK    2  A    between atoms: C_16  and  C_17 
REMARK    3  A    between atoms: C_19  and  O_20 
REMARK    4  A    between atoms: C_24  and  C_25 
REMARK       I    between atoms: C_25  and  N_26 
REMARK    5  A    between atoms: N_26  and  C_27 
ROOT
HETATM    1  C   UNL     1      37.499  44.373  63.030  1.00  0.00     0.070 C 
HETATM    2  C   UNL     1      38.135  45.318  64.020  1.00  0.00     0.037 C 
HETATM    3  N   UNL     1      37.760  46.659  63.897  1.00  0.00    -0.192 N 
HETATM    4  C   UNL     1      37.993  47.560  64.875  1.00  0.00     0.726 A 
HETATM    5  N   UNL     1      38.871  47.244  65.869  1.00  0.00    -0.083 N 
HETATM    6  N   UNL     1      38.896  48.181  66.833  1.00  0.00    -0.135 NA
HETATM    7  C   UNL     1      38.027  49.085  66.341  1.00  0.00     0.199 A 
HETATM    8  N   UNL     1      37.464  48.729  65.124  1.00  0.00    -0.041 NA
HETATM    9  C   UNL     1      39.617  45.986  65.927  1.00  0.00     0.202 C 
HETATM   10  C   UNL     1      39.002  44.942  64.998  1.00  0.00     0.062 C 
HETATM   11  H   UNL     1      36.993  46.855  63.258  1.00  0.00     0.184 HD
ENDROOT
BRANCH  10  12
HETATM   12  C   UNL     1      39.193  43.497  65.344  1.00  0.00     0.256 C 
HETATM   13  N   UNL     1      39.813  42.745  64.370  1.00  0.00    -0.323 N 
HETATM   14  H   UNL     1      39.993  43.167  63.469  1.00  0.00     0.169 HD
HETATM   15  O   UNL     1      38.855  43.101  66.454  1.00  0.00    -0.267 OA
BRANCH  13  16
HETATM   16  C   UNL     1      40.261  41.409  64.480  1.00  0.00     0.035 A 
HETATM   17  C   UNL     1      41.237  40.978  65.382  1.00  0.00     0.029 A 
HETATM   18  C   UNL     1      41.639  39.638  65.405  1.00  0.00     0.002 A 
HETATM   19  C   UNL     1      41.076  38.720  64.524  1.00  0.00     0.000 A 
HETATM   20  C   UNL     1      40.102  39.138  63.622  1.00  0.00     0.002 A 
HETATM   21  C   UNL     1      39.692  40.473  63.604  1.00  0.00     0.029 A 
ENDBRANCH  13  16
ENDBRANCH  10  12
BRANCH   9  22
HETATM   22  C   UNL     1      41.091  46.274  65.632  1.00  0.00    -0.025 A 
HETATM   23  C   UNL     1      41.718  45.827  64.452  1.00  0.00     0.046 A 
HETATM   24  C   UNL     1      43.069  46.091  64.236  1.00  0.00     0.066 A 
HETATM   25  C   UNL     1      43.812  46.808  65.161  1.00  0.00     0.036 A 
HETATM   26  C   UNL     1      43.200  47.280  66.320  1.00  0.00     0.003 A 
HETATM   27  C   UNL     1      41.848  47.018  66.555  1.00  0.00     0.010 A 
BRANCH  24  28
HETATM   28  O   UNL     1      43.706  45.654  63.113  1.00  0.00    -0.361 OA
HETATM   29  H   UNL     1      43.261  44.857  62.781  1.00  0.00     0.217 HD
ENDBRANCH  24  28
ENDBRANCH   9  22
BRANCH   7  30
HETATM   30  C   UNL     1      37.662  50.314  67.041  1.00  0.00     0.016 A 
HETATM   31  C   UNL     1      37.849  51.566  66.436  1.00  0.00     0.039 A 
HETATM   32  C   UNL     1      37.519  52.733  67.124  1.00  0.00     0.035 A 
HETATM   33 CL   UNL     1      37.758  54.262  66.373  1.00  0.00    -0.084 Cl
HETATM   34  C   UNL     1      37.002  52.672  68.416  1.00  0.00     0.024 A 
HETATM   35  C   UNL     1      36.810  51.433  69.026  1.00  0.00     0.003 A 
HETATM   36  C   UNL     1      37.136  50.260  68.341  1.00  0.00     0.015 A 
ENDBRANCH   7  30
TORSDOF 5
ENDMDL
MODEL 9
REMARK VINA RESULT:      -8.6      3.749      9.106
REMARK  5 active torsions:
REMARK  status: ('A' for Active; 'I' for Inactive)
REMARK    1  A    between atoms: C_7  and  C_8 
REMARK    2  A    between atoms: C_16  and  C_17 
REMARK    3  A    between atoms: C_19  and  O_20 
REMARK    4  A    between atoms: C_24  and  C_25 
REMARK       I    between atoms: C_25  and  N_26 
REMARK    5  A    between atoms: N_26  and  C_27 
ROOT
HETATM    1  C   UNL     1      26.441  42.915  49.629  1.00  0.00     0.070 C 
HETATM    2  C   UNL     1      25.574  44.145  49.519  1.00  0.00     0.037 C 
HETATM    3  N   UNL     1      24.631  44.126  48.488  1.00  0.00    -0.192 N 
HETATM    4  C   UNL     1      23.597  44.993  48.447  1.00  0.00     0.726 A 
HETATM    5  N   UNL     1      23.630  46.098  49.246  1.00  0.00    -0.083 N 
HETATM    6  N   UNL     1      22.478  46.790  49.192  1.00  0.00    -0.135 NA
HETATM    7  C   UNL     1      21.782  46.069  48.291  1.00  0.00     0.199 A 
HETATM    8  N   UNL     1      22.459  44.959  47.807  1.00  0.00    -0.041 NA
HETATM    9  C   UNL     1      24.746  46.429  50.132  1.00  0.00     0.202 C 
HETATM   10  C   UNL     1      25.648  45.218  50.353  1.00  0.00     0.062 C 
HETATM   11  H   UNL     1      24.514  43.240  48.002  1.00  0.00     0.184 HD
ENDROOT
BRANCH  10  12
HETATM   12  C   UNL     1      26.428  45.148  51.630  1.00  0.00     0.256 C 
HETATM   13  N   UNL     1      27.359  44.133  51.686  1.00  0.00    -0.323 N 
HETATM   14  H   UNL     1      27.381  43.451  50.940  1.00  0.00     0.169 HD
HETATM   15  O   UNL     1      26.242  46.002  52.489  1.00  0.00    -0.267 OA
BRANCH  13  16
HETATM   16  C   UNL     1      28.335  43.925  52.687  1.00  0.00     0.035 A 
HETATM   17  C   UNL     1      29.386  43.012  52.582  1.00  0.00     0.029 A 
HETATM   18  C   UNL     1      30.294  42.852  53.635  1.00  0.00     0.002 A 
HETATM   19  C   UNL     1      30.155  43.597  54.802  1.00  0.00     0.000 A 
HETATM   20  C   UNL     1      29.111  44.510  54.917  1.00  0.00     0.002 A 
HETATM   21  C   UNL     1      28.210  44.678  53.863  1.00  0.00     0.029 A 
ENDBRANCH  13  16
ENDBRANCH  10  12
BRANCH   9  22
HETATM   22  C   UNL     1      25.484  47.644  49.563  1.00  0.00    -0.025 A 
HETATM   23  C   UNL     1      24.807  48.682  48.892  1.00  0.00     0.046 A 
HETATM   24  C   UNL     1      25.521  49.757  48.369  1.00  0.00     0.066 A 
HETATM   25  C   UNL     1      26.898  49.837  48.514  1.00  0.00     0.036 A 
HETATM   26  C   UNL     1      27.578  48.833  49.198  1.00  0.00     0.003 A 
HETATM   27  C   UNL     1      26.877  47.744  49.722  1.00  0.00     0.010 A 
BRANCH  24  28
HETATM   28  O   UNL     1      24.895  50.766  47.698  1.00  0.00    -0.361 OA
HETATM   29  H   UNL     1      24.103  51.036  48.191  1.00  0.00     0.217 HD
ENDBRANCH  24  28
ENDBRANCH   9  22
BRANCH   7  30
HETATM   30  C   UNL     1      20.416  46.388  47.889  1.00  0.00     0.016 A 
HETATM   31  C   UNL     1      20.101  47.647  47.356  1.00  0.00     0.039 A 
HETATM   32  C   UNL     1      18.787  47.948  46.998  1.00  0.00     0.035 A 
HETATM   33 CL   UNL     1      18.413  49.499  46.351  1.00  0.00    -0.084 Cl
HETATM   34  C   UNL     1      17.774  47.007  47.163  1.00  0.00     0.024 A 
HETATM   35  C   UNL     1      18.075  45.751  47.689  1.00  0.00     0.003 A 
HETATM   36  C   UNL     1      19.390  45.443  48.047  1.00  0.00     0.015 A 
ENDBRANCH   7  30
TORSDOF 5
ENDMDL
MODEL 10
REMARK VINA RESULT:      -8.6     10.365     13.603
REMARK  5 active torsions:
REMARK  status: ('A' for Active; 'I' for Inactive)
REMARK    1  A    between atoms: C_7  and  C_8 
REMARK    2  A    between atoms: C_16  and  C_17 
REMARK    3  A    between atoms: C_19  and  O_20 
REMARK    4  A    between atoms: C_24  and  C_25 
REMARK       I    between atoms: C_25  and  N_26 
REMARK    5  A    between atoms: N_26  and  C_27 
ROOT
HETATM    1  C   UNL     1      31.456  46.756  40.199  1.00  0.00     0.070 C 
HETATM    2  C   UNL     1      30.214  47.612  40.235  1.00  0.00     0.037 C 
HETATM    3  N   UNL     1      29.139  47.145  39.474  1.00  0.00    -0.192 N 
HETATM    4  C   UNL     1      27.886  47.617  39.641  1.00  0.00     0.726 A 
HETATM    5  N   UNL     1      27.703  48.774  40.338  1.00  0.00    -0.083 N 
HETATM    6  N   UNL     1      26.399  49.043  40.531  1.00  0.00    -0.135 NA
HETATM    7  C   UNL     1      25.822  48.016  39.877  1.00  0.00     0.199 A 
HETATM    8  N   UNL     1      26.721  47.127  39.307  1.00  0.00    -0.041 NA
HETATM    9  C   UNL     1      28.797  49.569  40.897  1.00  0.00     0.202 C 
HETATM   10  C   UNL     1      30.088  48.758  40.958  1.00  0.00     0.062 C 
HETATM   11  H   UNL     1      29.236  46.209  39.086  1.00  0.00     0.184 HD
ENDROOT
BRANCH  10  12
HETATM   12  C   UNL     1      31.097  49.124  42.003  1.00  0.00     0.256 C 
HETATM   13  N   UNL     1      31.960  50.137  41.644  1.00  0.00    -0.323 N 
HETATM   14  H   UNL     1      31.939  50.482  40.693  1.00  0.00     0.169 HD
HETATM   15  O   UNL     1      31.057  48.566  43.093  1.00  0.00    -0.267 OA
BRANCH  13  16
HETATM   16  C   UNL     1      32.899  50.792  42.473  1.00  0.00     0.035 A 
HETATM   17  C   UNL     1      32.588  51.385  43.698  1.00  0.00     0.029 A 
HETATM   18  C   UNL     1      33.578  52.035  44.444  1.00  0.00     0.002 A 
HETATM   19  C   UNL     1      34.884  52.104  43.968  1.00  0.00     0.000 A 
HETATM   20  C   UNL     1      35.206  51.516  42.748  1.00  0.00     0.002 A 
HETATM   21  C   UNL     1      34.221  50.858  42.008  1.00  0.00     0.029 A 
ENDBRANCH  13  16
ENDBRANCH  10  12
BRANCH   9  22
HETATM   22  C   UNL     1      28.927  50.864  40.090  1.00  0.00    -0.025 A 
HETATM   23  C   UNL     1      29.443  50.879  38.779  1.00  0.00     0.046 A 
HETATM   24  C   UNL     1      29.566  52.083  38.090  1.00  0.00     0.066 A 
HETATM   25  C   UNL     1      29.169  53.279  38.669  1.00  0.00     0.036 A 
HETATM   26  C   UNL     1      28.631  53.278  39.954  1.00  0.00     0.003 A 
HETATM   27  C   UNL     1      28.508  52.079  40.661  1.00  0.00     0.010 A 
BRANCH  24  28
HETATM   28  O   UNL     1      30.080  52.130  36.829  1.00  0.00    -0.361 OA
HETATM   29  H   UNL     1      30.009  53.037  36.487  1.00  0.00     0.217 HD
ENDBRANCH  24  28
ENDBRANCH   9  22
BRANCH   7  30
HETATM   30  C   UNL     1      24.377  47.818  39.809  1.00  0.00     0.016 A 
HETATM   31  C   UNL     1      23.698  47.137  40.831  1.00  0.00     0.039 A 
HETATM   32  C   UNL     1      22.321  46.933  40.742  1.00  0.00     0.035 A 
HETATM   33 CL   UNL     1      21.502  46.091  42.000  1.00  0.00    -0.084 Cl
HETATM   34  C   UNL     1      21.604  47.399  39.643  1.00  0.00     0.024 A 
HETATM   35  C   UNL     1      22.268  48.079  38.622  1.00  0.00     0.003 A 
HETATM   36  C   UNL     1      23.647  48.289  38.707  1.00  0.00     0.015 A 
ENDBRANCH   7  30
TORSDOF 5
ENDMDL
