MODEL 1
REMARK VINA RESULT:      -8.9      0.000      0.000
REMARK  6 active torsions:
REMARK  status: ('A' for Active; 'I' for Inactive)
REMARK    1  A    between atoms: O_2  and  C_3 
REMARK    2  A    between atoms: C_6  and  C_7 
REMARK    3  A    between atoms: C_7  and  N_8 
REMARK       I    between atoms: N_8  and  C_9 
REMARK    4  A    between atoms: C_9  and  C_10 
REMARK    5  A    between atoms: C_10  and  O_11 
REMARK    6  A    between atoms: N_12  and  C_13 
ROOT
HETATM    1  C   UNL     1      19.504  49.815  47.926  1.00  0.00     0.256 C 
HETATM    2  N   UNL     1      18.656  49.965  49.112  1.00  0.00    -0.254 N 
HETATM    3  C   UNL     1      19.036  49.229  50.240  1.00  0.00     0.330 C 
HETATM    4  O   UNL     1      18.693  49.439  51.402  1.00  0.00    -0.246 OA
HETATM    5  N   UNL     1      19.769  48.084  49.994  1.00  0.00    -0.308 N 
HETATM    6  C   UNL     1      19.937  47.530  48.726  1.00  0.00     0.048 A 
HETATM    7  C   UNL     1      19.703  48.345  47.621  1.00  0.00     0.035 A 
HETATM    8  C   UNL     1      20.283  46.189  48.574  1.00  0.00     0.031 A 
HETATM    9  C   UNL     1      20.346  45.643  47.291  1.00  0.00     0.021 A 
HETATM   10  C   UNL     1      20.069  46.442  46.180  1.00  0.00     0.011 A 
HETATM   11 BR   UNL     1      20.139  45.691  44.446  1.00  0.00    -0.051 Br
HETATM   12  C   UNL     1      19.754  47.791  46.335  1.00  0.00     0.034 A 
HETATM   13  H   UNL     1      19.915  47.517  50.820  1.00  0.00     0.170 HD
ENDROOT
BRANCH   1  14
HETATM   14  C   UNL     1      20.907  50.528  48.207  1.00  0.00     0.279 C 
HETATM   15  N   UNL     1      22.019  49.908  47.665  1.00  0.00    -0.352 N 
HETATM   16  H   UNL     1      21.898  49.123  47.038  1.00  0.00     0.162 HD
HETATM   17  O   UNL     1      21.001  51.609  48.791  1.00  0.00    -0.268 OA
BRANCH  15  18
HETATM   18  C   UNL     1      23.351  50.445  47.820  1.00  0.00     0.161 C 
BRANCH  18  19
HETATM   19  C   UNL     1      24.248  49.476  48.548  1.00  0.00    -0.040 A 
HETATM   20  C   UNL     1      23.714  48.360  49.204  1.00  0.00     0.011 A 
HETATM   21  C   UNL     1      24.557  47.440  49.833  1.00  0.00     0.037 A 
HETATM   22  C   UNL     1      25.943  47.609  49.811  1.00  0.00     0.068 A 
HETATM   23  C   UNL     1      26.482  48.723  49.170  1.00  0.00     0.037 A 
HETATM   24  C   UNL     1      25.641  49.646  48.538  1.00  0.00     0.011 A 
BRANCH  22  25
HETATM   25  O   UNL     1      26.650  46.627  50.448  1.00  0.00    -0.356 OA
HETATM   26  C   UNL     1      26.737  45.370  49.789  1.00  0.00     0.210 C 
ENDBRANCH  22  25
ENDBRANCH  18  19
ENDBRANCH  15  18
ENDBRANCH   1  14
BRANCH   1  27
HETATM   27  O   UNL     1      18.976  50.467  46.768  1.00  0.00    -0.359 OA
HETATM   28  H   UNL     1      19.312  51.380  46.831  1.00  0.00     0.213 HD
ENDBRANCH   1  27
BRANCH   2  29
HETATM   29  C   UNL     1      17.651  50.975  49.204  1.00  0.00     0.042 A 
HETATM   30  C   UNL     1      17.910  52.216  49.798  1.00  0.00     0.030 A 
HETATM   31  C   UNL     1      16.901  53.176  49.923  1.00  0.00     0.002 A 
HETATM   32  C   UNL     1      15.615  52.903  49.467  1.00  0.00     0.000 A 
HETATM   33  C   UNL     1      15.335  51.669  48.888  1.00  0.00     0.002 A 
HETATM   34  C   UNL     1      16.345  50.711  48.762  1.00  0.00     0.030 A 
ENDBRANCH   2  29
TORSDOF 6
ENDMDL
MODEL 2
REMARK VINA RESULT:      -8.4      6.607      9.377
REMARK  6 active torsions:
REMARK  status: ('A' for Active; 'I' for Inactive)
REMARK    1  A    between atoms: O_2  and  C_3 
REMARK    2  A    between atoms: C_6  and  C_7 
REMARK    3  A    between atoms: C_7  and  N_8 
REMARK       I    between atoms: N_8  and  C_9 
REMARK    4  A    between atoms: C_9  and  C_10 
REMARK    5  A    between atoms: C_10  and  O_11 
REMARK    6  A    between atoms: N_12  and  C_13 
ROOT
HETATM    1  C   UNL     1      26.212  42.574  49.496  1.00  0.00     0.256 C 
HETATM    2  N   UNL     1      24.969  43.291  49.796  1.00  0.00    -0.254 N 
HETATM    3  C   UNL     1      23.821  42.503  49.935  1.00  0.00     0.330 C 
HETATM    4  O   UNL     1      22.773  42.825  50.493  1.00  0.00    -0.246 OA
HETATM    5  N   UNL     1      23.836  41.292  49.270  1.00  0.00    -0.308 N 
HETATM    6  C   UNL     1      24.797  40.941  48.323  1.00  0.00     0.048 A 
HETATM    7  C   UNL     1      25.998  41.647  48.319  1.00  0.00     0.035 A 
HETATM    8  C   UNL     1      24.540  39.948  47.381  1.00  0.00     0.031 A 
HETATM    9  C   UNL     1      25.485  39.690  46.386  1.00  0.00     0.021 A 
HETATM   10  C   UNL     1      26.673  40.423  46.348  1.00  0.00     0.011 A 
HETATM   11 BR   UNL     1      27.940  40.083  44.987  1.00  0.00    -0.051 Br
HETATM   12  C   UNL     1      26.939  41.396  47.312  1.00  0.00     0.034 A 
HETATM   13  H   UNL     1      22.945  40.811  49.292  1.00  0.00     0.170 HD
ENDROOT
BRANCH   1  14
HETATM   14  C   UNL     1      26.653  41.749  50.792  1.00  0.00     0.279 C 
HETATM   15  N   UNL     1      27.363  42.457  51.746  1.00  0.00    -0.352 N 
HETATM   16  H   UNL     1      27.472  43.459  51.648  1.00  0.00     0.162 HD
HETATM   17  O   UNL     1      26.315  40.580  50.986  1.00  0.00    -0.268 OA
BRANCH  15  18
HETATM   18  C   UNL     1      27.814  41.850  52.977  1.00  0.00     0.161 C 
BRANCH  18  19
HETATM   19  C   UNL     1      28.439  42.873  53.891  1.00  0.00    -0.040 A 
HETATM   20  C   UNL     1      29.744  42.703  54.371  1.00  0.00     0.011 A 
HETATM   21  C   UNL     1      30.333  43.682  55.176  1.00  0.00     0.037 A 
HETATM   22  C   UNL     1      29.640  44.847  55.509  1.00  0.00     0.068 A 
HETATM   23  C   UNL     1      28.337  45.019  55.045  1.00  0.00     0.037 A 
HETATM   24  C   UNL     1      27.744  44.042  54.238  1.00  0.00     0.011 A 
BRANCH  22  25
HETATM   25  O   UNL     1      30.339  45.728  56.287  1.00  0.00    -0.356 OA
HETATM   26  C   UNL     1      29.964  45.810  57.657  1.00  0.00     0.210 C 
ENDBRANCH  22  25
ENDBRANCH  18  19
ENDBRANCH  15  18
ENDBRANCH   1  14
BRANCH   1  27
HETATM   27  O   UNL     1      27.310  43.445  49.213  1.00  0.00    -0.359 OA
HETATM   28  H   UNL     1      27.025  44.313  49.555  1.00  0.00     0.213 HD
ENDBRANCH   1  27
BRANCH   2  29
HETATM   29  C   UNL     1      24.957  44.669  50.165  1.00  0.00     0.042 A 
HETATM   30  C   UNL     1      25.316  45.087  51.452  1.00  0.00     0.030 A 
HETATM   31  C   UNL     1      25.253  46.437  51.813  1.00  0.00     0.002 A 
HETATM   32  C   UNL     1      24.817  47.387  50.893  1.00  0.00     0.000 A 
HETATM   33  C   UNL     1      24.442  46.988  49.614  1.00  0.00     0.002 A 
HETATM   34  C   UNL     1      24.507  45.638  49.256  1.00  0.00     0.030 A 
ENDBRANCH   2  29
TORSDOF 6
ENDMDL
MODEL 3
REMARK VINA RESULT:      -8.2      5.289      9.593
REMARK  6 active torsions:
REMARK  status: ('A' for Active; 'I' for Inactive)
REMARK    1  A    between atoms: O_2  and  C_3 
REMARK    2  A    between atoms: C_6  and  C_7 
REMARK    3  A    between atoms: C_7  and  N_8 
REMARK       I    between atoms: N_8  and  C_9 
REMARK    4  A    between atoms: C_9  and  C_10 
REMARK    5  A    between atoms: C_10  and  O_11 
REMARK    6  A    between atoms: N_12  and  C_13 
ROOT
HETATM    1  C   UNL     1      24.711  43.947  50.551  1.00  0.00     0.256 C 
HETATM    2  N   UNL     1      26.038  43.892  49.933  1.00  0.00    -0.254 N 
HETATM    3  C   UNL     1      26.637  45.124  49.647  1.00  0.00     0.330 C 
HETATM    4  O   UNL     1      27.833  45.330  49.447  1.00  0.00    -0.246 OA
HETATM    5  N   UNL     1      25.773  46.184  49.453  1.00  0.00    -0.308 N 
HETATM    6  C   UNL     1      24.394  46.042  49.302  1.00  0.00     0.048 A 
HETATM    7  C   UNL     1      23.808  44.859  49.747  1.00  0.00     0.035 A 
HETATM    8  C   UNL     1      23.639  47.034  48.682  1.00  0.00     0.031 A 
HETATM    9  C   UNL     1      22.277  46.815  48.460  1.00  0.00     0.021 A 
HETATM   10  C   UNL     1      21.691  45.614  48.862  1.00  0.00     0.011 A 
HETATM   11 BR   UNL     1      19.852  45.316  48.542  1.00  0.00    -0.051 Br
HETATM   12  C   UNL     1      22.445  44.636  49.511  1.00  0.00     0.034 A 
HETATM   13  H   UNL     1      26.236  47.024  49.127  1.00  0.00     0.170 HD
ENDROOT
BRANCH   1  14
HETATM   14  C   UNL     1      24.865  44.482  52.049  1.00  0.00     0.279 C 
HETATM   15  N   UNL     1      25.463  43.612  52.943  1.00  0.00    -0.352 N 
HETATM   16  H   UNL     1      25.870  42.749  52.605  1.00  0.00     0.162 HD
HETATM   17  O   UNL     1      24.557  45.628  52.383  1.00  0.00    -0.268 OA
BRANCH  15  18
HETATM   18  C   UNL     1      25.686  43.963  54.327  1.00  0.00     0.161 C 
BRANCH  18  19
HETATM   19  C   UNL     1      27.159  44.025  54.642  1.00  0.00    -0.040 A 
HETATM   20  C   UNL     1      27.695  45.109  55.349  1.00  0.00     0.011 A 
HETATM   21  C   UNL     1      29.053  45.133  55.680  1.00  0.00     0.037 A 
HETATM   22  C   UNL     1      29.895  44.078  55.323  1.00  0.00     0.068 A 
HETATM   23  C   UNL     1      29.371  43.001  54.610  1.00  0.00     0.037 A 
HETATM   24  C   UNL     1      28.012  42.973  54.277  1.00  0.00     0.011 A 
BRANCH  22  25
HETATM   25  O   UNL     1      31.194  44.221  55.725  1.00  0.00    -0.356 OA
HETATM   26  C   UNL     1      31.475  43.949  57.093  1.00  0.00     0.210 C 
ENDBRANCH  22  25
ENDBRANCH  18  19
ENDBRANCH  15  18
ENDBRANCH   1  14
BRANCH   1  27
HETATM   27  O   UNL     1      24.092  42.663  50.672  1.00  0.00    -0.359 OA
HETATM   28  H   UNL     1      24.782  42.034  50.389  1.00  0.00     0.213 HD
ENDBRANCH   1  27
BRANCH   2  29
HETATM   29  C   UNL     1      26.786  42.680  49.846  1.00  0.00     0.042 A 
HETATM   30  C   UNL     1      27.500  42.177  50.941  1.00  0.00     0.030 A 
HETATM   31  C   UNL     1      28.267  41.014  50.825  1.00  0.00     0.002 A 
HETATM   32  C   UNL     1      28.341  40.342  49.608  1.00  0.00     0.000 A 
HETATM   33  C   UNL     1      27.650  40.836  48.505  1.00  0.00     0.002 A 
HETATM   34  C   UNL     1      26.884  41.998  48.623  1.00  0.00     0.030 A 
ENDBRANCH   2  29
TORSDOF 6
ENDMDL
MODEL 4
REMARK VINA RESULT:      -8.0     11.156     13.457
REMARK  6 active torsions:
REMARK  status: ('A' for Active; 'I' for Inactive)
REMARK    1  A    between atoms: O_2  and  C_3 
REMARK    2  A    between atoms: C_6  and  C_7 
REMARK    3  A    between atoms: C_7  and  N_8 
REMARK       I    between atoms: N_8  and  C_9 
REMARK    4  A    between atoms: C_9  and  C_10 
REMARK    5  A    between atoms: C_10  and  O_11 
REMARK    6  A    between atoms: N_12  and  C_13 
ROOT
HETATM    1  C   UNL     1      30.094  48.759  39.833  1.00  0.00     0.256 C 
HETATM    2  N   UNL     1      29.126  49.759  40.289  1.00  0.00    -0.254 N 
HETATM    3  C   UNL     1      28.284  49.370  41.337  1.00  0.00     0.330 C 
HETATM    4  O   UNL     1      27.648  50.114  42.082  1.00  0.00    -0.246 OA
HETATM    5  N   UNL     1      28.060  48.012  41.459  1.00  0.00    -0.308 N 
HETATM    6  C   UNL     1      28.424  47.078  40.490  1.00  0.00     0.048 A 
HETATM    7  C   UNL     1      29.387  47.450  39.554  1.00  0.00     0.035 A 
HETATM    8  C   UNL     1      27.807  45.831  40.435  1.00  0.00     0.031 A 
HETATM    9  C   UNL     1      28.126  44.958  39.392  1.00  0.00     0.021 A 
HETATM   10  C   UNL     1      29.057  45.340  38.425  1.00  0.00     0.011 A 
HETATM   11 BR   UNL     1      29.470  44.161  37.006  1.00  0.00    -0.051 Br
HETATM   12  C   UNL     1      29.695  46.577  38.502  1.00  0.00     0.034 A 
HETATM   13  H   UNL     1      27.352  47.782  42.145  1.00  0.00     0.170 HD
ENDROOT
BRANCH   1  14
HETATM   14  C   UNL     1      31.207  48.570  40.964  1.00  0.00     0.279 C 
HETATM   15  N   UNL     1      32.520  48.576  40.528  1.00  0.00    -0.352 N 
HETATM   16  H   UNL     1      32.726  48.807  39.564  1.00  0.00     0.162 HD
HETATM   17  O   UNL     1      30.934  48.511  42.165  1.00  0.00    -0.268 OA
BRANCH  15  18
HETATM   18  C   UNL     1      33.634  48.434  41.437  1.00  0.00     0.161 C 
BRANCH  18  19
HETATM   19  C   UNL     1      34.380  49.734  41.591  1.00  0.00    -0.040 A 
HETATM   20  C   UNL     1      33.994  50.672  42.557  1.00  0.00     0.011 A 
HETATM   21  C   UNL     1      34.723  51.852  42.726  1.00  0.00     0.037 A 
HETATM   22  C   UNL     1      35.851  52.115  41.946  1.00  0.00     0.068 A 
HETATM   23  C   UNL     1      36.235  51.192  40.975  1.00  0.00     0.037 A 
HETATM   24  C   UNL     1      35.509  50.009  40.803  1.00  0.00     0.011 A 
BRANCH  22  25
HETATM   25  O   UNL     1      36.481  53.296  42.228  1.00  0.00    -0.356 OA
HETATM   26  C   UNL     1      37.030  53.433  43.533  1.00  0.00     0.210 C 
ENDBRANCH  22  25
ENDBRANCH  18  19
ENDBRANCH  15  18
ENDBRANCH   1  14
BRANCH   1  27
HETATM   27  O   UNL     1      30.812  49.161  38.663  1.00  0.00    -0.359 OA
HETATM   28  H   UNL     1      30.116  49.419  38.029  1.00  0.00     0.213 HD
ENDBRANCH   1  27
BRANCH   2  29
HETATM   29  C   UNL     1      29.186  51.122  39.870  1.00  0.00     0.042 A 
HETATM   30  C   UNL     1      29.871  52.089  40.615  1.00  0.00     0.030 A 
HETATM   31  C   UNL     1      29.881  53.429  40.217  1.00  0.00     0.002 A 
HETATM   32  C   UNL     1      29.193  53.823  39.071  1.00  0.00     0.000 A 
HETATM   33  C   UNL     1      28.494  52.878  38.327  1.00  0.00     0.002 A 
HETATM   34  C   UNL     1      28.487  51.539  38.727  1.00  0.00     0.030 A 
ENDBRANCH   2  29
TORSDOF 6
ENDMDL
MODEL 5
REMARK VINA RESULT:      -7.8      2.971      4.351
REMARK  6 active torsions:
REMARK  status: ('A' for Active; 'I' for Inactive)
REMARK    1  A    between atoms: O_2  and  C_3 
REMARK    2  A    between atoms: C_6  and  C_7 
REMARK    3  A    between atoms: C_7  and  N_8 
REMARK       I    between atoms: N_8  and  C_9 
REMARK    4  A    between atoms: C_9  and  C_10 
REMARK    5  A    between atoms: C_10  and  O_11 
REMARK    6  A    between atoms: N_12  and  C_13 
ROOT
HETATM    1  C   UNL     1      21.000  46.414  47.465  1.00  0.00     0.256 C 
HETATM    2  N   UNL     1      20.508  47.537  48.268  1.00  0.00    -0.254 N 
HETATM    3  C   UNL     1      19.392  47.278  49.071  1.00  0.00     0.330 C 
HETATM    4  O   UNL     1      19.018  47.934  50.042  1.00  0.00    -0.246 OA
HETATM    5  N   UNL     1      18.568  46.253  48.647  1.00  0.00    -0.308 N 
HETATM    6  C   UNL     1      18.664  45.652  47.393  1.00  0.00     0.048 A 
HETATM    7  C   UNL     1      19.857  45.799  46.688  1.00  0.00     0.035 A 
HETATM    8  C   UNL     1      17.582  44.967  46.846  1.00  0.00     0.031 A 
HETATM    9  C   UNL     1      17.680  44.462  45.548  1.00  0.00     0.021 A 
HETATM   10  C   UNL     1      18.855  44.643  44.817  1.00  0.00     0.011 A 
HETATM   11 BR   UNL     1      18.975  43.973  43.054  1.00  0.00    -0.051 Br
HETATM   12  C   UNL     1      19.948  45.302  45.381  1.00  0.00     0.034 A 
HETATM   13  H   UNL     1      17.711  46.180  49.181  1.00  0.00     0.170 HD
ENDROOT
BRANCH   1  14
HETATM   14  C   UNL     1      21.663  45.337  48.442  1.00  0.00     0.279 C 
HETATM   15  N   UNL     1      23.030  45.450  48.628  1.00  0.00    -0.352 N 
HETATM   16  H   UNL     1      23.522  46.248  48.247  1.00  0.00     0.162 HD
HETATM   17  O   UNL     1      21.001  44.508  49.069  1.00  0.00    -0.268 OA
BRANCH  15  18
HETATM   18  C   UNL     1      23.765  44.559  49.496  1.00  0.00     0.161 C 
BRANCH  18  19
HETATM   19  C   UNL     1      24.504  45.326  50.563  1.00  0.00    -0.040 A 
HETATM   20  C   UNL     1      24.675  44.789  51.845  1.00  0.00     0.011 A 
HETATM   21  C   UNL     1      25.406  45.485  52.811  1.00  0.00     0.037 A 
HETATM   22  C   UNL     1      25.986  46.721  52.516  1.00  0.00     0.068 A 
HETATM   23  C   UNL     1      25.812  47.268  51.246  1.00  0.00     0.037 A 
HETATM   24  C   UNL     1      25.081  46.573  50.275  1.00  0.00     0.011 A 
BRANCH  22  25
HETATM   25  O   UNL     1      26.688  47.285  53.545  1.00  0.00    -0.356 OA
HETATM   26  C   UNL     1      27.291  46.391  54.474  1.00  0.00     0.210 C 
ENDBRANCH  22  25
ENDBRANCH  18  19
ENDBRANCH  15  18
ENDBRANCH   1  14
BRANCH   1  27
HETATM   27  O   UNL     1      22.039  46.785  46.555  1.00  0.00    -0.359 OA
HETATM   28  H   UNL     1      22.687  46.058  46.618  1.00  0.00     0.213 HD
ENDBRANCH   1  27
BRANCH   2  29
HETATM   29  C   UNL     1      21.250  48.747  48.419  1.00  0.00     0.042 A 
HETATM   30  C   UNL     1      22.440  48.791  49.156  1.00  0.00     0.030 A 
HETATM   31  C   UNL     1      23.129  49.994  49.334  1.00  0.00     0.002 A 
HETATM   32  C   UNL     1      22.632  51.174  48.787  1.00  0.00     0.000 A 
HETATM   33  C   UNL     1      21.443  51.151  48.064  1.00  0.00     0.002 A 
HETATM   34  C   UNL     1      20.756  49.947  47.886  1.00  0.00     0.030 A 
ENDBRANCH   2  29
TORSDOF 6
ENDMDL
MODEL 6
REMARK VINA RESULT:      -7.6     11.007     15.138
REMARK  6 active torsions:
REMARK  status: ('A' for Active; 'I' for Inactive)
REMARK    1  A    between atoms: O_2  and  C_3 
REMARK    2  A    between atoms: C_6  and  C_7 
REMARK    3  A    between atoms: C_7  and  N_8 
REMARK       I    between atoms: N_8  and  C_9 
REMARK    4  A    between atoms: C_9  and  C_10 
REMARK    5  A    between atoms: C_10  and  O_11 
REMARK    6  A    between atoms: N_12  and  C_13 
ROOT
HETATM    1  C   UNL     1      32.866  50.861  40.703  1.00  0.00     0.256 C 
HETATM    2  N   UNL     1      33.745  51.392  41.748  1.00  0.00    -0.254 N 
HETATM    3  C   UNL     1      33.165  51.577  43.007  1.00  0.00     0.330 C 
HETATM    4  O   UNL     1      33.758  51.687  44.080  1.00  0.00    -0.246 OA
HETATM    5  N   UNL     1      31.798  51.775  43.019  1.00  0.00    -0.308 N 
HETATM    6  C   UNL     1      31.042  52.023  41.873  1.00  0.00     0.048 A 
HETATM    7  C   UNL     1      31.592  51.676  40.641  1.00  0.00     0.035 A 
HETATM    8  C   UNL     1      29.797  52.641  41.961  1.00  0.00     0.031 A 
HETATM    9  C   UNL     1      29.112  52.963  40.787  1.00  0.00     0.021 A 
HETATM   10  C   UNL     1      29.676  52.660  39.547  1.00  0.00     0.011 A 
HETATM   11 BR   UNL     1      28.752  53.115  37.962  1.00  0.00    -0.051 Br
HETATM   12  C   UNL     1      30.908  52.012  39.465  1.00  0.00     0.034 A 
HETATM   13  H   UNL     1      31.436  52.028  43.930  1.00  0.00     0.170 HD
ENDROOT
BRANCH   1  14
HETATM   14  C   UNL     1      32.542  49.331  41.035  1.00  0.00     0.279 C 
HETATM   15  N   UNL     1      31.856  48.633  40.057  1.00  0.00    -0.352 N 
HETATM   16  H   UNL     1      31.693  49.063  39.156  1.00  0.00     0.162 HD
HETATM   17  O   UNL     1      32.948  48.769  42.054  1.00  0.00    -0.268 OA
BRANCH  15  18
HETATM   18  C   UNL     1      31.508  47.238  40.208  1.00  0.00     0.161 C 
BRANCH  18  19
HETATM   19  C   UNL     1      30.016  47.039  40.136  1.00  0.00    -0.040 A 
HETATM   20  C   UNL     1      29.143  47.906  40.805  1.00  0.00     0.011 A 
HETATM   21  C   UNL     1      27.760  47.743  40.692  1.00  0.00     0.037 A 
HETATM   22  C   UNL     1      27.223  46.722  39.904  1.00  0.00     0.068 A 
HETATM   23  C   UNL     1      28.084  45.847  39.244  1.00  0.00     0.037 A 
HETATM   24  C   UNL     1      29.470  46.008  39.355  1.00  0.00     0.011 A 
BRANCH  22  25
HETATM   25  O   UNL     1      25.856  46.687  39.866  1.00  0.00    -0.356 OA
HETATM   26  C   UNL     1      25.168  47.616  40.696  1.00  0.00     0.210 C 
ENDBRANCH  22  25
ENDBRANCH  18  19
ENDBRANCH  15  18
ENDBRANCH   1  14
BRANCH   1  27
HETATM   27  O   UNL     1      33.474  50.844  39.409  1.00  0.00    -0.359 OA
HETATM   28  H   UNL     1      34.275  50.298  39.525  1.00  0.00     0.213 HD
ENDBRANCH   1  27
BRANCH   2  29
HETATM   29  C   UNL     1      35.159  51.489  41.574  1.00  0.00     0.042 A 
HETATM   30  C   UNL     1      36.027  50.507  42.065  1.00  0.00     0.030 A 
HETATM   31  C   UNL     1      37.413  50.641  41.930  1.00  0.00     0.002 A 
HETATM   32  C   UNL     1      37.949  51.767  41.311  1.00  0.00     0.000 A 
HETATM   33  C   UNL     1      37.102  52.760  40.831  1.00  0.00     0.002 A 
HETATM   34  C   UNL     1      35.718  52.624  40.966  1.00  0.00     0.030 A 
ENDBRANCH   2  29
TORSDOF 6
ENDMDL
MODEL 7
REMARK VINA RESULT:      -7.5      3.883      8.678
REMARK  6 active torsions:
REMARK  status: ('A' for Active; 'I' for Inactive)
REMARK    1  A    between atoms: O_2  and  C_3 
REMARK    2  A    between atoms: C_6  and  C_7 
REMARK    3  A    between atoms: C_7  and  N_8 
REMARK       I    between atoms: N_8  and  C_9 
REMARK    4  A    between atoms: C_9  and  C_10 
REMARK    5  A    between atoms: C_10  and  O_11 
REMARK    6  A    between atoms: N_12  and  C_13 
ROOT
HETATM    1  C   UNL     1      18.166  51.870  47.908  1.00  0.00     0.256 C 
HETATM    2  N   UNL     1      17.233  51.396  46.881  1.00  0.00    -0.254 N 
HETATM    3  C   UNL     1      16.787  50.076  47.016  1.00  0.00     0.330 C 
HETATM    4  O   UNL     1      15.788  49.583  46.494  1.00  0.00    -0.246 OA
HETATM    5  N   UNL     1      17.626  49.223  47.706  1.00  0.00    -0.308 N 
HETATM    6  C   UNL     1      18.939  49.540  48.051  1.00  0.00     0.048 A 
HETATM    7  C   UNL     1      19.305  50.884  48.061  1.00  0.00     0.035 A 
HETATM    8  C   UNL     1      19.865  48.538  48.332  1.00  0.00     0.031 A 
HETATM    9  C   UNL     1      21.194  48.887  48.578  1.00  0.00     0.021 A 
HETATM   10  C   UNL     1      21.579  50.229  48.545  1.00  0.00     0.011 A 
HETATM   11 BR   UNL     1      23.384  50.693  48.861  1.00  0.00    -0.051 Br
HETATM   12  C   UNL     1      20.642  51.231  48.295  1.00  0.00     0.034 A 
HETATM   13  H   UNL     1      17.329  48.255  47.673  1.00  0.00     0.170 HD
ENDROOT
BRANCH   1  14
HETATM   14  C   UNL     1      17.371  52.034  49.285  1.00  0.00     0.279 C 
HETATM   15  N   UNL     1      16.499  53.105  49.355  1.00  0.00    -0.352 N 
HETATM   16  H   UNL     1      16.315  53.656  48.526  1.00  0.00     0.162 HD
HETATM   17  O   UNL     1      17.452  51.215  50.203  1.00  0.00    -0.268 OA
BRANCH  15  18
HETATM   18  C   UNL     1      15.700  53.371  50.529  1.00  0.00     0.161 C 
BRANCH  18  19
HETATM   19  C   UNL     1      14.615  54.375  50.233  1.00  0.00    -0.040 A 
HETATM   20  C   UNL     1      13.263  54.017  50.319  1.00  0.00     0.011 A 
HETATM   21  C   UNL     1      12.265  54.968  50.091  1.00  0.00     0.037 A 
HETATM   22  C   UNL     1      12.593  56.290  49.785  1.00  0.00     0.068 A 
HETATM   23  C   UNL     1      13.935  56.653  49.687  1.00  0.00     0.037 A 
HETATM   24  C   UNL     1      14.938  55.703  49.915  1.00  0.00     0.011 A 
BRANCH  22  25
HETATM   25  O   UNL     1      11.521  57.120  49.605  1.00  0.00    -0.356 OA
HETATM   26  C   UNL     1      11.580  58.390  50.243  1.00  0.00     0.210 C 
ENDBRANCH  22  25
ENDBRANCH  18  19
ENDBRANCH  15  18
ENDBRANCH   1  14
BRANCH   1  27
HETATM   27  O   UNL     1      18.702  53.165  47.627  1.00  0.00    -0.359 OA
HETATM   28  H   UNL     1      18.919  53.136  46.676  1.00  0.00     0.213 HD
ENDBRANCH   1  27
BRANCH   2  29
HETATM   29  C   UNL     1      16.623  52.280  45.942  1.00  0.00     0.042 A 
HETATM   30  C   UNL     1      15.389  52.887  46.201  1.00  0.00     0.030 A 
HETATM   31  C   UNL     1      14.781  53.713  45.250  1.00  0.00     0.002 A 
HETATM   32  C   UNL     1      15.396  53.934  44.021  1.00  0.00     0.000 A 
HETATM   33  C   UNL     1      16.616  53.327  43.740  1.00  0.00     0.002 A 
HETATM   34  C   UNL     1      17.222  52.502  44.692  1.00  0.00     0.030 A 
ENDBRANCH   2  29
TORSDOF 6
ENDMDL
MODEL 8
REMARK VINA RESULT:      -7.5      2.781      5.009
REMARK  6 active torsions:
REMARK  status: ('A' for Active; 'I' for Inactive)
REMARK    1  A    between atoms: O_2  and  C_3 
REMARK    2  A    between atoms: C_6  and  C_7 
REMARK    3  A    between atoms: C_7  and  N_8 
REMARK       I    between atoms: N_8  and  C_9 
REMARK    4  A    between atoms: C_9  and  C_10 
REMARK    5  A    between atoms: C_10  and  O_11 
REMARK    6  A    between atoms: N_12  and  C_13 
ROOT
HETATM    1  C   UNL     1      20.704  46.771  47.277  1.00  0.00     0.256 C 
HETATM    2  N   UNL     1      20.871  47.944  48.140  1.00  0.00    -0.254 N 
HETATM    3  C   UNL     1      19.825  48.208  49.031  1.00  0.00     0.330 C 
HETATM    4  O   UNL     1      19.881  48.906  50.042  1.00  0.00    -0.246 OA
HETATM    5  N   UNL     1      18.582  47.731  48.661  1.00  0.00    -0.308 N 
HETATM    6  C   UNL     1      18.291  47.231  47.392  1.00  0.00     0.048 A 
HETATM    7  C   UNL     1      19.356  46.827  46.590  1.00  0.00     0.035 A 
HETATM    8  C   UNL     1      16.979  47.183  46.928  1.00  0.00     0.031 A 
HETATM    9  C   UNL     1      16.734  46.768  45.618  1.00  0.00     0.021 A 
HETATM   10  C   UNL     1      17.799  46.404  44.792  1.00  0.00     0.011 A 
HETATM   11 BR   UNL     1      17.462  45.862  43.013  1.00  0.00    -0.051 Br
HETATM   12  C   UNL     1      19.109  46.424  45.271  1.00  0.00     0.034 A 
HETATM   13  H   UNL     1      17.834  48.049  49.265  1.00  0.00     0.170 HD
ENDROOT
BRANCH   1  14
HETATM   14  C   UNL     1      20.827  45.454  48.174  1.00  0.00     0.279 C 
HETATM   15  N   UNL     1      22.114  45.039  48.465  1.00  0.00    -0.352 N 
HETATM   16  H   UNL     1      22.899  45.625  48.210  1.00  0.00     0.162 HD
HETATM   17  O   UNL     1      19.848  44.883  48.658  1.00  0.00    -0.268 OA
BRANCH  15  18
HETATM   18  C   UNL     1      22.382  43.876  49.280  1.00  0.00     0.161 C 
BRANCH  18  19
HETATM   19  C   UNL     1      23.822  43.844  49.725  1.00  0.00    -0.040 A 
HETATM   20  C   UNL     1      24.751  44.761  49.217  1.00  0.00     0.011 A 
HETATM   21  C   UNL     1      26.071  44.755  49.674  1.00  0.00     0.037 A 
HETATM   22  C   UNL     1      26.487  43.846  50.649  1.00  0.00     0.068 A 
HETATM   23  C   UNL     1      25.572  42.923  51.152  1.00  0.00     0.037 A 
HETATM   24  C   UNL     1      24.249  42.926  50.697  1.00  0.00     0.011 A 
BRANCH  22  25
HETATM   25  O   UNL     1      27.799  43.962  51.018  1.00  0.00    -0.356 OA
HETATM   26  C   UNL     1      28.081  43.889  52.411  1.00  0.00     0.210 C 
ENDBRANCH  22  25
ENDBRANCH  18  19
ENDBRANCH  15  18
ENDBRANCH   1  14
BRANCH   1  27
HETATM   27  O   UNL     1      21.729  46.649  46.287  1.00  0.00    -0.359 OA
HETATM   28  H   UNL     1      22.560  46.636  46.800  1.00  0.00     0.213 HD
ENDBRANCH   1  27
BRANCH   2  29
HETATM   29  C   UNL     1      22.114  48.637  48.248  1.00  0.00     0.042 A 
HETATM   30  C   UNL     1      23.184  48.114  48.983  1.00  0.00     0.030 A 
HETATM   31  C   UNL     1      24.379  48.828  49.119  1.00  0.00     0.002 A 
HETATM   32  C   UNL     1      24.515  50.083  48.530  1.00  0.00     0.000 A 
HETATM   33  C   UNL     1      23.455  50.625  47.809  1.00  0.00     0.002 A 
HETATM   34  C   UNL     1      22.263  49.909  47.674  1.00  0.00     0.030 A 
ENDBRANCH   2  29
TORSDOF 6
ENDMDL
MODEL 9
REMARK VINA RESULT:      -7.5      8.853     12.290
REMARK  6 active torsions:
REMARK  status: ('A' for Active; 'I' for Inactive)
REMARK    1  A    between atoms: O_2  and  C_3 
REMARK    2  A    between atoms: C_6  and  C_7 
REMARK    3  A    between atoms: C_7  and  N_8 
REMARK       I    between atoms: N_8  and  C_9 
REMARK    4  A    between atoms: C_9  and  C_10 
REMARK    5  A    between atoms: C_10  and  O_11 
REMARK    6  A    between atoms: N_12  and  C_13 
ROOT
HETATM    1  C   UNL     1      27.491  49.312  40.331  1.00  0.00     0.256 C 
HETATM    2  N   UNL     1      28.813  49.810  39.941  1.00  0.00    -0.254 N 
HETATM    3  C   UNL     1      29.378  49.230  38.800  1.00  0.00     0.330 C 
HETATM    4  O   UNL     1      30.287  49.695  38.113  1.00  0.00    -0.246 OA
HETATM    5  N   UNL     1      28.949  47.952  38.497  1.00  0.00    -0.308 N 
HETATM    6  C   UNL     1      28.193  47.163  39.364  1.00  0.00     0.048 A 
HETATM    7  C   UNL     1      27.512  47.800  40.399  1.00  0.00     0.035 A 
HETATM    8  C   UNL     1      28.163  45.778  39.225  1.00  0.00     0.031 A 
HETATM    9  C   UNL     1      27.476  45.012  40.169  1.00  0.00     0.021 A 
HETATM   10  C   UNL     1      26.828  45.639  41.235  1.00  0.00     0.011 A 
HETATM   11 BR   UNL     1      25.916  44.596  42.520  1.00  0.00    -0.051 Br
HETATM   12  C   UNL     1      26.835  47.029  41.353  1.00  0.00     0.034 A 
HETATM   13  H   UNL     1      29.470  47.521  37.743  1.00  0.00     0.170 HD
ENDROOT
BRANCH   1  14
HETATM   14  C   UNL     1      26.417  49.815  39.260  1.00  0.00     0.279 C 
HETATM   15  N   UNL     1      25.090  49.659  39.616  1.00  0.00    -0.352 N 
HETATM   16  H   UNL     1      24.855  49.353  40.552  1.00  0.00     0.162 HD
HETATM   17  O   UNL     1      26.735  50.389  38.216  1.00  0.00    -0.268 OA
BRANCH  15  18
HETATM   18  C   UNL     1      24.007  50.083  38.757  1.00  0.00     0.161 C 
BRANCH  18  19
HETATM   19  C   UNL     1      22.688  50.045  39.485  1.00  0.00    -0.040 A 
HETATM   20  C   UNL     1      22.131  48.827  39.897  1.00  0.00     0.011 A 
HETATM   21  C   UNL     1      20.933  48.806  40.616  1.00  0.00     0.037 A 
HETATM   22  C   UNL     1      20.274  49.993  40.944  1.00  0.00     0.068 A 
HETATM   23  C   UNL     1      20.816  51.209  40.528  1.00  0.00     0.037 A 
HETATM   24  C   UNL     1      22.016  51.234  39.809  1.00  0.00     0.011 A 
BRANCH  22  25
HETATM   25  O   UNL     1      19.123  49.830  41.664  1.00  0.00    -0.356 OA
HETATM   26  C   UNL     1      18.728  50.917  42.493  1.00  0.00     0.210 C 
ENDBRANCH  22  25
ENDBRANCH  18  19
ENDBRANCH  15  18
ENDBRANCH   1  14
BRANCH   1  27
HETATM   27  O   UNL     1      27.041  49.831  41.586  1.00  0.00    -0.359 OA
HETATM   28  H   UNL     1      26.459  49.134  41.941  1.00  0.00     0.213 HD
ENDBRANCH   1  27
BRANCH   2  29
HETATM   29  C   UNL     1      29.390  50.976  40.529  1.00  0.00     0.042 A 
HETATM   30  C   UNL     1      29.113  52.258  40.040  1.00  0.00     0.030 A 
HETATM   31  C   UNL     1      29.724  53.386  40.596  1.00  0.00     0.002 A 
HETATM   32  C   UNL     1      30.632  53.245  41.642  1.00  0.00     0.000 A 
HETATM   33  C   UNL     1      30.931  51.977  42.131  1.00  0.00     0.002 A 
HETATM   34  C   UNL     1      30.318  50.851  41.574  1.00  0.00     0.030 A 
ENDBRANCH   2  29
TORSDOF 6
ENDMDL
MODEL 10
REMARK VINA RESULT:      -7.3      4.611      9.651
REMARK  6 active torsions:
REMARK  status: ('A' for Active; 'I' for Inactive)
REMARK    1  A    between atoms: O_2  and  C_3 
REMARK    2  A    between atoms: C_6  and  C_7 
REMARK    3  A    between atoms: C_7  and  N_8 
REMARK       I    between atoms: N_8  and  C_9 
REMARK    4  A    between atoms: C_9  and  C_10 
REMARK    5  A    between atoms: C_10  and  O_11 
REMARK    6  A    between atoms: N_12  and  C_13 
ROOT
HETATM    1  C   UNL     1      27.011  44.357  51.269  1.00  0.00     0.256 C 
HETATM    2  N   UNL     1      25.849  43.507  50.997  1.00  0.00    -0.254 N 
HETATM    3  C   UNL     1      24.602  44.039  51.344  1.00  0.00     0.330 C 
HETATM    4  O   UNL     1      23.505  43.673  50.924  1.00  0.00    -0.246 OA
HETATM    5  N   UNL     1      24.608  44.987  52.348  1.00  0.00    -0.308 N 
HETATM    6  C   UNL     1      25.713  45.252  53.156  1.00  0.00     0.048 A 
HETATM    7  C   UNL     1      26.966  44.847  52.700  1.00  0.00     0.035 A 
HETATM    8  C   UNL     1      25.559  45.862  54.398  1.00  0.00     0.031 A 
HETATM    9  C   UNL     1      26.675  46.022  55.222  1.00  0.00     0.021 A 
HETATM   10  C   UNL     1      27.927  45.578  54.793  1.00  0.00     0.011 A 
HETATM   11 BR   UNL     1      29.430  45.782  55.920  1.00  0.00    -0.051 Br
HETATM   12  C   UNL     1      28.082  44.998  53.534  1.00  0.00     0.034 A 
HETATM   13  H   UNL     1      23.680  45.254  52.655  1.00  0.00     0.170 HD
ENDROOT
BRANCH   1  14
HETATM   14  C   UNL     1      26.994  45.589  50.250  1.00  0.00     0.279 C 
HETATM   15  N   UNL     1      26.614  46.808  50.781  1.00  0.00    -0.352 N 
HETATM   16  H   UNL     1      26.478  46.898  51.781  1.00  0.00     0.162 HD
HETATM   17  O   UNL     1      27.378  45.494  49.082  1.00  0.00    -0.268 OA
BRANCH  15  18
HETATM   18  C   UNL     1      26.567  48.014  49.987  1.00  0.00     0.161 C 
BRANCH  18  19
HETATM   19  C   UNL     1      25.190  48.236  49.415  1.00  0.00    -0.040 A 
HETATM   20  C   UNL     1      24.166  47.305  49.628  1.00  0.00     0.011 A 
HETATM   21  C   UNL     1      22.880  47.544  49.137  1.00  0.00     0.037 A 
HETATM   22  C   UNL     1      22.589  48.716  48.436  1.00  0.00     0.068 A 
HETATM   23  C   UNL     1      23.605  49.643  48.209  1.00  0.00     0.037 A 
HETATM   24  C   UNL     1      24.894  49.407  48.700  1.00  0.00     0.011 A 
BRANCH  22  25
HETATM   25  O   UNL     1      21.289  48.832  48.028  1.00  0.00    -0.356 OA
HETATM   26  C   UNL     1      20.289  48.704  49.032  1.00  0.00     0.210 C 
ENDBRANCH  22  25
ENDBRANCH  18  19
ENDBRANCH  15  18
ENDBRANCH   1  14
BRANCH   1  27
HETATM   27  O   UNL     1      28.259  43.696  51.039  1.00  0.00    -0.359 OA
HETATM   28  H   UNL     1      28.487  43.924  50.118  1.00  0.00     0.213 HD
ENDBRANCH   1  27
BRANCH   2  29
HETATM   29  C   UNL     1      25.942  42.319  50.212  1.00  0.00     0.042 A 
HETATM   30  C   UNL     1      25.758  42.341  48.824  1.00  0.00     0.030 A 
HETATM   31  C   UNL     1      25.805  41.161  48.075  1.00  0.00     0.002 A 
HETATM   32  C   UNL     1      26.026  39.940  48.706  1.00  0.00     0.000 A 
HETATM   33  C   UNL     1      26.196  39.898  50.087  1.00  0.00     0.002 A 
HETATM   34  C   UNL     1      26.150  41.078  50.833  1.00  0.00     0.030 A 
ENDBRANCH   2  29
TORSDOF 6
ENDMDL
