MODEL 1
REMARK VINA RESULT:      -9.2      0.000      0.000
REMARK  5 active torsions:
REMARK  status: ('A' for Active; 'I' for Inactive)
REMARK    1  A    between atoms: C_7  and  C_8 
REMARK    2  A    between atoms: N_9  and  C_10 
REMARK    3  A    between atoms: C_10  and  C_11 
REMARK       I    between atoms: C_11  and  N_12 
REMARK    4  A    between atoms: N_12  and  C_13 
REMARK    5  A    between atoms: C_13  and  C_14 
ROOT
HETATM    1  C   UNL     1      26.323  44.718  50.818  1.00  0.00     0.158 A 
HETATM    2  N   UNL     1      25.025  44.064  50.834  1.00  0.00    -0.326 N 
HETATM    3  C   UNL     1      24.036  44.850  50.280  1.00  0.00     0.255 A 
HETATM    4  O   UNL     1      22.874  44.560  50.072  1.00  0.00    -0.267 OA
HETATM    5  C   UNL     1      24.651  46.150  49.968  1.00  0.00     0.040 A 
HETATM    6  C   UNL     1      26.000  46.094  50.321  1.00  0.00    -0.015 A 
HETATM    7  C   UNL     1      24.067  47.278  49.420  1.00  0.00     0.017 A 
HETATM    8  C   UNL     1      24.888  48.389  49.214  1.00  0.00     0.001 A 
HETATM    9  C   UNL     1      26.252  48.346  49.555  1.00  0.00     0.001 A 
HETATM   10  C   UNL     1      26.820  47.192  50.108  1.00  0.00     0.011 A 
ENDROOT
BRANCH   1  11
HETATM   11  C   UNL     1      26.975  44.828  52.160  1.00  0.00     0.004 A 
HETATM   12  C   UNL     1      26.624  45.752  53.144  1.00  0.00     0.017 A 
HETATM   13  C   UNL     1      25.555  46.794  53.146  1.00  0.00     0.069 C 
HETATM   14  N   UNL     1      27.479  45.583  54.212  1.00  0.00    -0.354 N 
HETATM   15  C   UNL     1      27.436  46.378  55.423  1.00  0.00     0.156 C 
HETATM   16  C   UNL     1      28.387  44.579  53.951  1.00  0.00     0.045 A 
HETATM   17  C   UNL     1      28.079  44.067  52.687  1.00  0.00     0.001 A 
HETATM   18  C   UNL     1      29.458  44.081  54.714  1.00  0.00     0.030 A 
HETATM   19  C   UNL     1      28.867  43.005  52.188  1.00  0.00     0.014 A 
HETATM   20  C   UNL     1      29.934  42.505  52.941  1.00  0.00     0.001 A 
HETATM   21  C   UNL     1      30.227  43.041  54.187  1.00  0.00     0.002 A 
ENDBRANCH   1  11
BRANCH   2  22
HETATM   22  C   UNL     1      24.839  42.697  51.308  1.00  0.00     0.229 C 
BRANCH  22  23
HETATM   23  C   UNL     1      25.394  41.654  50.338  1.00  0.00     0.235 C 
HETATM   24  N   UNL     1      26.238  40.731  50.913  1.00  0.00    -0.357 N 
HETATM   25  H   UNL     1      26.580  40.911  51.853  1.00  0.00     0.162 HD
HETATM   26  O   UNL     1      25.175  41.695  49.130  1.00  0.00    -0.272 OA
BRANCH  24  27
HETATM   27  C   UNL     1      26.866  39.660  50.160  1.00  0.00     0.154 C 
BRANCH  27  28
HETATM   28  C   UNL     1      28.389  39.789  50.024  1.00  0.00     0.139 C 
HETATM   29  O   UNL     1      28.824  39.108  48.828  1.00  0.00    -0.384 OA
HETATM   30  C   UNL     1      29.901  38.231  49.181  1.00  0.00     0.168 C 
HETATM   31  C   UNL     1      29.732  37.925  50.650  1.00  0.00     0.029 C 
HETATM   32  C   UNL     1      29.205  39.233  51.184  1.00  0.00     0.035 C 
ENDBRANCH  27  28
ENDBRANCH  24  27
ENDBRANCH  22  23
ENDBRANCH   2  22
TORSDOF 5
ENDMDL
MODEL 2
REMARK VINA RESULT:      -8.9      2.790      6.360
REMARK  5 active torsions:
REMARK  status: ('A' for Active; 'I' for Inactive)
REMARK    1  A    between atoms: C_7  and  C_8 
REMARK    2  A    between atoms: N_9  and  C_10 
REMARK    3  A    between atoms: C_10  and  C_11 
REMARK       I    between atoms: C_11  and  N_12 
REMARK    4  A    between atoms: N_12  and  C_13 
REMARK    5  A    between atoms: C_13  and  C_14 
ROOT
HETATM    1  C   UNL     1      25.778  45.789  49.821  1.00  0.00     0.158 A 
HETATM    2  N   UNL     1      24.345  46.029  49.884  1.00  0.00    -0.326 N 
HETATM    3  C   UNL     1      24.014  47.319  49.523  1.00  0.00     0.255 A 
HETATM    4  O   UNL     1      22.906  47.802  49.395  1.00  0.00    -0.267 OA
HETATM    5  C   UNL     1      25.279  48.039  49.309  1.00  0.00     0.040 A 
HETATM    6  C   UNL     1      26.333  47.149  49.522  1.00  0.00    -0.015 A 
HETATM    7  C   UNL     1      25.477  49.361  48.956  1.00  0.00     0.017 A 
HETATM    8  C   UNL     1      26.797  49.794  48.804  1.00  0.00     0.001 A 
HETATM    9  C   UNL     1      27.870  48.907  49.006  1.00  0.00     0.001 A 
HETATM   10  C   UNL     1      27.643  47.573  49.362  1.00  0.00     0.011 A 
ENDROOT
BRANCH   1  11
HETATM   11  C   UNL     1      26.376  45.291  51.098  1.00  0.00     0.004 A 
HETATM   12  C   UNL     1      26.960  44.037  51.269  1.00  0.00     0.017 A 
HETATM   13  C   UNL     1      27.165  42.930  50.289  1.00  0.00     0.069 C 
HETATM   14  N   UNL     1      27.346  43.922  52.588  1.00  0.00    -0.354 N 
HETATM   15  C   UNL     1      27.977  42.747  53.153  1.00  0.00     0.156 C 
HETATM   16  C   UNL     1      27.023  45.066  53.287  1.00  0.00     0.045 A 
HETATM   17  C   UNL     1      26.442  45.953  52.376  1.00  0.00     0.001 A 
HETATM   18  C   UNL     1      27.185  45.395  54.645  1.00  0.00     0.030 A 
HETATM   19  C   UNL     1      26.029  47.220  52.850  1.00  0.00     0.014 A 
HETATM   20  C   UNL     1      26.187  47.553  54.198  1.00  0.00     0.001 A 
HETATM   21  C   UNL     1      26.754  46.648  55.085  1.00  0.00     0.002 A 
ENDBRANCH   1  11
BRANCH   2  22
HETATM   22  C   UNL     1      23.386  44.979  50.209  1.00  0.00     0.229 C 
BRANCH  22  23
HETATM   23  C   UNL     1      22.514  44.584  49.017  1.00  0.00     0.235 C 
HETATM   24  N   UNL     1      21.250  45.129  49.028  1.00  0.00    -0.357 N 
HETATM   25  H   UNL     1      20.925  45.573  49.882  1.00  0.00     0.162 HD
HETATM   26  O   UNL     1      22.883  43.774  48.171  1.00  0.00    -0.272 OA
BRANCH  24  27
HETATM   27  C   UNL     1      20.274  44.876  47.985  1.00  0.00     0.154 C 
BRANCH  27  28
HETATM   28  C   UNL     1      19.580  46.135  47.447  1.00  0.00     0.139 C 
HETATM   29  O   UNL     1      20.397  47.291  47.729  1.00  0.00    -0.384 OA
HETATM   30  C   UNL     1      19.570  48.279  48.356  1.00  0.00     0.168 C 
HETATM   31  C   UNL     1      18.427  47.528  48.996  1.00  0.00     0.029 C 
HETATM   32  C   UNL     1      18.191  46.414  48.007  1.00  0.00     0.035 C 
ENDBRANCH  27  28
ENDBRANCH  24  27
ENDBRANCH  22  23
ENDBRANCH   2  22
TORSDOF 5
ENDMDL
MODEL 3
REMARK VINA RESULT:      -8.6      1.246      2.693
REMARK  5 active torsions:
REMARK  status: ('A' for Active; 'I' for Inactive)
REMARK    1  A    between atoms: C_7  and  C_8 
REMARK    2  A    between atoms: N_9  and  C_10 
REMARK    3  A    between atoms: C_10  and  C_11 
REMARK       I    between atoms: C_11  and  N_12 
REMARK    4  A    between atoms: N_12  and  C_13 
REMARK    5  A    between atoms: C_13  and  C_14 
ROOT
HETATM    1  C   UNL     1      26.292  44.765  50.718  1.00  0.00     0.158 A 
HETATM    2  N   UNL     1      25.011  44.081  50.799  1.00  0.00    -0.326 N 
HETATM    3  C   UNL     1      23.978  44.843  50.291  1.00  0.00     0.255 A 
HETATM    4  O   UNL     1      22.814  44.526  50.141  1.00  0.00    -0.267 OA
HETATM    5  C   UNL     1      24.547  46.156  49.947  1.00  0.00     0.040 A 
HETATM    6  C   UNL     1      25.913  46.131  50.233  1.00  0.00    -0.015 A 
HETATM    7  C   UNL     1      23.912  47.268  49.426  1.00  0.00     0.017 A 
HETATM    8  C   UNL     1      24.697  48.396  49.177  1.00  0.00     0.001 A 
HETATM    9  C   UNL     1      26.076  48.385  49.451  1.00  0.00     0.001 A 
HETATM   10  C   UNL     1      26.696  47.247  49.978  1.00  0.00     0.011 A 
ENDROOT
BRANCH   1  11
HETATM   11  C   UNL     1      27.005  44.894  52.025  1.00  0.00     0.004 A 
HETATM   12  C   UNL     1      27.993  44.024  52.485  1.00  0.00     0.017 A 
HETATM   13  C   UNL     1      28.596  42.824  51.833  1.00  0.00     0.069 C 
HETATM   14  N   UNL     1      28.371  44.435  53.745  1.00  0.00    -0.354 N 
HETATM   15  C   UNL     1      29.368  43.766  54.556  1.00  0.00     0.156 C 
HETATM   16  C   UNL     1      27.651  45.546  54.128  1.00  0.00     0.045 A 
HETATM   17  C   UNL     1      26.809  45.876  53.062  1.00  0.00     0.001 A 
HETATM   18  C   UNL     1      27.660  46.287  55.324  1.00  0.00     0.030 A 
HETATM   19  C   UNL     1      25.964  47.002  53.202  1.00  0.00     0.014 A 
HETATM   20  C   UNL     1      25.969  47.742  54.388  1.00  0.00     0.001 A 
HETATM   21  C   UNL     1      26.804  47.385  55.437  1.00  0.00     0.002 A 
ENDBRANCH   1  11
BRANCH   2  22
HETATM   22  C   UNL     1      24.880  42.712  51.283  1.00  0.00     0.229 C 
BRANCH  22  23
HETATM   23  C   UNL     1      25.159  41.670  50.200  1.00  0.00     0.235 C 
HETATM   24  N   UNL     1      26.212  40.827  50.475  1.00  0.00    -0.357 N 
HETATM   25  H   UNL     1      26.830  41.066  51.246  1.00  0.00     0.162 HD
HETATM   26  O   UNL     1      24.551  41.651  49.133  1.00  0.00    -0.272 OA
BRANCH  24  27
HETATM   27  C   UNL     1      26.633  39.772  49.573  1.00  0.00     0.154 C 
BRANCH  27  28
HETATM   28  C   UNL     1      27.923  40.076  48.799  1.00  0.00     0.139 C 
HETATM   29  O   UNL     1      27.744  41.279  48.023  1.00  0.00    -0.384 OA
HETATM   30  C   UNL     1      28.148  41.005  46.675  1.00  0.00     0.168 C 
HETATM   31  C   UNL     1      28.002  39.514  46.487  1.00  0.00     0.029 C 
HETATM   32  C   UNL     1      28.393  38.986  47.845  1.00  0.00     0.035 C 
ENDBRANCH  27  28
ENDBRANCH  24  27
ENDBRANCH  22  23
ENDBRANCH   2  22
TORSDOF 5
ENDMDL
MODEL 4
REMARK VINA RESULT:      -8.4      5.295      9.441
REMARK  5 active torsions:
REMARK  status: ('A' for Active; 'I' for Inactive)
REMARK    1  A    between atoms: C_7  and  C_8 
REMARK    2  A    between atoms: N_9  and  C_10 
REMARK    3  A    between atoms: C_10  and  C_11 
REMARK       I    between atoms: C_11  and  N_12 
REMARK    4  A    between atoms: N_12  and  C_13 
REMARK    5  A    between atoms: C_13  and  C_14 
ROOT
HETATM    1  C   UNL     1      20.438  48.437  48.895  1.00  0.00     0.158 A 
HETATM    2  N   UNL     1      21.659  49.103  48.472  1.00  0.00    -0.326 N 
HETATM    3  C   UNL     1      21.580  50.474  48.603  1.00  0.00     0.255 A 
HETATM    4  O   UNL     1      22.453  51.298  48.415  1.00  0.00    -0.267 OA
HETATM    5  C   UNL     1      20.205  50.783  49.028  1.00  0.00     0.040 A 
HETATM    6  C   UNL     1      19.508  49.581  49.166  1.00  0.00    -0.015 A 
HETATM    7  C   UNL     1      19.627  52.015  49.271  1.00  0.00     0.017 A 
HETATM    8  C   UNL     1      18.291  52.027  49.680  1.00  0.00     0.001 A 
HETATM    9  C   UNL     1      17.577  50.824  49.833  1.00  0.00     0.001 A 
HETATM   10  C   UNL     1      18.185  49.590  49.581  1.00  0.00     0.011 A 
ENDROOT
BRANCH   1  11
HETATM   11  C   UNL     1      19.827  47.552  47.856  1.00  0.00     0.004 A 
HETATM   12  C   UNL     1      19.825  46.158  47.896  1.00  0.00     0.017 A 
HETATM   13  C   UNL     1      20.364  45.226  48.930  1.00  0.00     0.069 C 
HETATM   14  N   UNL     1      19.221  45.699  46.745  1.00  0.00    -0.354 N 
HETATM   15  C   UNL     1      19.049  44.298  46.419  1.00  0.00     0.156 C 
HETATM   16  C   UNL     1      18.836  46.755  45.947  1.00  0.00     0.045 A 
HETATM   17  C   UNL     1      19.174  47.928  46.628  1.00  0.00     0.001 A 
HETATM   18  C   UNL     1      18.226  46.780  44.680  1.00  0.00     0.030 A 
HETATM   19  C   UNL     1      18.867  49.166  46.016  1.00  0.00     0.014 A 
HETATM   20  C   UNL     1      18.261  49.198  44.757  1.00  0.00     0.001 A 
HETATM   21  C   UNL     1      17.948  48.018  44.096  1.00  0.00     0.002 A 
ENDBRANCH   1  11
BRANCH   2  22
HETATM   22  C   UNL     1      22.847  48.371  48.048  1.00  0.00     0.229 C 
BRANCH  22  23
HETATM   23  C   UNL     1      23.880  48.218  49.166  1.00  0.00     0.235 C 
HETATM   24  N   UNL     1      23.786  47.042  49.874  1.00  0.00    -0.357 N 
HETATM   25  H   UNL     1      22.955  46.470  49.748  1.00  0.00     0.162 HD
HETATM   26  O   UNL     1      24.665  49.114  49.462  1.00  0.00    -0.272 OA
BRANCH  24  27
HETATM   27  C   UNL     1      24.676  46.709  50.971  1.00  0.00     0.154 C 
BRANCH  27  28
HETATM   28  C   UNL     1      24.985  45.212  51.104  1.00  0.00     0.139 C 
HETATM   29  O   UNL     1      24.556  44.747  52.401  1.00  0.00    -0.384 OA
HETATM   30  C   UNL     1      25.646  44.037  53.004  1.00  0.00     0.168 C 
HETATM   31  C   UNL     1      26.903  44.572  52.361  1.00  0.00     0.029 C 
HETATM   32  C   UNL     1      26.450  44.824  50.945  1.00  0.00     0.035 C 
ENDBRANCH  27  28
ENDBRANCH  24  27
ENDBRANCH  22  23
ENDBRANCH   2  22
TORSDOF 5
ENDMDL
MODEL 5
REMARK VINA RESULT:      -8.4      2.969      5.377
REMARK  5 active torsions:
REMARK  status: ('A' for Active; 'I' for Inactive)
REMARK    1  A    between atoms: C_7  and  C_8 
REMARK    2  A    between atoms: N_9  and  C_10 
REMARK    3  A    between atoms: C_10  and  C_11 
REMARK       I    between atoms: C_11  and  N_12 
REMARK    4  A    between atoms: N_12  and  C_13 
REMARK    5  A    between atoms: C_13  and  C_14 
ROOT
HETATM    1  C   UNL     1      25.711  45.710  49.803  1.00  0.00     0.158 A 
HETATM    2  N   UNL     1      24.273  45.919  49.868  1.00  0.00    -0.326 N 
HETATM    3  C   UNL     1      23.913  47.200  49.504  1.00  0.00     0.255 A 
HETATM    4  O   UNL     1      22.795  47.658  49.377  1.00  0.00    -0.267 OA
HETATM    5  C   UNL     1      25.162  47.947  49.286  1.00  0.00     0.040 A 
HETATM    6  C   UNL     1      26.235  47.080  49.499  1.00  0.00    -0.015 A 
HETATM    7  C   UNL     1      25.330  49.272  48.929  1.00  0.00     0.017 A 
HETATM    8  C   UNL     1      26.639  49.733  48.773  1.00  0.00     0.001 A 
HETATM    9  C   UNL     1      27.732  48.870  48.975  1.00  0.00     0.001 A 
HETATM   10  C   UNL     1      27.536  47.533  49.336  1.00  0.00     0.011 A 
ENDROOT
BRANCH   1  11
HETATM   11  C   UNL     1      26.322  45.229  51.080  1.00  0.00     0.004 A 
HETATM   12  C   UNL     1      26.916  43.980  51.260  1.00  0.00     0.017 A 
HETATM   13  C   UNL     1      27.122  42.865  50.289  1.00  0.00     0.069 C 
HETATM   14  N   UNL     1      27.313  43.882  52.576  1.00  0.00    -0.354 N 
HETATM   15  C   UNL     1      27.957  42.716  53.148  1.00  0.00     0.156 C 
HETATM   16  C   UNL     1      26.987  45.030  53.267  1.00  0.00     0.045 A 
HETATM   17  C   UNL     1      26.393  45.903  52.351  1.00  0.00     0.001 A 
HETATM   18  C   UNL     1      27.156  45.373  54.620  1.00  0.00     0.030 A 
HETATM   19  C   UNL     1      25.975  47.172  52.816  1.00  0.00     0.014 A 
HETATM   20  C   UNL     1      26.140  47.520  54.160  1.00  0.00     0.001 A 
HETATM   21  C   UNL     1      26.720  46.628  55.051  1.00  0.00     0.002 A 
ENDBRANCH   1  11
BRANCH   2  22
HETATM   22  C   UNL     1      23.338  44.849  50.198  1.00  0.00     0.229 C 
BRANCH  22  23
HETATM   23  C   UNL     1      22.746  44.176  48.959  1.00  0.00     0.235 C 
HETATM   24  N   UNL     1      22.371  45.046  47.961  1.00  0.00    -0.357 N 
HETATM   25  H   UNL     1      22.326  46.038  48.179  1.00  0.00     0.162 HD
HETATM   26  O   UNL     1      22.541  42.967  48.902  1.00  0.00    -0.272 OA
BRANCH  24  27
HETATM   27  C   UNL     1      21.791  44.604  46.707  1.00  0.00     0.154 C 
BRANCH  27  28
HETATM   28  C   UNL     1      22.790  44.509  45.545  1.00  0.00     0.139 C 
HETATM   29  O   UNL     1      22.515  45.554  44.589  1.00  0.00    -0.384 OA
HETATM   30  C   UNL     1      22.427  44.959  43.288  1.00  0.00     0.168 C 
HETATM   31  C   UNL     1      22.052  43.513  43.512  1.00  0.00     0.029 C 
HETATM   32  C   UNL     1      22.794  43.189  44.784  1.00  0.00     0.035 C 
ENDBRANCH  27  28
ENDBRANCH  24  27
ENDBRANCH  22  23
ENDBRANCH   2  22
TORSDOF 5
ENDMDL
MODEL 6
REMARK VINA RESULT:      -8.2      8.351     11.351
REMARK  5 active torsions:
REMARK  status: ('A' for Active; 'I' for Inactive)
REMARK    1  A    between atoms: C_7  and  C_8 
REMARK    2  A    between atoms: N_9  and  C_10 
REMARK    3  A    between atoms: C_10  and  C_11 
REMARK       I    between atoms: C_11  and  N_12 
REMARK    4  A    between atoms: N_12  and  C_13 
REMARK    5  A    between atoms: C_13  and  C_14 
ROOT
HETATM    1  C   UNL     1      19.035  49.777  49.064  1.00  0.00     0.158 A 
HETATM    2  N   UNL     1      18.964  48.327  48.976  1.00  0.00    -0.326 N 
HETATM    3  C   UNL     1      20.195  47.757  48.728  1.00  0.00     0.255 A 
HETATM    4  O   UNL     1      20.480  46.576  48.681  1.00  0.00    -0.267 OA
HETATM    5  C   UNL     1      21.143  48.863  48.522  1.00  0.00     0.040 A 
HETATM    6  C   UNL     1      20.454  50.067  48.681  1.00  0.00    -0.015 A 
HETATM    7  C   UNL     1      22.492  48.807  48.223  1.00  0.00     0.017 A 
HETATM    8  C   UNL     1      23.170  50.021  48.090  1.00  0.00     0.001 A 
HETATM    9  C   UNL     1      22.493  51.243  48.256  1.00  0.00     0.001 A 
HETATM   10  C   UNL     1      21.128  51.273  48.559  1.00  0.00     0.011 A 
ENDROOT
BRANCH   1  11
HETATM   11  C   UNL     1      18.122  50.497  48.124  1.00  0.00     0.004 A 
HETATM   12  C   UNL     1      17.131  51.399  48.508  1.00  0.00     0.017 A 
HETATM   13  C   UNL     1      16.750  51.888  49.867  1.00  0.00     0.069 C 
HETATM   14  N   UNL     1      16.466  51.812  47.373  1.00  0.00    -0.354 N 
HETATM   15  C   UNL     1      15.354  52.741  47.373  1.00  0.00     0.156 C 
HETATM   16  C   UNL     1      16.990  51.198  46.256  1.00  0.00     0.045 A 
HETATM   17  C   UNL     1      18.047  50.392  46.689  1.00  0.00     0.001 A 
HETATM   18  C   UNL     1      16.621  51.275  44.901  1.00  0.00     0.030 A 
HETATM   19  C   UNL     1      18.766  49.656  45.718  1.00  0.00     0.014 A 
HETATM   20  C   UNL     1      18.404  49.728  44.369  1.00  0.00     0.001 A 
HETATM   21  C   UNL     1      17.341  50.525  43.968  1.00  0.00     0.002 A 
ENDBRANCH   1  11
BRANCH   2  22
HETATM   22  C   UNL     1      17.731  47.585  49.217  1.00  0.00     0.229 C 
BRANCH  22  23
HETATM   23  C   UNL     1      17.200  46.894  47.961  1.00  0.00     0.235 C 
HETATM   24  N   UNL     1      17.726  45.643  47.732  1.00  0.00    -0.357 N 
HETATM   25  H   UNL     1      18.539  45.356  48.271  1.00  0.00     0.162 HD
HETATM   26  O   UNL     1      16.438  47.451  47.176  1.00  0.00    -0.272 OA
BRANCH  24  27
HETATM   27  C   UNL     1      17.349  44.826  46.594  1.00  0.00     0.154 C 
BRANCH  27  28
HETATM   28  C   UNL     1      18.472  44.605  45.571  1.00  0.00     0.139 C 
HETATM   29  O   UNL     1      19.692  44.269  46.264  1.00  0.00    -0.384 OA
HETATM   30  C   UNL     1      20.733  45.125  45.776  1.00  0.00     0.168 C 
HETATM   31  C   UNL     1      20.048  46.360  45.243  1.00  0.00     0.029 C 
HETATM   32  C   UNL     1      18.778  45.789  44.662  1.00  0.00     0.035 C 
ENDBRANCH  27  28
ENDBRANCH  24  27
ENDBRANCH  22  23
ENDBRANCH   2  22
TORSDOF 5
ENDMDL
MODEL 7
REMARK VINA RESULT:      -8.1      9.353     14.218
REMARK  5 active torsions:
REMARK  status: ('A' for Active; 'I' for Inactive)
REMARK    1  A    between atoms: C_7  and  C_8 
REMARK    2  A    between atoms: N_9  and  C_10 
REMARK    3  A    between atoms: C_10  and  C_11 
REMARK       I    between atoms: C_11  and  N_12 
REMARK    4  A    between atoms: N_12  and  C_13 
REMARK    5  A    between atoms: C_13  and  C_14 
ROOT
HETATM    1  C   UNL     1      16.969  49.619  46.429  1.00  0.00     0.158 A 
HETATM    2  N   UNL     1      16.250  50.667  47.136  1.00  0.00    -0.326 N 
HETATM    3  C   UNL     1      16.130  51.818  46.384  1.00  0.00     0.255 A 
HETATM    4  O   UNL     1      15.520  52.833  46.658  1.00  0.00    -0.267 OA
HETATM    5  C   UNL     1      16.897  51.601  45.148  1.00  0.00     0.040 A 
HETATM    6  C   UNL     1      17.430  50.311  45.183  1.00  0.00    -0.015 A 
HETATM    7  C   UNL     1      17.100  52.465  44.088  1.00  0.00     0.017 A 
HETATM    8  C   UNL     1      17.867  52.000  43.018  1.00  0.00     0.001 A 
HETATM    9  C   UNL     1      18.405  50.700  43.033  1.00  0.00     0.001 A 
HETATM   10  C   UNL     1      18.185  49.843  44.117  1.00  0.00     0.011 A 
ENDROOT
BRANCH   1  11
HETATM   11  C   UNL     1      18.161  49.089  47.159  1.00  0.00     0.004 A 
HETATM   12  C   UNL     1      18.398  47.741  47.427  1.00  0.00     0.017 A 
HETATM   13  C   UNL     1      17.601  46.533  47.059  1.00  0.00     0.069 C 
HETATM   14  N   UNL     1      19.561  47.650  48.161  1.00  0.00    -0.354 N 
HETATM   15  C   UNL     1      20.125  46.406  48.644  1.00  0.00     0.156 C 
HETATM   16  C   UNL     1      20.088  48.903  48.389  1.00  0.00     0.045 A 
HETATM   17  C   UNL     1      19.251  49.823  47.750  1.00  0.00     0.001 A 
HETATM   18  C   UNL     1      21.226  49.310  49.110  1.00  0.00     0.030 A 
HETATM   19  C   UNL     1      19.586  51.195  47.825  1.00  0.00     0.014 A 
HETATM   20  C   UNL     1      20.716  51.606  48.539  1.00  0.00     0.001 A 
HETATM   21  C   UNL     1      21.522  50.673  49.178  1.00  0.00     0.002 A 
ENDBRANCH   1  11
BRANCH   2  22
HETATM   22  C   UNL     1      15.657  50.462  48.453  1.00  0.00     0.229 C 
BRANCH  22  23
HETATM   23  C   UNL     1      16.094  51.517  49.470  1.00  0.00     0.235 C 
HETATM   24  N   UNL     1      15.225  52.576  49.603  1.00  0.00    -0.357 N 
HETATM   25  H   UNL     1      14.490  52.686  48.910  1.00  0.00     0.162 HD
HETATM   26  O   UNL     1      17.175  51.464  50.049  1.00  0.00    -0.272 OA
BRANCH  24  27
HETATM   27  C   UNL     1      15.460  53.678  50.518  1.00  0.00     0.154 C 
BRANCH  27  28
HETATM   28  C   UNL     1      14.188  54.260  51.149  1.00  0.00     0.139 C 
HETATM   29  O   UNL     1      13.039  53.523  50.681  1.00  0.00    -0.384 OA
HETATM   30  C   UNL     1      12.069  54.464  50.204  1.00  0.00     0.168 C 
HETATM   31  C   UNL     1      12.840  55.706  49.823  1.00  0.00     0.029 C 
HETATM   32  C   UNL     1      13.927  55.734  50.868  1.00  0.00     0.035 C 
ENDBRANCH  27  28
ENDBRANCH  24  27
ENDBRANCH  22  23
ENDBRANCH   2  22
TORSDOF 5
ENDMDL
MODEL 8
REMARK VINA RESULT:      -8.1      8.127     11.418
REMARK  5 active torsions:
REMARK  status: ('A' for Active; 'I' for Inactive)
REMARK    1  A    between atoms: C_7  and  C_8 
REMARK    2  A    between atoms: N_9  and  C_10 
REMARK    3  A    between atoms: C_10  and  C_11 
REMARK       I    between atoms: C_11  and  N_12 
REMARK    4  A    between atoms: N_12  and  C_13 
REMARK    5  A    between atoms: C_13  and  C_14 
ROOT
HETATM    1  C   UNL     1      19.069  49.703  49.201  1.00  0.00     0.158 A 
HETATM    2  N   UNL     1      19.046  48.251  49.124  1.00  0.00    -0.326 N 
HETATM    3  C   UNL     1      20.282  47.724  48.813  1.00  0.00     0.255 A 
HETATM    4  O   UNL     1      20.607  46.554  48.756  1.00  0.00    -0.267 OA
HETATM    5  C   UNL     1      21.177  48.863  48.551  1.00  0.00     0.040 A 
HETATM    6  C   UNL     1      20.455  50.042  48.742  1.00  0.00    -0.015 A 
HETATM    7  C   UNL     1      22.509  48.853  48.182  1.00  0.00     0.017 A 
HETATM    8  C   UNL     1      23.135  50.089  48.008  1.00  0.00     0.001 A 
HETATM    9  C   UNL     1      22.424  51.287  48.204  1.00  0.00     0.001 A 
HETATM   10  C   UNL     1      21.076  51.271  48.579  1.00  0.00     0.011 A 
ENDROOT
BRANCH   1  11
HETATM   11  C   UNL     1      18.082  50.384  48.308  1.00  0.00     0.004 A 
HETATM   12  C   UNL     1      18.021  50.232  46.923  1.00  0.00     0.017 A 
HETATM   13  C   UNL     1      18.844  49.381  46.013  1.00  0.00     0.069 C 
HETATM   14  N   UNL     1      17.024  51.055  46.446  1.00  0.00    -0.354 N 
HETATM   15  C   UNL     1      16.673  51.183  45.046  1.00  0.00     0.156 C 
HETATM   16  C   UNL     1      16.435  51.750  47.481  1.00  0.00     0.045 A 
HETATM   17  C   UNL     1      17.055  51.331  48.661  1.00  0.00     0.001 A 
HETATM   18  C   UNL     1      15.416  52.719  47.480  1.00  0.00     0.030 A 
HETATM   19  C   UNL     1      16.616  51.894  49.882  1.00  0.00     0.014 A 
HETATM   20  C   UNL     1      15.603  52.858  49.889  1.00  0.00     0.001 A 
HETATM   21  C   UNL     1      15.014  53.267  48.700  1.00  0.00     0.002 A 
ENDBRANCH   1  11
BRANCH   2  22
HETATM   22  C   UNL     1      17.856  47.467  49.433  1.00  0.00     0.229 C 
BRANCH  22  23
HETATM   23  C   UNL     1      17.235  46.818  48.196  1.00  0.00     0.235 C 
HETATM   24  N   UNL     1      17.838  45.645  47.802  1.00  0.00    -0.357 N 
HETATM   25  H   UNL     1      18.735  45.403  48.215  1.00  0.00     0.162 HD
HETATM   26  O   UNL     1      16.332  47.351  47.556  1.00  0.00    -0.272 OA
BRANCH  24  27
HETATM   27  C   UNL     1      17.395  44.879  46.652  1.00  0.00     0.154 C 
BRANCH  27  28
HETATM   28  C   UNL     1      18.518  44.137  45.914  1.00  0.00     0.139 C 
HETATM   29  O   UNL     1      19.528  43.730  46.861  1.00  0.00    -0.384 OA
HETATM   30  C   UNL     1      20.803  44.158  46.366  1.00  0.00     0.168 C 
HETATM   31  C   UNL     1      20.528  45.326  45.449  1.00  0.00     0.029 C 
HETATM   32  C   UNL     1      19.219  44.926  44.815  1.00  0.00     0.035 C 
ENDBRANCH  27  28
ENDBRANCH  24  27
ENDBRANCH  22  23
ENDBRANCH   2  22
TORSDOF 5
ENDMDL
MODEL 9
REMARK VINA RESULT:      -8.0     16.938     19.103
REMARK  5 active torsions:
REMARK  status: ('A' for Active; 'I' for Inactive)
REMARK    1  A    between atoms: C_7  and  C_8 
REMARK    2  A    between atoms: N_9  and  C_10 
REMARK    3  A    between atoms: C_10  and  C_11 
REMARK       I    between atoms: C_11  and  N_12 
REMARK    4  A    between atoms: N_12  and  C_13 
REMARK    5  A    between atoms: C_13  and  C_14 
ROOT
HETATM    1  C   UNL     1      38.309  45.972  66.873  1.00  0.00     0.158 A 
HETATM    2  N   UNL     1      39.709  45.717  67.169  1.00  0.00    -0.326 N 
HETATM    3  C   UNL     1      40.523  46.766  66.796  1.00  0.00     0.255 A 
HETATM    4  O   UNL     1      41.717  46.893  66.983  1.00  0.00    -0.267 OA
HETATM    5  C   UNL     1      39.667  47.745  66.108  1.00  0.00     0.040 A 
HETATM    6  C   UNL     1      38.357  47.264  66.115  1.00  0.00    -0.015 A 
HETATM    7  C   UNL     1      40.017  48.952  65.533  1.00  0.00     0.017 A 
HETATM    8  C   UNL     1      38.996  49.705  64.948  1.00  0.00     0.001 A 
HETATM    9  C   UNL     1      37.669  49.239  64.954  1.00  0.00     0.001 A 
HETATM   10  C   UNL     1      37.339  48.014  65.544  1.00  0.00     0.011 A 
ENDROOT
BRANCH   1  11
HETATM   11  C   UNL     1      37.660  44.932  66.017  1.00  0.00     0.004 A 
HETATM   12  C   UNL     1      36.481  44.259  66.335  1.00  0.00     0.017 A 
HETATM   13  C   UNL     1      35.583  44.400  67.519  1.00  0.00     0.069 C 
HETATM   14  N   UNL     1      36.229  43.344  65.335  1.00  0.00    -0.354 N 
HETATM   15  C   UNL     1      35.095  42.441  65.324  1.00  0.00     0.156 C 
HETATM   16  C   UNL     1      37.216  43.393  64.375  1.00  0.00     0.045 A 
HETATM   17  C   UNL     1      38.110  44.397  64.757  1.00  0.00     0.001 A 
HETATM   18  C   UNL     1      37.406  42.635  63.205  1.00  0.00     0.030 A 
HETATM   19  C   UNL     1      39.220  44.657  63.920  1.00  0.00     0.014 A 
HETATM   20  C   UNL     1      39.414  43.907  62.755  1.00  0.00     0.001 A 
HETATM   21  C   UNL     1      38.519  42.905  62.406  1.00  0.00     0.002 A 
ENDBRANCH   1  11
BRANCH   2  22
HETATM   22  C   UNL     1      40.158  44.515  67.864  1.00  0.00     0.229 C 
BRANCH  22  23
HETATM   23  C   UNL     1      41.063  43.635  67.002  1.00  0.00     0.235 C 
HETATM   24  N   UNL     1      40.425  42.571  66.406  1.00  0.00    -0.357 N 
HETATM   25  H   UNL     1      39.488  42.334  66.722  1.00  0.00     0.162 HD
HETATM   26  O   UNL     1      42.275  43.814  66.924  1.00  0.00    -0.272 OA
BRANCH  24  27
HETATM   27  C   UNL     1      41.109  41.621  65.549  1.00  0.00     0.154 C 
BRANCH  27  28
HETATM   28  C   UNL     1      40.515  40.206  65.569  1.00  0.00     0.139 C 
HETATM   29  O   UNL     1      41.457  39.281  64.987  1.00  0.00    -0.384 OA
HETATM   30  C   UNL     1      40.770  38.509  63.993  1.00  0.00     0.168 C 
HETATM   31  C   UNL     1      39.596  39.348  63.547  1.00  0.00     0.029 C 
HETATM   32  C   UNL     1      39.194  40.034  64.829  1.00  0.00     0.035 C 
ENDBRANCH  27  28
ENDBRANCH  24  27
ENDBRANCH  22  23
ENDBRANCH   2  22
TORSDOF 5
ENDMDL
MODEL 10
REMARK VINA RESULT:      -8.0      9.568     13.774
REMARK  5 active torsions:
REMARK  status: ('A' for Active; 'I' for Inactive)
REMARK    1  A    between atoms: C_7  and  C_8 
REMARK    2  A    between atoms: N_9  and  C_10 
REMARK    3  A    between atoms: C_10  and  C_11 
REMARK       I    between atoms: C_11  and  N_12 
REMARK    4  A    between atoms: N_12  and  C_13 
REMARK    5  A    between atoms: C_13  and  C_14 
ROOT
HETATM    1  C   UNL     1      18.854  50.395  47.195  1.00  0.00     0.158 A 
HETATM    2  N   UNL     1      17.890  50.440  48.282  1.00  0.00    -0.326 N 
HETATM    3  C   UNL     1      18.485  50.698  49.499  1.00  0.00     0.255 A 
HETATM    4  O   UNL     1      17.948  50.878  50.575  1.00  0.00    -0.267 OA
HETATM    5  C   UNL     1      19.938  50.721  49.267  1.00  0.00     0.040 A 
HETATM    6  C   UNL     1      20.168  50.504  47.907  1.00  0.00    -0.015 A 
HETATM    7  C   UNL     1      20.960  50.919  50.176  1.00  0.00     0.017 A 
HETATM    8  C   UNL     1      22.267  50.905  49.685  1.00  0.00     0.001 A 
HETATM    9  C   UNL     1      22.517  50.696  48.316  1.00  0.00     0.001 A 
HETATM   10  C   UNL     1      21.465  50.499  47.415  1.00  0.00     0.011 A 
ENDROOT
BRANCH   1  11
HETATM   11  C   UNL     1      18.835  49.126  46.404  1.00  0.00     0.004 A 
HETATM   12  C   UNL     1      18.576  49.041  45.037  1.00  0.00     0.017 A 
HETATM   13  C   UNL     1      18.298  50.120  44.043  1.00  0.00     0.069 C 
HETATM   14  N   UNL     1      18.591  47.710  44.681  1.00  0.00    -0.354 N 
HETATM   15  C   UNL     1      18.345  47.222  43.339  1.00  0.00     0.156 C 
HETATM   16  C   UNL     1      18.844  46.918  45.781  1.00  0.00     0.045 A 
HETATM   17  C   UNL     1      19.030  47.777  46.869  1.00  0.00     0.001 A 
HETATM   18  C   UNL     1      18.917  45.520  45.916  1.00  0.00     0.030 A 
HETATM   19  C   UNL     1      19.320  47.203  48.129  1.00  0.00     0.014 A 
HETATM   20  C   UNL     1      19.394  45.814  48.270  1.00  0.00     0.001 A 
HETATM   21  C   UNL     1      19.190  44.984  47.177  1.00  0.00     0.002 A 
ENDBRANCH   1  11
BRANCH   2  22
HETATM   22  C   UNL     1      16.453  50.313  48.063  1.00  0.00     0.229 C 
BRANCH  22  23
HETATM   23  C   UNL     1      15.743  51.664  47.988  1.00  0.00     0.235 C 
HETATM   24  N   UNL     1      15.337  52.165  49.204  1.00  0.00    -0.357 N 
HETATM   25  H   UNL     1      15.354  51.545  50.009  1.00  0.00     0.162 HD
HETATM   26  O   UNL     1      15.478  52.210  46.920  1.00  0.00    -0.272 OA
BRANCH  24  27
HETATM   27  C   UNL     1      14.647  53.434  49.343  1.00  0.00     0.154 C 
BRANCH  27  28
HETATM   28  C   UNL     1      14.940  54.174  50.655  1.00  0.00     0.139 C 
HETATM   29  O   UNL     1      13.781  54.108  51.513  1.00  0.00    -0.384 OA
HETATM   30  C   UNL     1      13.480  55.437  51.959  1.00  0.00     0.168 C 
HETATM   31  C   UNL     1      14.060  56.370  50.924  1.00  0.00     0.029 C 
HETATM   32  C   UNL     1      15.317  55.644  50.514  1.00  0.00     0.035 C 
ENDBRANCH  27  28
ENDBRANCH  24  27
ENDBRANCH  22  23
ENDBRANCH   2  22
TORSDOF 5
ENDMDL
