MODEL 1
REMARK VINA RESULT:      -7.6      0.000      0.000
REMARK  6 active torsions:
REMARK  status: ('A' for Active; 'I' for Inactive)
REMARK    1  A    between atoms: O_2  and  C_3 
REMARK    2  A    between atoms: C_3  and  C_4 
REMARK    3  A    between atoms: C_4  and  N_5 
REMARK       I    between atoms: N_5  and  C_6 
REMARK    4  A    between atoms: C_6  and  C_7 
REMARK    5  A    between atoms: C_12  and  C_13 
REMARK    6  A    between atoms: C_20  and  C_21 
ROOT
HETATM    1  C   UNL     1      33.206  52.232  40.116  1.00  0.00     0.165 A 
HETATM    2  N   UNL     1      31.934  52.392  39.674  1.00  0.00    -0.163 NA
HETATM    3  N   UNL     1      31.187  51.729  40.573  1.00  0.00    -0.238 N 
HETATM    4  C   UNL     1      31.924  51.056  41.511  1.00  0.00     0.141 A 
HETATM    5  N   UNL     1      31.334  50.209  42.394  1.00  0.00    -0.365 N 
HETATM    6  C   UNL     1      29.974  49.726  42.145  1.00  0.00     0.118 C 
HETATM    7  C   UNL     1      29.132  50.918  41.662  1.00  0.00     0.066 C 
HETATM    8  C   UNL     1      29.749  51.582  40.414  1.00  0.00     0.221 C 
HETATM    9  C   UNL     1      33.227  51.415  41.274  1.00  0.00     0.092 A 
HETATM   10 BR   UNL     1      34.729  50.835  42.232  1.00  0.00    -0.044 Br
HETATM   11  H   UNL     1      31.918  49.575  42.941  1.00  0.00     0.162 HD
ENDROOT
BRANCH   1  12
HETATM   12  C   UNL     1      34.334  52.838  39.385  1.00  0.00     0.273 C 
HETATM   13  N   UNL     1      34.340  54.214  39.450  1.00  0.00    -0.353 N 
HETATM   14  H   UNL     1      33.683  54.629  40.108  1.00  0.00     0.162 HD
HETATM   15  O   UNL     1      35.178  52.193  38.772  1.00  0.00    -0.266 OA
BRANCH  13  16
HETATM   16  C   UNL     1      35.425  55.026  38.944  1.00  0.00     0.149 C 
BRANCH  16  17
HETATM   17  C   UNL     1      35.162  56.512  39.184  1.00  0.00     0.186 C 
BRANCH  17  18
HETATM   18  O   UNL     1      34.145  56.655  40.181  1.00  0.00    -0.394 OA
HETATM   19  C   UNL     1      33.491  57.913  40.085  1.00  0.00     0.201 C 
ENDBRANCH  17  18
ENDBRANCH  16  17
ENDBRANCH  13  16
ENDBRANCH   1  12
BRANCH   8  20
HETATM   20  C   UNL     1      29.075  52.915  40.167  1.00  0.00     0.409 C 
HETATM   21  F   UNL     1      27.889  53.018  40.808  1.00  0.00    -0.169 F 
HETATM   22  F   UNL     1      29.836  53.974  40.512  1.00  0.00    -0.169 F 
HETATM   23  F   UNL     1      28.812  53.054  38.840  1.00  0.00    -0.169 F 
ENDBRANCH   8  20
BRANCH   6  24
HETATM   24  C   UNL     1      29.913  48.525  41.207  1.00  0.00    -0.035 A 
HETATM   25  C   UNL     1      31.039  48.005  40.545  1.00  0.00     0.009 A 
HETATM   26  C   UNL     1      30.929  46.911  39.682  1.00  0.00     0.001 A 
HETATM   27  C   UNL     1      29.693  46.310  39.470  1.00  0.00     0.000 A 
HETATM   28  C   UNL     1      28.567  46.795  40.127  1.00  0.00     0.001 A 
HETATM   29  C   UNL     1      28.677  47.888  40.991  1.00  0.00     0.009 A 
ENDBRANCH   6  24
TORSDOF 6
ENDMDL
MODEL 2
REMARK VINA RESULT:      -7.5     11.797     14.105
REMARK  6 active torsions:
REMARK  status: ('A' for Active; 'I' for Inactive)
REMARK    1  A    between atoms: O_2  and  C_3 
REMARK    2  A    between atoms: C_3  and  C_4 
REMARK    3  A    between atoms: C_4  and  N_5 
REMARK       I    between atoms: N_5  and  C_6 
REMARK    4  A    between atoms: C_6  and  C_7 
REMARK    5  A    between atoms: C_12  and  C_13 
REMARK    6  A    between atoms: C_20  and  C_21 
ROOT
HETATM    1  C   UNL     1      22.753  48.764  48.977  1.00  0.00     0.165 A 
HETATM    2  N   UNL     1      23.987  49.247  49.268  1.00  0.00    -0.163 NA
HETATM    3  N   UNL     1      24.763  48.151  49.325  1.00  0.00    -0.238 N 
HETATM    4  C   UNL     1      24.069  46.978  49.197  1.00  0.00     0.141 A 
HETATM    5  N   UNL     1      24.675  45.777  49.391  1.00  0.00    -0.365 N 
HETATM    6  C   UNL     1      25.966  45.714  50.078  1.00  0.00     0.118 C 
HETATM    7  C   UNL     1      26.845  46.852  49.535  1.00  0.00     0.066 C 
HETATM    8  C   UNL     1      26.165  48.226  49.704  1.00  0.00     0.221 C 
HETATM    9  C   UNL     1      22.779  47.349  48.910  1.00  0.00     0.092 A 
HETATM   10 BR   UNL     1      21.335  46.195  48.607  1.00  0.00    -0.044 Br
HETATM   11  H   UNL     1      24.099  44.940  49.487  1.00  0.00     0.162 HD
ENDROOT
BRANCH   1  12
HETATM   12  C   UNL     1      21.610  49.681  48.818  1.00  0.00     0.273 C 
HETATM   13  N   UNL     1      20.975  49.960  50.008  1.00  0.00    -0.353 N 
HETATM   14  H   UNL     1      21.453  49.641  50.850  1.00  0.00     0.162 HD
HETATM   15  O   UNL     1      21.249  50.145  47.742  1.00  0.00    -0.266 OA
BRANCH  13  16
HETATM   16  C   UNL     1      19.927  50.949  50.135  1.00  0.00     0.149 C 
BRANCH  16  17
HETATM   17  C   UNL     1      18.553  50.289  50.250  1.00  0.00     0.186 C 
BRANCH  17  18
HETATM   18  O   UNL     1      17.599  51.060  49.512  1.00  0.00    -0.394 OA
HETATM   19  C   UNL     1      17.766  52.453  49.737  1.00  0.00     0.201 C 
ENDBRANCH  17  18
ENDBRANCH  16  17
ENDBRANCH  13  16
ENDBRANCH   1  12
BRANCH   8  20
HETATM   20  C   UNL     1      26.910  49.260  48.886  1.00  0.00     0.409 C 
HETATM   21  F   UNL     1      26.454  49.338  47.616  1.00  0.00    -0.169 F 
HETATM   22  F   UNL     1      26.876  50.497  49.424  1.00  0.00    -0.169 F 
HETATM   23  F   UNL     1      28.224  48.918  48.806  1.00  0.00    -0.169 F 
ENDBRANCH   8  20
BRANCH   6  24
HETATM   24  C   UNL     1      25.852  45.715  51.599  1.00  0.00    -0.035 A 
HETATM   25  C   UNL     1      26.125  46.842  52.393  1.00  0.00     0.009 A 
HETATM   26  C   UNL     1      26.021  46.788  53.785  1.00  0.00     0.001 A 
HETATM   27  C   UNL     1      25.632  45.609  54.412  1.00  0.00     0.000 A 
HETATM   28  C   UNL     1      25.338  44.485  53.648  1.00  0.00     0.001 A 
HETATM   29  C   UNL     1      25.441  44.539  52.254  1.00  0.00     0.009 A 
ENDBRANCH   6  24
TORSDOF 6
ENDMDL
MODEL 3
REMARK VINA RESULT:      -7.3     12.277     14.969
REMARK  6 active torsions:
REMARK  status: ('A' for Active; 'I' for Inactive)
REMARK    1  A    between atoms: O_2  and  C_3 
REMARK    2  A    between atoms: C_3  and  C_4 
REMARK    3  A    between atoms: C_4  and  N_5 
REMARK       I    between atoms: N_5  and  C_6 
REMARK    4  A    between atoms: C_6  and  C_7 
REMARK    5  A    between atoms: C_12  and  C_13 
REMARK    6  A    between atoms: C_20  and  C_21 
ROOT
HETATM    1  C   UNL     1      26.201  42.996  49.555  1.00  0.00     0.165 A 
HETATM    2  N   UNL     1      26.871  43.649  50.539  1.00  0.00    -0.163 NA
HETATM    3  N   UNL     1      26.061  44.670  50.866  1.00  0.00    -0.238 N 
HETATM    4  C   UNL     1      24.954  44.772  50.065  1.00  0.00     0.141 A 
HETATM    5  N   UNL     1      24.117  45.839  50.156  1.00  0.00    -0.365 N 
HETATM    6  C   UNL     1      24.556  47.055  50.843  1.00  0.00     0.118 C 
HETATM    7  C   UNL     1      25.280  46.633  52.132  1.00  0.00     0.066 C 
HETATM    8  C   UNL     1      26.454  45.678  51.838  1.00  0.00     0.221 C 
HETATM    9  C   UNL     1      24.991  43.668  49.252  1.00  0.00     0.092 A 
HETATM   10 BR   UNL     1      23.739  43.220  47.932  1.00  0.00    -0.044 Br
HETATM   11  H   UNL     1      23.424  45.990  49.423  1.00  0.00     0.162 HD
ENDROOT
BRANCH   1  12
HETATM   12  C   UNL     1      26.775  41.788  48.935  1.00  0.00     0.273 C 
HETATM   13  N   UNL     1      26.301  40.621  49.491  1.00  0.00    -0.353 N 
HETATM   14  H   UNL     1      25.515  40.723  50.132  1.00  0.00     0.162 HD
HETATM   15  O   UNL     1      27.595  41.811  48.024  1.00  0.00    -0.266 OA
BRANCH  13  16
HETATM   16  C   UNL     1      26.595  39.310  48.955  1.00  0.00     0.149 C 
BRANCH  16  17
HETATM   17  C   UNL     1      27.808  38.688  49.646  1.00  0.00     0.186 C 
BRANCH  17  18
HETATM   18  O   UNL     1      28.803  38.381  48.662  1.00  0.00    -0.394 OA
HETATM   19  C   UNL     1      30.051  38.065  49.263  1.00  0.00     0.201 C 
ENDBRANCH  17  18
ENDBRANCH  16  17
ENDBRANCH  13  16
ENDBRANCH   1  12
BRANCH   8  20
HETATM   20  C   UNL     1      26.930  45.051  53.131  1.00  0.00     0.409 C 
HETATM   21  F   UNL     1      28.167  44.517  53.020  1.00  0.00    -0.169 F 
HETATM   22  F   UNL     1      26.929  45.905  54.175  1.00  0.00    -0.169 F 
HETATM   23  F   UNL     1      26.098  44.031  53.476  1.00  0.00    -0.169 F 
ENDBRANCH   8  20
BRANCH   6  24
HETATM   24  C   UNL     1      25.382  47.990  49.966  1.00  0.00    -0.035 A 
HETATM   25  C   UNL     1      26.788  48.024  49.985  1.00  0.00     0.009 A 
HETATM   26  C   UNL     1      27.500  48.910  49.173  1.00  0.00     0.001 A 
HETATM   27  C   UNL     1      26.823  49.774  48.318  1.00  0.00     0.000 A 
HETATM   28  C   UNL     1      25.434  49.747  48.268  1.00  0.00     0.001 A 
HETATM   29  C   UNL     1      24.721  48.859  49.080  1.00  0.00     0.009 A 
ENDBRANCH   6  24
TORSDOF 6
ENDMDL
MODEL 4
REMARK VINA RESULT:      -7.2     11.724     13.863
REMARK  6 active torsions:
REMARK  status: ('A' for Active; 'I' for Inactive)
REMARK    1  A    between atoms: O_2  and  C_3 
REMARK    2  A    between atoms: C_3  and  C_4 
REMARK    3  A    between atoms: C_4  and  N_5 
REMARK       I    between atoms: N_5  and  C_6 
REMARK    4  A    between atoms: C_6  and  C_7 
REMARK    5  A    between atoms: C_12  and  C_13 
REMARK    6  A    between atoms: C_20  and  C_21 
ROOT
HETATM    1  C   UNL     1      22.752  49.532  48.515  1.00  0.00     0.165 A 
HETATM    2  N   UNL     1      21.727  50.415  48.417  1.00  0.00    -0.163 NA
HETATM    3  N   UNL     1      20.651  49.716  48.816  1.00  0.00    -0.238 N 
HETATM    4  C   UNL     1      20.914  48.394  49.059  1.00  0.00     0.141 A 
HETATM    5  N   UNL     1      19.911  47.513  49.315  1.00  0.00    -0.365 N 
HETATM    6  C   UNL     1      18.528  47.868  48.993  1.00  0.00     0.118 C 
HETATM    7  C   UNL     1      18.300  49.323  49.434  1.00  0.00     0.066 C 
HETATM    8  C   UNL     1      19.313  50.282  48.777  1.00  0.00     0.221 C 
HETATM    9  C   UNL     1      22.274  48.264  48.931  1.00  0.00     0.092 A 
HETATM   10 BR   UNL     1      23.264  46.690  49.153  1.00  0.00    -0.044 Br
HETATM   11  H   UNL     1      20.111  46.513  49.292  1.00  0.00     0.162 HD
ENDROOT
BRANCH   1  12
HETATM   12  C   UNL     1      24.126  49.939  48.167  1.00  0.00     0.273 C 
HETATM   13  N   UNL     1      25.087  49.230  48.853  1.00  0.00    -0.353 N 
HETATM   14  H   UNL     1      24.751  48.424  49.379  1.00  0.00     0.162 HD
HETATM   15  O   UNL     1      24.394  50.822  47.359  1.00  0.00    -0.266 OA
BRANCH  13  16
HETATM   16  C   UNL     1      26.502  49.338  48.574  1.00  0.00     0.149 C 
BRANCH  16  17
HETATM   17  C   UNL     1      27.325  48.496  49.548  1.00  0.00     0.186 C 
BRANCH  17  18
HETATM   18  O   UNL     1      27.608  47.227  48.948  1.00  0.00    -0.394 OA
HETATM   19  C   UNL     1      26.985  46.164  49.655  1.00  0.00     0.201 C 
ENDBRANCH  17  18
ENDBRANCH  16  17
ENDBRANCH  13  16
ENDBRANCH   1  12
BRANCH   8  20
HETATM   20  C   UNL     1      19.255  51.627  49.469  1.00  0.00     0.409 C 
HETATM   21  F   UNL     1      20.036  51.673  50.571  1.00  0.00    -0.169 F 
HETATM   22  F   UNL     1      19.591  52.659  48.668  1.00  0.00    -0.169 F 
HETATM   23  F   UNL     1      17.983  51.871  49.886  1.00  0.00    -0.169 F 
ENDBRANCH   8  20
BRANCH   6  24
HETATM   24  C   UNL     1      18.154  47.615  47.536  1.00  0.00    -0.035 A 
HETATM   25  C   UNL     1      18.905  46.790  46.679  1.00  0.00     0.009 A 
HETATM   26  C   UNL     1      18.530  46.601  45.346  1.00  0.00     0.001 A 
HETATM   27  C   UNL     1      17.391  47.225  44.845  1.00  0.00     0.000 A 
HETATM   28  C   UNL     1      16.622  48.030  45.678  1.00  0.00     0.001 A 
HETATM   29  C   UNL     1      16.997  48.218  47.011  1.00  0.00     0.009 A 
ENDBRANCH   6  24
TORSDOF 6
ENDMDL
MODEL 5
REMARK VINA RESULT:      -7.1      1.588      1.993
REMARK  6 active torsions:
REMARK  status: ('A' for Active; 'I' for Inactive)
REMARK    1  A    between atoms: O_2  and  C_3 
REMARK    2  A    between atoms: C_3  and  C_4 
REMARK    3  A    between atoms: C_4  and  N_5 
REMARK       I    between atoms: N_5  and  C_6 
REMARK    4  A    between atoms: C_6  and  C_7 
REMARK    5  A    between atoms: C_12  and  C_13 
REMARK    6  A    between atoms: C_20  and  C_21 
ROOT
HETATM    1  C   UNL     1      32.925  51.918  39.875  1.00  0.00     0.165 A 
HETATM    2  N   UNL     1      31.857  51.964  39.038  1.00  0.00    -0.163 NA
HETATM    3  N   UNL     1      30.824  51.569  39.801  1.00  0.00    -0.238 N 
HETATM    4  C   UNL     1      31.191  51.164  41.057  1.00  0.00     0.141 A 
HETATM    5  N   UNL     1      30.295  50.586  41.900  1.00  0.00    -0.365 N 
HETATM    6  C   UNL     1      29.032  50.064  41.375  1.00  0.00     0.118 C 
HETATM    7  C   UNL     1      28.477  51.091  40.374  1.00  0.00     0.066 C 
HETATM    8  C   UNL     1      29.489  51.395  39.251  1.00  0.00     0.221 C 
HETATM    9  C   UNL     1      32.533  51.437  41.149  1.00  0.00     0.092 A 
HETATM   10 BR   UNL     1      33.630  51.122  42.635  1.00  0.00    -0.044 Br
HETATM   11  H   UNL     1      30.635  50.116  42.739  1.00  0.00     0.162 HD
ENDROOT
BRANCH   1  12
HETATM   12  C   UNL     1      34.266  52.299  39.397  1.00  0.00     0.273 C 
HETATM   13  N   UNL     1      34.627  53.575  39.768  1.00  0.00    -0.353 N 
HETATM   14  H   UNL     1      34.014  54.029  40.444  1.00  0.00     0.162 HD
HETATM   15  O   UNL     1      34.989  51.566  38.730  1.00  0.00    -0.266 OA
BRANCH  13  16
HETATM   16  C   UNL     1      35.949  54.120  39.552  1.00  0.00     0.149 C 
BRANCH  16  17
HETATM   17  C   UNL     1      36.939  53.602  40.595  1.00  0.00     0.186 C 
BRANCH  17  18
HETATM   18  O   UNL     1      36.749  54.319  41.820  1.00  0.00    -0.394 OA
HETATM   19  C   UNL     1      37.131  53.540  42.945  1.00  0.00     0.201 C 
ENDBRANCH  17  18
ENDBRANCH  16  17
ENDBRANCH  13  16
ENDBRANCH   1  12
BRANCH   8  20
HETATM   20  C   UNL     1      29.038  52.619  38.484  1.00  0.00     0.409 C 
HETATM   21  F   UNL     1      29.216  53.761  39.186  1.00  0.00    -0.169 F 
HETATM   22  F   UNL     1      29.645  52.758  37.287  1.00  0.00    -0.169 F 
HETATM   23  F   UNL     1      27.705  52.528  38.224  1.00  0.00    -0.169 F 
ENDBRANCH   8  20
BRANCH   6  24
HETATM   24  C   UNL     1      29.143  48.658  40.796  1.00  0.00    -0.035 A 
HETATM   25  C   UNL     1      30.363  48.081  40.399  1.00  0.00     0.009 A 
HETATM   26  C   UNL     1      30.411  46.793  39.859  1.00  0.00     0.001 A 
HETATM   27  C   UNL     1      29.243  46.051  39.713  1.00  0.00     0.000 A 
HETATM   28  C   UNL     1      28.027  46.593  40.115  1.00  0.00     0.001 A 
HETATM   29  C   UNL     1      27.978  47.881  40.656  1.00  0.00     0.009 A 
ENDBRANCH   6  24
TORSDOF 6
ENDMDL
MODEL 6
REMARK VINA RESULT:      -7.0      4.251      5.958
REMARK  6 active torsions:
REMARK  status: ('A' for Active; 'I' for Inactive)
REMARK    1  A    between atoms: O_2  and  C_3 
REMARK    2  A    between atoms: C_3  and  C_4 
REMARK    3  A    between atoms: C_4  and  N_5 
REMARK       I    between atoms: N_5  and  C_6 
REMARK    4  A    between atoms: C_6  and  C_7 
REMARK    5  A    between atoms: C_12  and  C_13 
REMARK    6  A    between atoms: C_20  and  C_21 
ROOT
HETATM    1  C   UNL     1      34.971  51.266  41.768  1.00  0.00     0.165 A 
HETATM    2  N   UNL     1      33.911  50.473  42.068  1.00  0.00    -0.163 NA
HETATM    3  N   UNL     1      33.283  50.305  40.892  1.00  0.00    -0.238 N 
HETATM    4  C   UNL     1      33.821  51.041  39.871  1.00  0.00     0.141 A 
HETATM    5  N   UNL     1      33.212  51.111  38.658  1.00  0.00    -0.365 N 
HETATM    6  C   UNL     1      31.812  50.705  38.520  1.00  0.00     0.118 C 
HETATM    7  C   UNL     1      31.617  49.405  39.316  1.00  0.00     0.066 C 
HETATM    8  C   UNL     1      32.028  49.576  40.793  1.00  0.00     0.221 C 
HETATM    9  C   UNL     1      34.948  51.622  40.396  1.00  0.00     0.092 A 
HETATM   10 BR   UNL     1      36.139  52.749  39.491  1.00  0.00    -0.044 Br
HETATM   11  H   UNL     1      33.519  51.817  37.988  1.00  0.00     0.162 HD
ENDROOT
BRANCH   1  12
HETATM   12  C   UNL     1      35.923  51.670  42.817  1.00  0.00     0.273 C 
HETATM   13  N   UNL     1      36.917  50.740  43.028  1.00  0.00    -0.353 N 
HETATM   14  H   UNL     1      36.970  49.986  42.346  1.00  0.00     0.162 HD
HETATM   15  O   UNL     1      35.842  52.718  43.448  1.00  0.00    -0.266 OA
BRANCH  13  16
HETATM   16  C   UNL     1      38.052  50.976  43.894  1.00  0.00     0.149 C 
BRANCH  16  17
HETATM   17  C   UNL     1      39.099  49.873  43.747  1.00  0.00     0.186 C 
BRANCH  17  18
HETATM   18  O   UNL     1      39.524  49.453  45.049  1.00  0.00    -0.394 OA
HETATM   19  C   UNL     1      40.668  48.613  44.979  1.00  0.00     0.201 C 
ENDBRANCH  17  18
ENDBRANCH  16  17
ENDBRANCH  13  16
ENDBRANCH   1  12
BRANCH   8  20
HETATM   20  C   UNL     1      32.119  48.216  41.451  1.00  0.00     0.409 C 
HETATM   21  F   UNL     1      31.258  47.324  40.911  1.00  0.00    -0.169 F 
HETATM   22  F   UNL     1      33.358  47.684  41.417  1.00  0.00    -0.169 F 
HETATM   23  F   UNL     1      31.789  48.323  42.767  1.00  0.00    -0.169 F 
ENDBRANCH   8  20
BRANCH   6  24
HETATM   24  C   UNL     1      30.817  51.798  38.897  1.00  0.00    -0.035 A 
HETATM   25  C   UNL     1      30.970  52.624  40.024  1.00  0.00     0.009 A 
HETATM   26  C   UNL     1      30.021  53.602  40.337  1.00  0.00     0.001 A 
HETATM   27  C   UNL     1      28.906  53.780  39.524  1.00  0.00     0.000 A 
HETATM   28  C   UNL     1      28.742  52.987  38.393  1.00  0.00     0.001 A 
HETATM   29  C   UNL     1      29.691  52.010  38.080  1.00  0.00     0.009 A 
ENDBRANCH   6  24
TORSDOF 6
ENDMDL
MODEL 7
REMARK VINA RESULT:      -6.9     12.617     15.204
REMARK  6 active torsions:
REMARK  status: ('A' for Active; 'I' for Inactive)
REMARK    1  A    between atoms: O_2  and  C_3 
REMARK    2  A    between atoms: C_3  and  C_4 
REMARK    3  A    between atoms: C_4  and  N_5 
REMARK       I    between atoms: N_5  and  C_6 
REMARK    4  A    between atoms: C_6  and  C_7 
REMARK    5  A    between atoms: C_12  and  C_13 
REMARK    6  A    between atoms: C_20  and  C_21 
ROOT
HETATM    1  C   UNL     1      21.341  47.058  47.351  1.00  0.00     0.165 A 
HETATM    2  N   UNL     1      21.852  48.315  47.375  1.00  0.00    -0.163 NA
HETATM    3  N   UNL     1      21.335  48.859  48.489  1.00  0.00    -0.238 N 
HETATM    4  C   UNL     1      20.428  48.053  49.125  1.00  0.00     0.141 A 
HETATM    5  N   UNL     1      19.694  48.511  50.173  1.00  0.00    -0.365 N 
HETATM    6  C   UNL     1      19.593  49.950  50.420  1.00  0.00     0.118 C 
HETATM    7  C   UNL     1      20.993  50.559  50.238  1.00  0.00     0.066 C 
HETATM    8  C   UNL     1      21.570  50.250  48.842  1.00  0.00     0.221 C 
HETATM    9  C   UNL     1      20.460  46.863  48.444  1.00  0.00     0.092 A 
HETATM   10 BR   UNL     1      19.447  45.335  48.831  1.00  0.00    -0.044 Br
HETATM   11  H   UNL     1      18.893  47.966  50.494  1.00  0.00     0.162 HD
ENDROOT
BRANCH   1  12
HETATM   12  C   UNL     1      21.693  46.128  46.263  1.00  0.00     0.273 C 
HETATM   13  N   UNL     1      22.462  45.068  46.689  1.00  0.00    -0.353 N 
HETATM   14  H   UNL     1      22.556  44.967  47.699  1.00  0.00     0.162 HD
HETATM   15  O   UNL     1      21.350  46.279  45.095  1.00  0.00    -0.266 OA
BRANCH  13  16
HETATM   16  C   UNL     1      22.805  43.946  45.843  1.00  0.00     0.149 C 
BRANCH  16  17
HETATM   17  C   UNL     1      22.411  42.621  46.494  1.00  0.00     0.186 C 
BRANCH  17  18
HETATM   18  O   UNL     1      22.133  42.843  47.881  1.00  0.00    -0.394 OA
HETATM   19  C   UNL     1      23.000  42.087  48.715  1.00  0.00     0.201 C 
ENDBRANCH  17  18
ENDBRANCH  16  17
ENDBRANCH  13  16
ENDBRANCH   1  12
BRANCH   8  20
HETATM   20  C   UNL     1      23.046  50.590  48.820  1.00  0.00     0.409 C 
HETATM   21  F   UNL     1      23.485  50.899  47.580  1.00  0.00    -0.169 F 
HETATM   22  F   UNL     1      23.377  51.600  49.651  1.00  0.00    -0.169 F 
HETATM   23  F   UNL     1      23.768  49.511  49.229  1.00  0.00    -0.169 F 
ENDBRANCH   8  20
BRANCH   6  24
HETATM   24  C   UNL     1      18.522  50.642  49.584  1.00  0.00    -0.035 A 
HETATM   25  C   UNL     1      17.619  49.947  48.759  1.00  0.00     0.009 A 
HETATM   26  C   UNL     1      16.664  50.628  47.999  1.00  0.00     0.001 A 
HETATM   27  C   UNL     1      16.586  52.016  48.054  1.00  0.00     0.000 A 
HETATM   28  C   UNL     1      17.455  52.724  48.876  1.00  0.00     0.001 A 
HETATM   29  C   UNL     1      18.410  52.043  49.638  1.00  0.00     0.009 A 
ENDBRANCH   6  24
TORSDOF 6
ENDMDL
MODEL 8
REMARK VINA RESULT:      -6.9     13.190     14.941
REMARK  6 active torsions:
REMARK  status: ('A' for Active; 'I' for Inactive)
REMARK    1  A    between atoms: O_2  and  C_3 
REMARK    2  A    between atoms: C_3  and  C_4 
REMARK    3  A    between atoms: C_4  and  N_5 
REMARK       I    between atoms: N_5  and  C_6 
REMARK    4  A    between atoms: C_6  and  C_7 
REMARK    5  A    between atoms: C_12  and  C_13 
REMARK    6  A    between atoms: C_20  and  C_21 
ROOT
HETATM    1  C   UNL     1      21.252  48.903  48.146  1.00  0.00     0.165 A 
HETATM    2  N   UNL     1      20.560  49.973  48.613  1.00  0.00    -0.163 NA
HETATM    3  N   UNL     1      19.301  49.759  48.194  1.00  0.00    -0.238 N 
HETATM    4  C   UNL     1      19.170  48.661  47.385  1.00  0.00     0.141 A 
HETATM    5  N   UNL     1      18.000  48.394  46.748  1.00  0.00    -0.365 N 
HETATM    6  C   UNL     1      16.981  49.438  46.623  1.00  0.00     0.118 C 
HETATM    7  C   UNL     1      16.881  50.163  47.975  1.00  0.00     0.066 C 
HETATM    8  C   UNL     1      18.244  50.733  48.417  1.00  0.00     0.221 C 
HETATM    9  C   UNL     1      20.402  48.058  47.389  1.00  0.00     0.092 A 
HETATM   10 BR   UNL     1      20.874  46.493  46.474  1.00  0.00    -0.044 Br
HETATM   11  H   UNL     1      17.988  47.696  46.003  1.00  0.00     0.162 HD
ENDROOT
BRANCH   1  12
HETATM   12  C   UNL     1      22.694  48.770  48.416  1.00  0.00     0.273 C 
HETATM   13  N   UNL     1      22.963  48.050  49.559  1.00  0.00    -0.353 N 
HETATM   14  H   UNL     1      22.166  47.571  49.978  1.00  0.00     0.162 HD
HETATM   15  O   UNL     1      23.571  49.254  47.709  1.00  0.00    -0.266 OA
BRANCH  13  16
HETATM   16  C   UNL     1      24.297  47.653  49.951  1.00  0.00     0.149 C 
BRANCH  16  17
HETATM   17  C   UNL     1      24.547  46.175  49.653  1.00  0.00     0.186 C 
BRANCH  17  18
HETATM   18  O   UNL     1      25.919  45.996  49.286  1.00  0.00    -0.394 OA
HETATM   19  C   UNL     1      26.400  44.716  49.674  1.00  0.00     0.201 C 
ENDBRANCH  17  18
ENDBRANCH  16  17
ENDBRANCH  13  16
ENDBRANCH   1  12
BRANCH   8  20
HETATM   20  C   UNL     1      18.168  51.152  49.869  1.00  0.00     0.409 C 
HETATM   21  F   UNL     1      19.133  52.040  50.200  1.00  0.00    -0.169 F 
HETATM   22  F   UNL     1      16.974  51.676  50.215  1.00  0.00    -0.169 F 
HETATM   23  F   UNL     1      18.351  50.066  50.668  1.00  0.00    -0.169 F 
ENDBRANCH   8  20
BRANCH   6  24
HETATM   24  C   UNL     1      17.213  50.382  45.448  1.00  0.00    -0.035 A 
HETATM   25  C   UNL     1      18.053  50.074  44.365  1.00  0.00     0.009 A 
HETATM   26  C   UNL     1      18.246  50.981  43.318  1.00  0.00     0.001 A 
HETATM   27  C   UNL     1      17.594  52.210  43.329  1.00  0.00     0.000 A 
HETATM   28  C   UNL     1      16.743  52.530  44.381  1.00  0.00     0.001 A 
HETATM   29  C   UNL     1      16.549  51.623  45.427  1.00  0.00     0.009 A 
ENDBRANCH   6  24
TORSDOF 6
ENDMDL
MODEL 9
REMARK VINA RESULT:      -6.8     12.978     14.952
REMARK  6 active torsions:
REMARK  status: ('A' for Active; 'I' for Inactive)
REMARK    1  A    between atoms: O_2  and  C_3 
REMARK    2  A    between atoms: C_3  and  C_4 
REMARK    3  A    between atoms: C_4  and  N_5 
REMARK       I    between atoms: N_5  and  C_6 
REMARK    4  A    between atoms: C_6  and  C_7 
REMARK    5  A    between atoms: C_12  and  C_13 
REMARK    6  A    between atoms: C_20  and  C_21 
ROOT
HETATM    1  C   UNL     1      22.414  48.129  48.810  1.00  0.00     0.165 A 
HETATM    2  N   UNL     1      21.228  47.473  48.734  1.00  0.00    -0.163 NA
HETATM    3  N   UNL     1      20.502  48.205  47.872  1.00  0.00    -0.238 N 
HETATM    4  C   UNL     1      21.122  49.360  47.473  1.00  0.00     0.141 A 
HETATM    5  N   UNL     1      20.465  50.290  46.731  1.00  0.00    -0.365 N 
HETATM    6  C   UNL     1      19.004  50.252  46.641  1.00  0.00     0.118 C 
HETATM    7  C   UNL     1      18.581  48.787  46.446  1.00  0.00     0.066 C 
HETATM    8  C   UNL     1      19.115  47.886  47.577  1.00  0.00     0.221 C 
HETATM    9  C   UNL     1      22.380  49.303  48.017  1.00  0.00     0.092 A 
HETATM   10 BR   UNL     1      23.729  50.589  47.828  1.00  0.00    -0.044 Br
HETATM   11  H   UNL     1      20.875  51.217  46.621  1.00  0.00     0.162 HD
ENDROOT
BRANCH   1  12
HETATM   12  C   UNL     1      23.499  47.616  49.666  1.00  0.00     0.273 C 
HETATM   13  N   UNL     1      23.583  46.241  49.661  1.00  0.00    -0.353 N 
HETATM   14  H   UNL     1      23.013  45.765  48.964  1.00  0.00     0.162 HD
HETATM   15  O   UNL     1      24.247  48.330  50.324  1.00  0.00    -0.266 OA
BRANCH  13  16
HETATM   16  C   UNL     1      24.657  45.510  50.297  1.00  0.00     0.149 C 
BRANCH  16  17
HETATM   17  C   UNL     1      25.449  44.690  49.280  1.00  0.00     0.186 C 
BRANCH  17  18
HETATM   18  O   UNL     1      26.848  44.926  49.473  1.00  0.00    -0.394 OA
HETATM   19  C   UNL     1      27.299  44.405  50.716  1.00  0.00     0.201 C 
ENDBRANCH  17  18
ENDBRANCH  16  17
ENDBRANCH  13  16
ENDBRANCH   1  12
BRANCH   8  20
HETATM   20  C   UNL     1      18.947  46.433  47.185  1.00  0.00     0.409 C 
HETATM   21  F   UNL     1      17.838  46.226  46.440  1.00  0.00    -0.169 F 
HETATM   22  F   UNL     1      20.006  45.931  46.518  1.00  0.00    -0.169 F 
HETATM   23  F   UNL     1      18.808  45.672  48.304  1.00  0.00    -0.169 F 
ENDBRANCH   8  20
BRANCH   6  24
HETATM   24  C   UNL     1      18.300  50.932  47.811  1.00  0.00    -0.035 A 
HETATM   25  C   UNL     1      18.974  51.708  48.770  1.00  0.00     0.009 A 
HETATM   26  C   UNL     1      18.286  52.298  49.835  1.00  0.00     0.001 A 
HETATM   27  C   UNL     1      16.910  52.133  49.956  1.00  0.00     0.000 A 
HETATM   28  C   UNL     1      16.219  51.385  49.009  1.00  0.00     0.001 A 
HETATM   29  C   UNL     1      16.906  50.796  47.944  1.00  0.00     0.009 A 
ENDBRANCH   6  24
TORSDOF 6
ENDMDL
MODEL 10
REMARK VINA RESULT:      -6.8      3.947      6.986
REMARK  6 active torsions:
REMARK  status: ('A' for Active; 'I' for Inactive)
REMARK    1  A    between atoms: O_2  and  C_3 
REMARK    2  A    between atoms: C_3  and  C_4 
REMARK    3  A    between atoms: C_4  and  N_5 
REMARK       I    between atoms: N_5  and  C_6 
REMARK    4  A    between atoms: C_6  and  C_7 
REMARK    5  A    between atoms: C_12  and  C_13 
REMARK    6  A    between atoms: C_20  and  C_21 
ROOT
HETATM    1  C   UNL     1      30.299  51.172  39.395  1.00  0.00     0.165 A 
HETATM    2  N   UNL     1      30.981  50.006  39.526  1.00  0.00    -0.163 NA
HETATM    3  N   UNL     1      31.926  50.279  40.442  1.00  0.00    -0.238 N 
HETATM    4  C   UNL     1      31.957  51.594  40.825  1.00  0.00     0.141 A 
HETATM    5  N   UNL     1      32.951  52.071  41.620  1.00  0.00    -0.365 N 
HETATM    6  C   UNL     1      34.182  51.298  41.793  1.00  0.00     0.118 C 
HETATM    7  C   UNL     1      33.790  49.824  41.985  1.00  0.00     0.066 C 
HETATM    8  C   UNL     1      32.939  49.303  40.809  1.00  0.00     0.221 C 
HETATM    9  C   UNL     1      30.878  52.177  40.210  1.00  0.00     0.092 A 
HETATM   10 BR   UNL     1      30.362  53.972  40.344  1.00  0.00    -0.044 Br
HETATM   11  H   UNL     1      33.063  53.080  41.723  1.00  0.00     0.162 HD
ENDROOT
BRANCH   1  12
HETATM   12  C   UNL     1      29.156  51.270  38.470  1.00  0.00     0.273 C 
HETATM   13  N   UNL     1      28.076  50.513  38.867  1.00  0.00    -0.353 N 
HETATM   14  H   UNL     1      28.133  50.119  39.805  1.00  0.00     0.162 HD
HETATM   15  O   UNL     1      29.160  51.944  37.446  1.00  0.00    -0.266 OA
BRANCH  13  16
HETATM   16  C   UNL     1      26.788  50.563  38.211  1.00  0.00     0.149 C 
BRANCH  16  17
HETATM   17  C   UNL     1      25.825  49.533  38.799  1.00  0.00     0.186 C 
BRANCH  17  18
HETATM   18  O   UNL     1      26.580  48.459  39.371  1.00  0.00    -0.394 OA
HETATM   19  C   UNL     1      25.987  47.986  40.573  1.00  0.00     0.201 C 
ENDBRANCH  17  18
ENDBRANCH  16  17
ENDBRANCH  13  16
ENDBRANCH   1  12
BRANCH   8  20
HETATM   20  C   UNL     1      32.323  47.972  41.184  1.00  0.00     0.409 C 
HETATM   21  F   UNL     1      31.313  48.105  42.073  1.00  0.00    -0.169 F 
HETATM   22  F   UNL     1      31.866  47.274  40.125  1.00  0.00    -0.169 F 
HETATM   23  F   UNL     1      33.261  47.187  41.779  1.00  0.00    -0.169 F 
ENDBRANCH   8  20
BRANCH   6  24
HETATM   24  C   UNL     1      35.200  51.510  40.677  1.00  0.00    -0.035 A 
HETATM   25  C   UNL     1      36.121  50.526  40.276  1.00  0.00     0.009 A 
HETATM   26  C   UNL     1      37.046  50.774  39.258  1.00  0.00     0.001 A 
HETATM   27  C   UNL     1      37.063  52.007  38.614  1.00  0.00     0.000 A 
HETATM   28  C   UNL     1      36.150  52.990  38.980  1.00  0.00     0.001 A 
HETATM   29  C   UNL     1      35.224  52.741  39.997  1.00  0.00     0.009 A 
ENDBRANCH   6  24
TORSDOF 6
ENDMDL
