MODEL 1
REMARK VINA RESULT:     -10.0      0.000      0.000
REMARK  8 active torsions:
REMARK  status: ('A' for Active; 'I' for Inactive)
REMARK    1  A    between atoms: C_4  and  S_5 
REMARK    2  A    between atoms: S_5  and  C_6 
REMARK    3  A    between atoms: C_6  and  C_7 
REMARK       I    between atoms: C_7  and  N_8 
REMARK    4  A    between atoms: N_8  and  C_9 
REMARK    5  A    between atoms: C_20  and  C_21 
REMARK    6  A    between atoms: C_27  and  C_28 
REMARK       I    between atoms: C_28  and  N_29 
REMARK    7  A    between atoms: N_29  and  C_30 
REMARK    8  A    between atoms: C_31  and  O_32 
ROOT
HETATM    1  C   UNL     1      24.676  49.375  48.723  1.00  0.00     0.069 C 
HETATM    2  C   UNL     1      24.332  47.941  49.039  1.00  0.00     0.019 C 
HETATM    3  N   UNL     1      25.328  47.201  49.656  1.00  0.00    -0.353 N 
HETATM    4  C   UNL     1      25.161  45.930  50.173  1.00  0.00     0.087 C 
HETATM    5  C   UNL     1      24.014  45.259  49.917  1.00  0.00     0.055 C 
HETATM    6  C   UNL     1      23.865  43.778  50.224  1.00  0.00     0.019 C 
HETATM    7  N   UNL     1      23.743  42.549  50.478  1.00  0.00    -0.096 N 
HETATM    8  C   UNL     1      22.858  45.919  49.156  1.00  0.00     0.104 C 
HETATM    9  C   UNL     1      23.131  47.370  48.796  1.00  0.00     0.046 C 
HETATM   10  H   UNL     1      26.127  47.714  50.022  1.00  0.00     0.166 HD
ENDROOT
BRANCH   4  11
HETATM   11  S   UNL     1      26.373  45.289  51.259  1.00  0.00    -0.102 SA
BRANCH  11  12
HETATM   12  C   UNL     1      25.533  45.345  52.873  1.00  0.00     0.184 C 
BRANCH  12  13
HETATM   13  C   UNL     1      26.416  44.807  54.005  1.00  0.00     0.231 C 
HETATM   14  N   UNL     1      27.736  45.217  53.953  1.00  0.00    -0.326 N 
HETATM   15  H   UNL     1      27.981  45.772  53.138  1.00  0.00     0.169 HD
HETATM   16  O   UNL     1      25.921  44.103  54.882  1.00  0.00    -0.272 OA
BRANCH  14  17
HETATM   17  C   UNL     1      28.795  44.898  54.824  1.00  0.00     0.036 A 
HETATM   18  C   UNL     1      29.133  45.642  55.955  1.00  0.00     0.053 A 
HETATM   19  C   UNL     1      30.200  45.238  56.762  1.00  0.00     0.036 A 
HETATM   20 CL   UNL     1      30.617  46.163  58.155  1.00  0.00    -0.084 Cl
HETATM   21  C   UNL     1      30.936  44.095  56.457  1.00  0.00     0.024 A 
HETATM   22  C   UNL     1      30.605  43.348  55.329  1.00  0.00     0.004 A 
HETATM   23  C   UNL     1      29.543  43.751  54.516  1.00  0.00     0.029 A 
ENDBRANCH  14  17
ENDBRANCH  12  13
ENDBRANCH  11  12
ENDBRANCH   4  11
BRANCH   8  24
HETATM   24  C   UNL     1      22.446  45.075  47.950  1.00  0.00    -0.044 A 
HETATM   25  C   UNL     1      21.096  44.721  47.783  1.00  0.00     0.008 A 
HETATM   26  C   UNL     1      20.702  43.903  46.725  1.00  0.00     0.001 A 
HETATM   27  C   UNL     1      21.649  43.431  45.820  1.00  0.00     0.000 A 
HETATM   28  C   UNL     1      22.990  43.782  45.967  1.00  0.00     0.001 A 
HETATM   29  C   UNL     1      23.390  44.600  47.026  1.00  0.00     0.008 A 
ENDBRANCH   8  24
BRANCH   9  30
HETATM   30  C   UNL     1      21.960  48.230  48.461  1.00  0.00     0.255 C 
HETATM   31  N   UNL     1      21.404  48.856  49.555  1.00  0.00    -0.321 N 
HETATM   32  H   UNL     1      21.637  48.487  50.467  1.00  0.00     0.169 HD
HETATM   33  O   UNL     1      21.547  48.245  47.306  1.00  0.00    -0.268 OA
BRANCH  31  34
HETATM   34  C   UNL     1      20.361  49.810  49.508  1.00  0.00     0.068 A 
HETATM   35  C   UNL     1      19.037  49.561  49.926  1.00  0.00     0.095 A 
HETATM   36  C   UNL     1      18.107  50.610  49.914  1.00  0.00     0.039 A 
HETATM   37  C   UNL     1      18.469  51.874  49.446  1.00  0.00     0.003 A 
HETATM   38  C   UNL     1      19.753  52.096  48.957  1.00  0.00     0.002 A 
HETATM   39  C   UNL     1      20.691  51.065  48.978  1.00  0.00     0.032 A 
BRANCH  35  40
HETATM   40  O   UNL     1      18.695  48.259  50.192  1.00  0.00    -0.354 OA
HETATM   41  C   UNL     1      18.080  47.514  49.152  1.00  0.00     0.210 C 
ENDBRANCH  35  40
ENDBRANCH  31  34
ENDBRANCH   9  30
TORSDOF 8
ENDMDL
MODEL 2
REMARK VINA RESULT:      -9.3      5.515     10.011
REMARK  8 active torsions:
REMARK  status: ('A' for Active; 'I' for Inactive)
REMARK    1  A    between atoms: C_4  and  S_5 
REMARK    2  A    between atoms: S_5  and  C_6 
REMARK    3  A    between atoms: C_6  and  C_7 
REMARK       I    between atoms: C_7  and  N_8 
REMARK    4  A    between atoms: N_8  and  C_9 
REMARK    5  A    between atoms: C_20  and  C_21 
REMARK    6  A    between atoms: C_27  and  C_28 
REMARK       I    between atoms: C_28  and  N_29 
REMARK    7  A    between atoms: N_29  and  C_30 
REMARK    8  A    between atoms: C_31  and  O_32 
ROOT
HETATM    1  C   UNL     1      29.142  41.115  52.420  1.00  0.00     0.069 C 
HETATM    2  C   UNL     1      27.893  41.716  51.828  1.00  0.00     0.019 C 
HETATM    3  N   UNL     1      27.404  41.096  50.689  1.00  0.00    -0.353 N 
HETATM    4  C   UNL     1      26.191  41.386  50.092  1.00  0.00     0.087 C 
HETATM    5  C   UNL     1      25.490  42.465  50.512  1.00  0.00     0.055 C 
HETATM    6  C   UNL     1      24.293  42.995  49.739  1.00  0.00     0.019 C 
HETATM    7  N   UNL     1      23.301  43.433  49.097  1.00  0.00    -0.096 N 
HETATM    8  C   UNL     1      25.962  43.308  51.702  1.00  0.00     0.104 C 
HETATM    9  C   UNL     1      27.225  42.767  52.353  1.00  0.00     0.046 C 
HETATM   10  H   UNL     1      27.795  40.188  50.452  1.00  0.00     0.166 HD
ENDROOT
BRANCH   4  11
HETATM   11  S   UNL     1      25.534  40.269  48.917  1.00  0.00    -0.102 SA
BRANCH  11  12
HETATM   12  C   UNL     1      26.676  38.856  49.027  1.00  0.00     0.184 C 
BRANCH  12  13
HETATM   13  C   UNL     1      27.797  38.935  47.984  1.00  0.00     0.231 C 
HETATM   14  N   UNL     1      27.413  38.614  46.696  1.00  0.00    -0.326 N 
HETATM   15  H   UNL     1      26.451  38.301  46.601  1.00  0.00     0.169 HD
HETATM   16  O   UNL     1      28.920  39.302  48.324  1.00  0.00    -0.272 OA
BRANCH  14  17
HETATM   17  C   UNL     1      28.191  38.578  45.524  1.00  0.00     0.036 A 
HETATM   18  C   UNL     1      28.295  39.635  44.618  1.00  0.00     0.053 A 
HETATM   19  C   UNL     1      29.102  39.504  43.484  1.00  0.00     0.036 A 
HETATM   20 CL   UNL     1      29.222  40.809  42.365  1.00  0.00    -0.084 Cl
HETATM   21  C   UNL     1      29.814  38.330  43.243  1.00  0.00     0.024 A 
HETATM   22  C   UNL     1      29.715  37.272  44.143  1.00  0.00     0.004 A 
HETATM   23  C   UNL     1      28.905  37.396  45.274  1.00  0.00     0.029 A 
ENDBRANCH  14  17
ENDBRANCH  12  13
ENDBRANCH  11  12
ENDBRANCH   4  11
BRANCH   8  24
HETATM   24  C   UNL     1      26.077  44.783  51.316  1.00  0.00    -0.044 A 
HETATM   25  C   UNL     1      25.396  45.751  52.072  1.00  0.00     0.008 A 
HETATM   26  C   UNL     1      25.435  47.096  51.706  1.00  0.00     0.001 A 
HETATM   27  C   UNL     1      26.159  47.490  50.584  1.00  0.00     0.000 A 
HETATM   28  C   UNL     1      26.849  46.542  49.830  1.00  0.00     0.001 A 
HETATM   29  C   UNL     1      26.811  45.194  50.191  1.00  0.00     0.008 A 
ENDBRANCH   8  24
BRANCH   9  30
HETATM   30  C   UNL     1      27.532  43.216  53.742  1.00  0.00     0.255 C 
HETATM   31  N   UNL     1      28.699  43.941  53.842  1.00  0.00    -0.321 N 
HETATM   32  H   UNL     1      29.354  43.872  53.074  1.00  0.00     0.169 HD
HETATM   33  O   UNL     1      26.803  42.849  54.657  1.00  0.00    -0.268 OA
BRANCH  31  34
HETATM   34  C   UNL     1      29.167  44.578  55.015  1.00  0.00     0.068 A 
HETATM   35  C   UNL     1      28.517  45.658  55.646  1.00  0.00     0.095 A 
HETATM   36  C   UNL     1      29.027  46.153  56.854  1.00  0.00     0.039 A 
HETATM   37  C   UNL     1      30.196  45.620  57.402  1.00  0.00     0.003 A 
HETATM   38  C   UNL     1      30.882  44.610  56.735  1.00  0.00     0.002 A 
HETATM   39  C   UNL     1      30.376  44.099  55.541  1.00  0.00     0.032 A 
BRANCH  35  40
HETATM   40  O   UNL     1      27.490  46.260  54.964  1.00  0.00    -0.354 OA
HETATM   41  C   UNL     1      27.608  47.647  54.686  1.00  0.00     0.210 C 
ENDBRANCH  35  40
ENDBRANCH  31  34
ENDBRANCH   9  30
TORSDOF 8
ENDMDL
MODEL 3
REMARK VINA RESULT:      -9.3      2.878      5.570
REMARK  8 active torsions:
REMARK  status: ('A' for Active; 'I' for Inactive)
REMARK    1  A    between atoms: C_4  and  S_5 
REMARK    2  A    between atoms: S_5  and  C_6 
REMARK    3  A    between atoms: C_6  and  C_7 
REMARK       I    between atoms: C_7  and  N_8 
REMARK    4  A    between atoms: N_8  and  C_9 
REMARK    5  A    between atoms: C_20  and  C_21 
REMARK    6  A    between atoms: C_27  and  C_28 
REMARK       I    between atoms: C_28  and  N_29 
REMARK    7  A    between atoms: N_29  and  C_30 
REMARK    8  A    between atoms: C_31  and  O_32 
ROOT
HETATM    1  C   UNL     1      19.615  45.106  47.964  1.00  0.00     0.069 C 
HETATM    2  C   UNL     1      20.332  46.426  48.095  1.00  0.00     0.019 C 
HETATM    3  N   UNL     1      21.528  46.398  48.793  1.00  0.00    -0.353 N 
HETATM    4  C   UNL     1      22.414  47.457  48.884  1.00  0.00     0.087 C 
HETATM    5  C   UNL     1      22.036  48.673  48.428  1.00  0.00     0.055 C 
HETATM    6  C   UNL     1      22.840  49.928  48.728  1.00  0.00     0.019 C 
HETATM    7  N   UNL     1      23.507  50.968  48.977  1.00  0.00    -0.096 N 
HETATM    8  C   UNL     1      20.692  48.876  47.719  1.00  0.00     0.104 C 
HETATM    9  C   UNL     1      19.903  47.588  47.553  1.00  0.00     0.046 C 
HETATM   10  H   UNL     1      21.928  45.484  48.993  1.00  0.00     0.166 HD
ENDROOT
BRANCH   4  11
HETATM   11  S   UNL     1      24.041  47.157  49.451  1.00  0.00    -0.102 SA
BRANCH  11  12
HETATM   12  C   UNL     1      23.974  45.408  49.951  1.00  0.00     0.184 C 
BRANCH  12  13
HETATM   13  C   UNL     1      24.596  45.177  51.334  1.00  0.00     0.231 C 
HETATM   14  N   UNL     1      25.510  46.137  51.725  1.00  0.00    -0.326 N 
HETATM   15  H   UNL     1      25.712  46.846  51.025  1.00  0.00     0.169 HD
HETATM   16  O   UNL     1      24.237  44.215  52.010  1.00  0.00    -0.272 OA
BRANCH  14  17
HETATM   17  C   UNL     1      26.257  46.214  52.915  1.00  0.00     0.036 A 
HETATM   18  C   UNL     1      27.216  45.277  53.301  1.00  0.00     0.053 A 
HETATM   19  C   UNL     1      27.912  45.445  54.501  1.00  0.00     0.036 A 
HETATM   20 CL   UNL     1      29.091  44.283  54.978  1.00  0.00    -0.084 Cl
HETATM   21  C   UNL     1      27.665  46.544  55.324  1.00  0.00     0.024 A 
HETATM   22  C   UNL     1      26.709  47.482  54.944  1.00  0.00     0.004 A 
HETATM   23  C   UNL     1      26.008  47.315  53.749  1.00  0.00     0.029 A 
ENDBRANCH  14  17
ENDBRANCH  12  13
ENDBRANCH  11  12
ENDBRANCH   4  11
BRANCH   8  24
HETATM   24  C   UNL     1      19.882  49.985  48.392  1.00  0.00    -0.044 A 
HETATM   25  C   UNL     1      19.838  51.261  47.806  1.00  0.00     0.008 A 
HETATM   26  C   UNL     1      19.156  52.306  48.429  1.00  0.00     0.001 A 
HETATM   27  C   UNL     1      18.508  52.089  49.641  1.00  0.00     0.000 A 
HETATM   28  C   UNL     1      18.534  50.825  50.229  1.00  0.00     0.001 A 
HETATM   29  C   UNL     1      19.216  49.776  49.610  1.00  0.00     0.008 A 
ENDBRANCH   8  24
BRANCH   9  30
HETATM   30  C   UNL     1      18.823  47.567  46.525  1.00  0.00     0.255 C 
HETATM   31  N   UNL     1      17.559  47.433  47.056  1.00  0.00    -0.321 N 
HETATM   32  H   UNL     1      17.490  47.097  48.007  1.00  0.00     0.169 HD
HETATM   33  O   UNL     1      19.134  47.581  45.339  1.00  0.00    -0.268 OA
BRANCH  31  34
HETATM   34  C   UNL     1      16.353  47.496  46.320  1.00  0.00     0.068 A 
HETATM   35  C   UNL     1      15.227  48.254  46.702  1.00  0.00     0.095 A 
HETATM   36  C   UNL     1      14.117  48.310  45.848  1.00  0.00     0.039 A 
HETATM   37  C   UNL     1      14.102  47.582  44.656  1.00  0.00     0.003 A 
HETATM   38  C   UNL     1      15.180  46.770  44.321  1.00  0.00     0.002 A 
HETATM   39  C   UNL     1      16.296  46.719  45.154  1.00  0.00     0.032 A 
BRANCH  35  40
HETATM   40  O   UNL     1      15.227  48.789  47.966  1.00  0.00    -0.354 OA
HETATM   41  C   UNL     1      15.628  50.143  48.109  1.00  0.00     0.210 C 
ENDBRANCH  35  40
ENDBRANCH  31  34
ENDBRANCH   9  30
TORSDOF 8
ENDMDL
MODEL 4
REMARK VINA RESULT:      -9.1      3.902      9.408
REMARK  8 active torsions:
REMARK  status: ('A' for Active; 'I' for Inactive)
REMARK    1  A    between atoms: C_4  and  S_5 
REMARK    2  A    between atoms: S_5  and  C_6 
REMARK    3  A    between atoms: C_6  and  C_7 
REMARK       I    between atoms: C_7  and  N_8 
REMARK    4  A    between atoms: N_8  and  C_9 
REMARK    5  A    between atoms: C_20  and  C_21 
REMARK    6  A    between atoms: C_27  and  C_28 
REMARK       I    between atoms: C_28  and  N_29 
REMARK    7  A    between atoms: N_29  and  C_30 
REMARK    8  A    between atoms: C_31  and  O_32 
ROOT
HETATM    1  C   UNL     1      24.385  44.535  52.045  1.00  0.00     0.069 C 
HETATM    2  C   UNL     1      24.677  43.790  50.767  1.00  0.00     0.019 C 
HETATM    3  N   UNL     1      23.603  43.613  49.910  1.00  0.00    -0.353 N 
HETATM    4  C   UNL     1      23.693  43.107  48.626  1.00  0.00     0.087 C 
HETATM    5  C   UNL     1      24.863  42.568  48.209  1.00  0.00     0.055 C 
HETATM    6  C   UNL     1      24.963  41.764  46.923  1.00  0.00     0.019 C 
HETATM    7  N   UNL     1      25.046  41.098  45.857  1.00  0.00    -0.096 N 
HETATM    8  C   UNL     1      26.115  42.603  49.094  1.00  0.00     0.104 C 
HETATM    9  C   UNL     1      25.899  43.335  50.408  1.00  0.00     0.046 C 
HETATM   10  H   UNL     1      22.762  44.152  50.102  1.00  0.00     0.166 HD
ENDROOT
BRANCH   4  11
HETATM   11  S   UNL     1      22.340  43.310  47.536  1.00  0.00    -0.102 SA
BRANCH  11  12
HETATM   12  C   UNL     1      21.366  44.615  48.348  1.00  0.00     0.184 C 
BRANCH  12  13
HETATM   13  C   UNL     1      21.765  46.017  47.872  1.00  0.00     0.231 C 
HETATM   14  N   UNL     1      21.696  46.999  48.844  1.00  0.00    -0.326 N 
HETATM   15  H   UNL     1      21.328  46.690  49.739  1.00  0.00     0.169 HD
HETATM   16  O   UNL     1      22.147  46.183  46.716  1.00  0.00    -0.272 OA
BRANCH  14  17
HETATM   17  C   UNL     1      21.982  48.373  48.734  1.00  0.00     0.036 A 
HETATM   18  C   UNL     1      21.013  49.375  48.692  1.00  0.00     0.053 A 
HETATM   19  C   UNL     1      21.399  50.714  48.589  1.00  0.00     0.036 A 
HETATM   20 CL   UNL     1      20.198  51.949  48.531  1.00  0.00    -0.084 Cl
HETATM   21  C   UNL     1      22.746  51.069  48.531  1.00  0.00     0.024 A 
HETATM   22  C   UNL     1      23.718  50.073  48.572  1.00  0.00     0.004 A 
HETATM   23  C   UNL     1      23.337  48.733  48.670  1.00  0.00     0.029 A 
ENDBRANCH  14  17
ENDBRANCH  12  13
ENDBRANCH  11  12
ENDBRANCH   4  11
BRANCH   8  24
HETATM   24  C   UNL     1      26.688  41.198  49.284  1.00  0.00    -0.044 A 
HETATM   25  C   UNL     1      27.914  40.865  48.683  1.00  0.00     0.008 A 
HETATM   26  C   UNL     1      28.430  39.574  48.791  1.00  0.00     0.001 A 
HETATM   27  C   UNL     1      27.732  38.603  49.502  1.00  0.00     0.000 A 
HETATM   28  C   UNL     1      26.519  38.922  50.113  1.00  0.00     0.001 A 
HETATM   29  C   UNL     1      25.998  40.212  50.006  1.00  0.00     0.008 A 
ENDBRANCH   8  24
BRANCH   9  30
HETATM   30  C   UNL     1      27.107  43.813  51.139  1.00  0.00     0.255 C 
HETATM   31  N   UNL     1      27.241  43.270  52.398  1.00  0.00    -0.321 N 
HETATM   32  H   UNL     1      26.421  42.843  52.807  1.00  0.00     0.169 HD
HETATM   33  O   UNL     1      27.808  44.678  50.623  1.00  0.00    -0.268 OA
BRANCH  31  34
HETATM   34  C   UNL     1      28.347  43.464  53.257  1.00  0.00     0.068 A 
HETATM   35  C   UNL     1      28.391  44.418  54.294  1.00  0.00     0.095 A 
HETATM   36  C   UNL     1      29.508  44.461  55.139  1.00  0.00     0.039 A 
HETATM   37  C   UNL     1      30.591  43.604  54.928  1.00  0.00     0.003 A 
HETATM   38  C   UNL     1      30.581  42.719  53.855  1.00  0.00     0.002 A 
HETATM   39  C   UNL     1      29.469  42.656  53.017  1.00  0.00     0.032 A 
BRANCH  35  40
HETATM   40  O   UNL     1      27.388  45.354  54.331  1.00  0.00    -0.354 OA
HETATM   41  C   UNL     1      27.603  46.520  55.112  1.00  0.00     0.210 C 
ENDBRANCH  35  40
ENDBRANCH  31  34
ENDBRANCH   9  30
TORSDOF 8
ENDMDL
MODEL 5
REMARK VINA RESULT:      -8.9      1.797      2.101
REMARK  8 active torsions:
REMARK  status: ('A' for Active; 'I' for Inactive)
REMARK    1  A    between atoms: C_4  and  S_5 
REMARK    2  A    between atoms: S_5  and  C_6 
REMARK    3  A    between atoms: C_6  and  C_7 
REMARK       I    between atoms: C_7  and  N_8 
REMARK    4  A    between atoms: N_8  and  C_9 
REMARK    5  A    between atoms: C_20  and  C_21 
REMARK    6  A    between atoms: C_27  and  C_28 
REMARK       I    between atoms: C_28  and  N_29 
REMARK    7  A    between atoms: N_29  and  C_30 
REMARK    8  A    between atoms: C_31  and  O_32 
ROOT
HETATM    1  C   UNL     1      24.420  47.601  49.663  1.00  0.00     0.069 C 
HETATM    2  C   UNL     1      23.860  46.266  49.242  1.00  0.00     0.019 C 
HETATM    3  N   UNL     1      24.526  45.151  49.722  1.00  0.00    -0.353 N 
HETATM    4  C   UNL     1      24.082  43.848  49.590  1.00  0.00     0.087 C 
HETATM    5  C   UNL     1      23.024  43.590  48.786  1.00  0.00     0.055 C 
HETATM    6  C   UNL     1      22.646  42.173  48.386  1.00  0.00     0.019 C 
HETATM    7  N   UNL     1      22.333  40.998  48.055  1.00  0.00    -0.096 N 
HETATM    8  C   UNL     1      22.247  44.723  48.104  1.00  0.00     0.104 C 
HETATM    9  C   UNL     1      22.757  46.106  48.476  1.00  0.00     0.046 C 
HETATM   10  H   UNL     1      25.206  45.301  50.464  1.00  0.00     0.166 HD
ENDROOT
BRANCH   4  11
HETATM   11  S   UNL     1      24.806  42.599  50.576  1.00  0.00    -0.102 SA
BRANCH  11  12
HETATM   12  C   UNL     1      26.562  42.686  50.106  1.00  0.00     0.184 C 
BRANCH  12  13
HETATM   13  C   UNL     1      27.378  43.553  51.072  1.00  0.00     0.231 C 
HETATM   14  N   UNL     1      27.795  42.904  52.220  1.00  0.00    -0.326 N 
HETATM   15  H   UNL     1      27.459  41.951  52.319  1.00  0.00     0.169 HD
HETATM   16  O   UNL     1      27.642  44.716  50.774  1.00  0.00    -0.272 OA
BRANCH  14  17
HETATM   17  C   UNL     1      28.543  43.411  53.300  1.00  0.00     0.036 A 
HETATM   18  C   UNL     1      28.155  44.501  54.080  1.00  0.00     0.053 A 
HETATM   19  C   UNL     1      28.965  44.924  55.138  1.00  0.00     0.036 A 
HETATM   20 CL   UNL     1      28.486  46.274  56.095  1.00  0.00    -0.084 Cl
HETATM   21  C   UNL     1      30.160  44.269  55.431  1.00  0.00     0.024 A 
HETATM   22  C   UNL     1      30.553  43.181  54.656  1.00  0.00     0.004 A 
HETATM   23  C   UNL     1      29.750  42.758  53.594  1.00  0.00     0.029 A 
ENDBRANCH  14  17
ENDBRANCH  12  13
ENDBRANCH  11  12
ENDBRANCH   4  11
BRANCH   8  24
HETATM   24  C   UNL     1      22.175  44.504  46.593  1.00  0.00    -0.044 A 
HETATM   25  C   UNL     1      20.927  44.300  45.982  1.00  0.00     0.008 A 
HETATM   26  C   UNL     1      20.838  44.039  44.615  1.00  0.00     0.001 A 
HETATM   27  C   UNL     1      21.994  43.981  43.842  1.00  0.00     0.000 A 
HETATM   28  C   UNL     1      23.239  44.191  44.431  1.00  0.00     0.001 A 
HETATM   29  C   UNL     1      23.333  44.452  45.799  1.00  0.00     0.008 A 
ENDBRANCH   8  24
BRANCH   9  30
HETATM   30  C   UNL     1      21.845  47.263  48.245  1.00  0.00     0.255 C 
HETATM   31  N   UNL     1      21.192  47.686  49.382  1.00  0.00    -0.321 N 
HETATM   32  H   UNL     1      21.165  47.047  50.165  1.00  0.00     0.169 HD
HETATM   33  O   UNL     1      21.688  47.673  47.100  1.00  0.00    -0.268 OA
BRANCH  31  34
HETATM   34  C   UNL     1      20.360  48.827  49.469  1.00  0.00     0.068 A 
HETATM   35  C   UNL     1      18.956  48.779  49.588  1.00  0.00     0.095 A 
HETATM   36  C   UNL     1      18.242  49.973  49.755  1.00  0.00     0.039 A 
HETATM   37  C   UNL     1      18.904  51.203  49.750  1.00  0.00     0.003 A 
HETATM   38  C   UNL     1      20.280  51.253  49.550  1.00  0.00     0.002 A 
HETATM   39  C   UNL     1      21.003  50.071  49.399  1.00  0.00     0.032 A 
BRANCH  35  40
HETATM   40  O   UNL     1      18.348  47.564  49.394  1.00  0.00    -0.354 OA
HETATM   41  C   UNL     1      17.361  47.476  48.377  1.00  0.00     0.210 C 
ENDBRANCH  35  40
ENDBRANCH  31  34
ENDBRANCH   9  30
TORSDOF 8
ENDMDL
MODEL 6
REMARK VINA RESULT:      -8.8      5.053     10.343
REMARK  8 active torsions:
REMARK  status: ('A' for Active; 'I' for Inactive)
REMARK    1  A    between atoms: C_4  and  S_5 
REMARK    2  A    between atoms: S_5  and  C_6 
REMARK    3  A    between atoms: C_6  and  C_7 
REMARK       I    between atoms: C_7  and  N_8 
REMARK    4  A    between atoms: N_8  and  C_9 
REMARK    5  A    between atoms: C_20  and  C_21 
REMARK    6  A    between atoms: C_27  and  C_28 
REMARK       I    between atoms: C_28  and  N_29 
REMARK    7  A    between atoms: N_29  and  C_30 
REMARK    8  A    between atoms: C_31  and  O_32 
ROOT
HETATM    1  C   UNL     1      28.352  40.672  50.493  1.00  0.00     0.069 C 
HETATM    2  C   UNL     1      27.079  41.477  50.417  1.00  0.00     0.019 C 
HETATM    3  N   UNL     1      26.234  41.174  49.362  1.00  0.00    -0.353 N 
HETATM    4  C   UNL     1      24.954  41.676  49.206  1.00  0.00     0.087 C 
HETATM    5  C   UNL     1      24.533  42.672  50.020  1.00  0.00     0.055 C 
HETATM    6  C   UNL     1      23.255  43.447  49.745  1.00  0.00     0.019 C 
HETATM    7  N   UNL     1      22.194  44.089  49.516  1.00  0.00    -0.096 N 
HETATM    8  C   UNL     1      25.406  43.180  51.174  1.00  0.00     0.104 C 
HETATM    9  C   UNL     1      26.714  42.420  51.314  1.00  0.00     0.046 C 
HETATM   10  H   UNL     1      26.428  40.322  48.841  1.00  0.00     0.166 HD
ENDROOT
BRANCH   4  11
HETATM   11  S   UNL     1      23.874  40.910  48.063  1.00  0.00    -0.102 SA
BRANCH  11  12
HETATM   12  C   UNL     1      24.613  41.351  46.459  1.00  0.00     0.184 C 
BRANCH  12  13
HETATM   13  C   UNL     1      23.701  42.266  45.633  1.00  0.00     0.231 C 
HETATM   14  N   UNL     1      22.636  42.805  46.332  1.00  0.00    -0.326 N 
HETATM   15  H   UNL     1      22.546  42.482  47.291  1.00  0.00     0.169 HD
HETATM   16  O   UNL     1      23.971  42.494  44.456  1.00  0.00    -0.272 OA
BRANCH  14  17
HETATM   17  C   UNL     1      21.621  43.665  45.872  1.00  0.00     0.036 A 
HETATM   18  C   UNL     1      20.350  43.241  45.483  1.00  0.00     0.053 A 
HETATM   19  C   UNL     1      19.407  44.175  45.047  1.00  0.00     0.036 A 
HETATM   20 CL   UNL     1      17.840  43.646  44.562  1.00  0.00    -0.084 Cl
HETATM   21  C   UNL     1      19.715  45.533  44.997  1.00  0.00     0.024 A 
HETATM   22  C   UNL     1      20.981  45.963  45.382  1.00  0.00     0.004 A 
HETATM   23  C   UNL     1      21.929  45.033  45.814  1.00  0.00     0.029 A 
ENDBRANCH  14  17
ENDBRANCH  12  13
ENDBRANCH  11  12
ENDBRANCH   4  11
BRANCH   8  24
HETATM   24  C   UNL     1      25.605  44.694  51.082  1.00  0.00    -0.044 A 
HETATM   25  C   UNL     1      26.361  45.228  50.026  1.00  0.00     0.008 A 
HETATM   26  C   UNL     1      26.608  46.599  49.952  1.00  0.00     0.001 A 
HETATM   27  C   UNL     1      26.101  47.451  50.928  1.00  0.00     0.000 A 
HETATM   28  C   UNL     1      25.339  46.936  51.976  1.00  0.00     0.001 A 
HETATM   29  C   UNL     1      25.091  45.565  52.056  1.00  0.00     0.008 A 
ENDBRANCH   8  24
BRANCH   9  30
HETATM   30  C   UNL     1      27.429  42.511  52.619  1.00  0.00     0.255 C 
HETATM   31  N   UNL     1      28.341  43.542  52.677  1.00  0.00    -0.321 N 
HETATM   32  H   UNL     1      28.638  43.947  51.800  1.00  0.00     0.169 HD
HETATM   33  O   UNL     1      27.224  41.650  53.468  1.00  0.00    -0.268 OA
BRANCH  31  34
HETATM   34  C   UNL     1      29.072  43.922  53.828  1.00  0.00     0.068 A 
HETATM   35  C   UNL     1      28.750  45.024  54.646  1.00  0.00     0.095 A 
HETATM   36  C   UNL     1      29.495  45.253  55.810  1.00  0.00     0.039 A 
HETATM   37  C   UNL     1      30.577  44.432  56.133  1.00  0.00     0.003 A 
HETATM   38  C   UNL     1      30.944  43.395  55.282  1.00  0.00     0.002 A 
HETATM   39  C   UNL     1      30.202  43.147  54.129  1.00  0.00     0.032 A 
BRANCH  35  40
HETATM   40  O   UNL     1      27.804  45.900  54.177  1.00  0.00    -0.354 OA
HETATM   41  C   UNL     1      27.306  46.877  55.079  1.00  0.00     0.210 C 
ENDBRANCH  35  40
ENDBRANCH  31  34
ENDBRANCH   9  30
TORSDOF 8
ENDMDL
MODEL 7
REMARK VINA RESULT:      -8.7      6.599     11.117
REMARK  8 active torsions:
REMARK  status: ('A' for Active; 'I' for Inactive)
REMARK    1  A    between atoms: C_4  and  S_5 
REMARK    2  A    between atoms: S_5  and  C_6 
REMARK    3  A    between atoms: C_6  and  C_7 
REMARK       I    between atoms: C_7  and  N_8 
REMARK    4  A    between atoms: N_8  and  C_9 
REMARK    5  A    between atoms: C_20  and  C_21 
REMARK    6  A    between atoms: C_27  and  C_28 
REMARK       I    between atoms: C_28  and  N_29 
REMARK    7  A    between atoms: N_29  and  C_30 
REMARK    8  A    between atoms: C_31  and  O_32 
ROOT
HETATM    1  C   UNL     1      23.852  42.463  50.428  1.00  0.00     0.069 C 
HETATM    2  C   UNL     1      24.597  41.687  49.372  1.00  0.00     0.019 C 
HETATM    3  N   UNL     1      23.817  41.100  48.388  1.00  0.00    -0.353 N 
HETATM    4  C   UNL     1      24.309  40.490  47.249  1.00  0.00     0.087 C 
HETATM    5  C   UNL     1      25.641  40.271  47.142  1.00  0.00     0.055 C 
HETATM    6  C   UNL     1      26.222  39.381  46.055  1.00  0.00     0.019 C 
HETATM    7  N   UNL     1      26.704  38.643  45.154  1.00  0.00    -0.096 N 
HETATM    8  C   UNL     1      26.620  40.778  48.207  1.00  0.00     0.104 C 
HETATM    9  C   UNL     1      25.942  41.569  49.314  1.00  0.00     0.046 C 
HETATM   10  H   UNL     1      22.843  41.389  48.335  1.00  0.00     0.166 HD
ENDROOT
BRANCH   4  11
HETATM   11  S   UNL     1      23.217  40.155  45.925  1.00  0.00    -0.102 SA
BRANCH  11  12
HETATM   12  C   UNL     1      21.610  40.699  46.585  1.00  0.00     0.184 C 
BRANCH  12  13
HETATM   13  C   UNL     1      20.530  39.621  46.439  1.00  0.00     0.231 C 
HETATM   14  N   UNL     1      20.471  38.715  47.482  1.00  0.00    -0.326 N 
HETATM   15  H   UNL     1      21.191  38.830  48.190  1.00  0.00     0.169 HD
HETATM   16  O   UNL     1      19.779  39.639  45.466  1.00  0.00    -0.272 OA
BRANCH  14  17
HETATM   17  C   UNL     1      19.611  37.613  47.649  1.00  0.00     0.036 A 
HETATM   18  C   UNL     1      19.930  36.306  47.278  1.00  0.00     0.053 A 
HETATM   19  C   UNL     1      19.009  35.277  47.492  1.00  0.00     0.036 A 
HETATM   20 CL   UNL     1      19.404  33.666  47.027  1.00  0.00    -0.084 Cl
HETATM   21  C   UNL     1      17.770  35.535  48.078  1.00  0.00     0.024 A 
HETATM   22  C   UNL     1      17.446  36.837  48.449  1.00  0.00     0.004 A 
HETATM   23  C   UNL     1      18.361  37.869  48.232  1.00  0.00     0.029 A 
ENDBRANCH  14  17
ENDBRANCH  12  13
ENDBRANCH  11  12
ENDBRANCH   4  11
BRANCH   8  24
HETATM   24  C   UNL     1      27.488  39.637  48.739  1.00  0.00    -0.044 A 
HETATM   25  C   UNL     1      26.876  38.527  49.343  1.00  0.00     0.008 A 
HETATM   26  C   UNL     1      27.646  37.500  49.889  1.00  0.00     0.001 A 
HETATM   27  C   UNL     1      29.035  37.569  49.835  1.00  0.00     0.000 A 
HETATM   28  C   UNL     1      29.657  38.659  49.228  1.00  0.00     0.001 A 
HETATM   29  C   UNL     1      28.890  39.690  48.681  1.00  0.00     0.008 A 
ENDBRANCH   8  24
BRANCH   9  30
HETATM   30  C   UNL     1      26.797  42.465  50.144  1.00  0.00     0.255 C 
HETATM   31  N   UNL     1      26.976  42.016  51.434  1.00  0.00    -0.321 N 
HETATM   32  H   UNL     1      26.330  41.317  51.775  1.00  0.00     0.169 HD
HETATM   33  O   UNL     1      27.184  43.526  49.666  1.00  0.00    -0.268 OA
BRANCH  31  34
HETATM   34  C   UNL     1      27.827  42.611  52.396  1.00  0.00     0.068 A 
HETATM   35  C   UNL     1      27.411  43.573  53.338  1.00  0.00     0.095 A 
HETATM   36  C   UNL     1      28.323  44.029  54.300  1.00  0.00     0.039 A 
HETATM   37  C   UNL     1      29.644  43.575  54.296  1.00  0.00     0.003 A 
HETATM   38  C   UNL     1      30.074  42.688  53.315  1.00  0.00     0.002 A 
HETATM   39  C   UNL     1      29.172  42.216  52.362  1.00  0.00     0.032 A 
BRANCH  35  40
HETATM   40  O   UNL     1      26.163  44.119  53.172  1.00  0.00    -0.354 OA
HETATM   41  C   UNL     1      25.349  44.267  54.326  1.00  0.00     0.210 C 
ENDBRANCH  35  40
ENDBRANCH  31  34
ENDBRANCH   9  30
TORSDOF 8
ENDMDL
MODEL 8
REMARK VINA RESULT:      -8.7      3.179      5.719
REMARK  8 active torsions:
REMARK  status: ('A' for Active; 'I' for Inactive)
REMARK    1  A    between atoms: C_4  and  S_5 
REMARK    2  A    between atoms: S_5  and  C_6 
REMARK    3  A    between atoms: C_6  and  C_7 
REMARK       I    between atoms: C_7  and  N_8 
REMARK    4  A    between atoms: N_8  and  C_9 
REMARK    5  A    between atoms: C_20  and  C_21 
REMARK    6  A    between atoms: C_27  and  C_28 
REMARK       I    between atoms: C_28  and  N_29 
REMARK    7  A    between atoms: N_29  and  C_30 
REMARK    8  A    between atoms: C_31  and  O_32 
ROOT
HETATM    1  C   UNL     1      19.767  45.040  48.337  1.00  0.00     0.069 C 
HETATM    2  C   UNL     1      20.522  46.344  48.385  1.00  0.00     0.019 C 
HETATM    3  N   UNL     1      21.724  46.322  49.075  1.00  0.00    -0.353 N 
HETATM    4  C   UNL     1      22.640  47.358  49.097  1.00  0.00     0.087 C 
HETATM    5  C   UNL     1      22.293  48.557  48.573  1.00  0.00     0.055 C 
HETATM    6  C   UNL     1      23.135  49.803  48.793  1.00  0.00     0.019 C 
HETATM    7  N   UNL     1      23.834  50.836  48.976  1.00  0.00    -0.096 N 
HETATM    8  C   UNL     1      20.948  48.757  47.864  1.00  0.00     0.104 C 
HETATM    9  C   UNL     1      20.122  47.484  47.779  1.00  0.00     0.046 C 
HETATM   10  H   UNL     1      22.099  45.410  49.324  1.00  0.00     0.166 HD
ENDROOT
BRANCH   4  11
HETATM   11  S   UNL     1      24.263  47.045  49.669  1.00  0.00    -0.102 SA
BRANCH  11  12
HETATM   12  C   UNL     1      24.257  45.242  49.919  1.00  0.00     0.184 C 
BRANCH  12  13
HETATM   13  C   UNL     1      24.885  44.842  51.259  1.00  0.00     0.231 C 
HETATM   14  N   UNL     1      26.248  45.055  51.347  1.00  0.00    -0.326 N 
HETATM   15  H   UNL     1      26.685  45.391  50.492  1.00  0.00     0.169 HD
HETATM   16  O   UNL     1      24.171  44.408  52.161  1.00  0.00    -0.272 OA
BRANCH  14  17
HETATM   17  C   UNL     1      27.118  44.790  52.421  1.00  0.00     0.036 A 
HETATM   18  C   UNL     1      28.205  43.918  52.355  1.00  0.00     0.053 A 
HETATM   19  C   UNL     1      29.015  43.727  53.477  1.00  0.00     0.036 A 
HETATM   20 CL   UNL     1      30.353  42.644  53.392  1.00  0.00    -0.084 Cl
HETATM   21  C   UNL     1      28.757  44.401  54.670  1.00  0.00     0.024 A 
HETATM   22  C   UNL     1      27.674  45.272  54.743  1.00  0.00     0.004 A 
HETATM   23  C   UNL     1      26.858  45.462  53.626  1.00  0.00     0.029 A 
ENDBRANCH  14  17
ENDBRANCH  12  13
ENDBRANCH  11  12
ENDBRANCH   4  11
BRANCH   8  24
HETATM   24  C   UNL     1      20.177  49.926  48.476  1.00  0.00    -0.044 A 
HETATM   25  C   UNL     1      19.472  49.737  49.676  1.00  0.00     0.008 A 
HETATM   26  C   UNL     1      18.712  50.770  50.224  1.00  0.00     0.001 A 
HETATM   27  C   UNL     1      18.650  52.003  49.583  1.00  0.00     0.000 A 
HETATM   28  C   UNL     1      19.353  52.210  48.396  1.00  0.00     0.001 A 
HETATM   29  C   UNL     1      20.114  51.179  47.843  1.00  0.00     0.008 A 
ENDBRANCH   8  24
BRANCH   9  30
HETATM   30  C   UNL     1      19.033  47.434  46.762  1.00  0.00     0.255 C 
HETATM   31  N   UNL     1      19.479  47.164  45.487  1.00  0.00    -0.321 N 
HETATM   32  H   UNL     1      20.465  47.294  45.305  1.00  0.00     0.169 HD
HETATM   33  O   UNL     1      17.889  47.712  47.106  1.00  0.00    -0.268 OA
BRANCH  31  34
HETATM   34  C   UNL     1      18.652  46.951  44.360  1.00  0.00     0.068 A 
HETATM   35  C   UNL     1      18.108  45.702  43.997  1.00  0.00     0.095 A 
HETATM   36  C   UNL     1      17.230  45.628  42.907  1.00  0.00     0.039 A 
HETATM   37  C   UNL     1      16.935  46.767  42.155  1.00  0.00     0.003 A 
HETATM   38  C   UNL     1      17.536  47.983  42.464  1.00  0.00     0.002 A 
HETATM   39  C   UNL     1      18.400  48.072  43.555  1.00  0.00     0.032 A 
BRANCH  35  40
HETATM   40  O   UNL     1      18.583  44.595  44.653  1.00  0.00    -0.354 OA
HETATM   41  C   UNL     1      18.228  43.320  44.136  1.00  0.00     0.210 C 
ENDBRANCH  35  40
ENDBRANCH  31  34
ENDBRANCH   9  30
TORSDOF 8
ENDMDL
MODEL 9
REMARK VINA RESULT:      -8.6      4.755      9.870
REMARK  8 active torsions:
REMARK  status: ('A' for Active; 'I' for Inactive)
REMARK    1  A    between atoms: C_4  and  S_5 
REMARK    2  A    between atoms: S_5  and  C_6 
REMARK    3  A    between atoms: C_6  and  C_7 
REMARK       I    between atoms: C_7  and  N_8 
REMARK    4  A    between atoms: N_8  and  C_9 
REMARK    5  A    between atoms: C_20  and  C_21 
REMARK    6  A    between atoms: C_27  and  C_28 
REMARK       I    between atoms: C_28  and  N_29 
REMARK    7  A    between atoms: N_29  and  C_30 
REMARK    8  A    between atoms: C_31  and  O_32 
ROOT
HETATM    1  C   UNL     1      23.967  43.075  50.826  1.00  0.00     0.069 C 
HETATM    2  C   UNL     1      24.587  42.341  49.664  1.00  0.00     0.019 C 
HETATM    3  N   UNL     1      23.708  41.898  48.689  1.00  0.00    -0.353 N 
HETATM    4  C   UNL     1      24.084  41.354  47.474  1.00  0.00     0.087 C 
HETATM    5  C   UNL     1      25.387  41.051  47.263  1.00  0.00     0.055 C 
HETATM    6  C   UNL     1      25.834  40.219  46.072  1.00  0.00     0.019 C 
HETATM    7  N   UNL     1      26.204  39.529  45.084  1.00  0.00    -0.096 N 
HETATM    8  C   UNL     1      26.463  41.394  48.300  1.00  0.00     0.104 C 
HETATM    9  C   UNL     1      25.913  42.134  49.509  1.00  0.00     0.046 C 
HETATM   10  H   UNL     1      22.757  42.258  48.723  1.00  0.00     0.166 HD
ENDROOT
BRANCH   4  11
HETATM   11  S   UNL     1      22.894  41.212  46.201  1.00  0.00    -0.102 SA
BRANCH  11  12
HETATM   12  C   UNL     1      22.812  42.905  45.539  1.00  0.00     0.184 C 
BRANCH  12  13
HETATM   13  C   UNL     1      22.012  43.845  46.449  1.00  0.00     0.231 C 
HETATM   14  N   UNL     1      22.216  45.192  46.212  1.00  0.00    -0.326 N 
HETATM   15  H   UNL     1      22.919  45.401  45.509  1.00  0.00     0.169 HD
HETATM   16  O   UNL     1      21.236  43.375  47.278  1.00  0.00    -0.272 OA
BRANCH  14  17
HETATM   17  C   UNL     1      21.650  46.300  46.869  1.00  0.00     0.036 A 
HETATM   18  C   UNL     1      20.479  46.941  46.462  1.00  0.00     0.053 A 
HETATM   19  C   UNL     1      19.993  48.032  47.187  1.00  0.00     0.036 A 
HETATM   20 CL   UNL     1      18.550  48.824  46.678  1.00  0.00    -0.084 Cl
HETATM   21  C   UNL     1      20.660  48.492  48.322  1.00  0.00     0.024 A 
HETATM   22  C   UNL     1      21.829  47.858  48.733  1.00  0.00     0.004 A 
HETATM   23  C   UNL     1      22.322  46.771  48.008  1.00  0.00     0.029 A 
ENDBRANCH  14  17
ENDBRANCH  12  13
ENDBRANCH  11  12
ENDBRANCH   4  11
BRANCH   8  24
HETATM   24  C   UNL     1      27.271  40.153  48.679  1.00  0.00    -0.044 A 
HETATM   25  C   UNL     1      26.619  39.055  49.264  1.00  0.00     0.008 A 
HETATM   26  C   UNL     1      27.341  37.935  49.674  1.00  0.00     0.001 A 
HETATM   27  C   UNL     1      28.722  37.896  49.501  1.00  0.00     0.000 A 
HETATM   28  C   UNL     1      29.382  38.974  48.912  1.00  0.00     0.001 A 
HETATM   29  C   UNL     1      28.663  40.098  48.502  1.00  0.00     0.008 A 
ENDBRANCH   8  24
BRANCH   9  30
HETATM   30  C   UNL     1      26.881  42.892  50.352  1.00  0.00     0.255 C 
HETATM   31  N   UNL     1      27.057  42.355  51.609  1.00  0.00    -0.321 N 
HETATM   32  H   UNL     1      26.356  41.705  51.936  1.00  0.00     0.169 HD
HETATM   33  O   UNL     1      27.357  43.935  49.916  1.00  0.00    -0.268 OA
BRANCH  31  34
HETATM   34  C   UNL     1      27.995  42.807  52.566  1.00  0.00     0.068 A 
HETATM   35  C   UNL     1      27.701  43.725  53.595  1.00  0.00     0.095 A 
HETATM   36  C   UNL     1      28.688  44.034  54.541  1.00  0.00     0.039 A 
HETATM   37  C   UNL     1      29.966  43.481  54.438  1.00  0.00     0.003 A 
HETATM   38  C   UNL     1      30.279  42.640  53.375  1.00  0.00     0.002 A 
HETATM   39  C   UNL     1      29.301  42.313  52.437  1.00  0.00     0.032 A 
BRANCH  35  40
HETATM   40  O   UNL     1      26.495  44.376  53.532  1.00  0.00    -0.354 OA
HETATM   41  C   UNL     1      26.483  45.691  52.996  1.00  0.00     0.210 C 
ENDBRANCH  35  40
ENDBRANCH  31  34
ENDBRANCH   9  30
TORSDOF 8
ENDMDL
MODEL 10
REMARK VINA RESULT:      -8.4      2.702      3.692
REMARK  8 active torsions:
REMARK  status: ('A' for Active; 'I' for Inactive)
REMARK    1  A    between atoms: C_4  and  S_5 
REMARK    2  A    between atoms: S_5  and  C_6 
REMARK    3  A    between atoms: C_6  and  C_7 
REMARK       I    between atoms: C_7  and  N_8 
REMARK    4  A    between atoms: N_8  and  C_9 
REMARK    5  A    between atoms: C_20  and  C_21 
REMARK    6  A    between atoms: C_27  and  C_28 
REMARK       I    between atoms: C_28  and  N_29 
REMARK    7  A    between atoms: N_29  and  C_30 
REMARK    8  A    between atoms: C_31  and  O_32 
ROOT
HETATM    1  C   UNL     1      24.292  45.699  50.256  1.00  0.00     0.069 C 
HETATM    2  C   UNL     1      24.279  44.367  49.548  1.00  0.00     0.019 C 
HETATM    3  N   UNL     1      25.488  43.692  49.506  1.00  0.00    -0.353 N 
HETATM    4  C   UNL     1      25.653  42.396  49.053  1.00  0.00     0.087 C 
HETATM    5  C   UNL     1      24.622  41.777  48.433  1.00  0.00     0.055 C 
HETATM    6  C   UNL     1      24.804  40.468  47.683  1.00  0.00     0.019 C 
HETATM    7  N   UNL     1      24.957  39.382  47.062  1.00  0.00    -0.096 N 
HETATM    8  C   UNL     1      23.246  42.446  48.316  1.00  0.00     0.104 C 
HETATM    9  C   UNL     1      23.180  43.800  49.004  1.00  0.00     0.046 C 
HETATM   10  H   UNL     1      26.233  44.036  50.108  1.00  0.00     0.166 HD
ENDROOT
BRANCH   4  11
HETATM   11  S   UNL     1      27.137  41.548  49.425  1.00  0.00    -0.102 SA
BRANCH  11  12
HETATM   12  C   UNL     1      27.090  41.438  51.242  1.00  0.00     0.184 C 
BRANCH  12  13
HETATM   13  C   UNL     1      27.786  42.627  51.913  1.00  0.00     0.231 C 
HETATM   14  N   UNL     1      28.073  42.449  53.254  1.00  0.00    -0.326 N 
HETATM   15  H   UNL     1      27.731  41.579  53.652  1.00  0.00     0.169 HD
HETATM   16  O   UNL     1      28.077  43.618  51.247  1.00  0.00    -0.272 OA
BRANCH  14  17
HETATM   17  C   UNL     1      28.690  43.339  54.152  1.00  0.00     0.036 A 
HETATM   18  C   UNL     1      28.124  44.539  54.582  1.00  0.00     0.053 A 
HETATM   19  C   UNL     1      28.815  45.353  55.483  1.00  0.00     0.036 A 
HETATM   20 CL   UNL     1      28.114  46.837  56.007  1.00  0.00    -0.084 Cl
HETATM   21  C   UNL     1      30.068  44.982  55.967  1.00  0.00     0.024 A 
HETATM   22  C   UNL     1      30.640  43.786  55.542  1.00  0.00     0.004 A 
HETATM   23  C   UNL     1      29.955  42.972  54.637  1.00  0.00     0.029 A 
ENDBRANCH  14  17
ENDBRANCH  12  13
ENDBRANCH  11  12
ENDBRANCH   4  11
BRANCH   8  24
HETATM   24  C   UNL     1      22.785  42.496  46.859  1.00  0.00    -0.044 A 
HETATM   25  C   UNL     1      23.324  43.465  45.997  1.00  0.00     0.008 A 
HETATM   26  C   UNL     1      22.877  43.571  44.680  1.00  0.00     0.001 A 
HETATM   27  C   UNL     1      21.892  42.708  44.208  1.00  0.00     0.000 A 
HETATM   28  C   UNL     1      21.356  41.734  45.049  1.00  0.00     0.001 A 
HETATM   29  C   UNL     1      21.798  41.625  46.369  1.00  0.00     0.008 A 
ENDBRANCH   8  24
BRANCH   9  30
HETATM   30  C   UNL     1      21.830  44.338  49.339  1.00  0.00     0.255 C 
HETATM   31  N   UNL     1      21.369  45.271  48.437  1.00  0.00    -0.321 N 
HETATM   32  H   UNL     1      22.050  45.697  47.823  1.00  0.00     0.169 HD
HETATM   33  O   UNL     1      21.298  43.991  50.388  1.00  0.00    -0.268 OA
BRANCH  31  34
HETATM   34  C   UNL     1      20.081  45.856  48.453  1.00  0.00     0.068 A 
HETATM   35  C   UNL     1      18.909  45.211  48.007  1.00  0.00     0.095 A 
HETATM   36  C   UNL     1      17.674  45.857  48.151  1.00  0.00     0.039 A 
HETATM   37  C   UNL     1      17.606  47.146  48.683  1.00  0.00     0.003 A 
HETATM   38  C   UNL     1      18.771  47.814  49.047  1.00  0.00     0.002 A 
HETATM   39  C   UNL     1      20.004  47.175  48.922  1.00  0.00     0.032 A 
BRANCH  35  40
HETATM   40  O   UNL     1      19.062  44.032  47.321  1.00  0.00    -0.354 OA
HETATM   41  C   UNL     1      18.724  44.023  45.943  1.00  0.00     0.210 C 
ENDBRANCH  35  40
ENDBRANCH  31  34
ENDBRANCH   9  30
TORSDOF 8
ENDMDL
