MODEL 1
REMARK VINA RESULT:      -9.8      0.000      0.000
REMARK  10 active torsions:
REMARK  status: ('A' for Active; 'I' for Inactive)
REMARK    1  A    between atoms: C_2  and  N_3 
REMARK    2  A    between atoms: N_3  and  C_4 
REMARK    3  A    between atoms: N_3  and  C_37 
REMARK    4  A    between atoms: C_7  and  C_8 
REMARK    5  A    between atoms: N_9  and  C_11 
REMARK    6  A    between atoms: C_11  and  C_12 
REMARK       I    between atoms: C_12  and  N_13 
REMARK    7  A    between atoms: N_13  and  C_14 
REMARK    8  A    between atoms: C_20  and  C_21 
REMARK    9  A    between atoms: C_21  and  O_22 
REMARK   10  A    between atoms: C_28  and  O_29 
ROOT
HETATM    1  C   UNL     1      26.890  44.582  50.724  1.00  0.00     0.228 C 
HETATM    2  N   UNL     1      25.662  45.512  50.858  1.00  0.00    -0.054 N 
HETATM    3  H   UNL     1      25.974  46.232  51.528  1.00  0.00     0.281 HD
HETATM    4  C   UNL     1      24.429  44.826  51.404  1.00  0.00     0.239 C 
HETATM    5  C   UNL     1      24.043  43.624  50.558  1.00  0.00     0.066 C 
HETATM    6  C   UNL     1      25.205  42.632  50.418  1.00  0.00     0.065 C 
HETATM    7  C   UNL     1      26.450  43.353  49.854  1.00  0.00     0.055 C 
HETATM    8  C   UNL     1      24.764  41.461  49.517  1.00  0.00     0.038 C 
HETATM    9  C   UNL     1      25.906  40.513  49.152  1.00  0.00     0.003 C 
HETATM   10  C   UNL     1      27.089  41.267  48.561  1.00  0.00     0.001 C 
HETATM   11  C   UNL     1      27.574  42.357  49.516  1.00  0.00     0.010 C 
ENDROOT
BRANCH   2  12
HETATM   12  C   UNL     1      25.325  46.322  49.597  1.00  0.00     0.338 C 
BRANCH  12  13
HETATM   13  C   UNL     1      24.232  47.372  49.789  1.00  0.00     0.248 C 
HETATM   14  N   UNL     1      23.313  47.346  48.760  1.00  0.00    -0.319 N 
HETATM   15  H   UNL     1      23.469  46.719  47.967  1.00  0.00     0.169 HD
HETATM   16  O   UNL     1      24.276  48.102  50.774  1.00  0.00    -0.271 OA
BRANCH  14  17
HETATM   17  C   UNL     1      22.163  48.109  48.614  1.00  0.00     0.094 A 
HETATM   18  S   UNL     1      20.634  47.399  48.539  1.00  0.00    -0.076 SA
HETATM   19  C   UNL     1      19.862  48.905  48.317  1.00  0.00    -0.012 A 
HETATM   20  C   UNL     1      18.375  48.936  48.152  1.00  0.00     0.057 C 
HETATM   21  C   UNL     1      20.758  49.965  48.339  1.00  0.00    -0.030 A 
HETATM   22  C   UNL     1      20.358  51.405  48.214  1.00  0.00     0.050 C 
HETATM   23  C   UNL     1      22.127  49.493  48.487  1.00  0.00     0.080 A 
BRANCH  23  24
HETATM   24  C   UNL     1      23.369  50.282  48.519  1.00  0.00     0.296 C 
HETATM   25  O   UNL     1      23.593  51.092  49.419  1.00  0.00    -0.259 OA
BRANCH  24  26
HETATM   26  O   UNL     1      24.219  50.021  47.493  1.00  0.00    -0.322 OA
HETATM   27  C   UNL     1      25.614  50.028  47.806  1.00  0.00     0.213 C 
ENDBRANCH  24  26
ENDBRANCH  23  24
ENDBRANCH  14  17
ENDBRANCH  12  13
ENDBRANCH   2  12
BRANCH   1  28
HETATM   28  C   UNL     1      27.619  44.273  52.037  1.00  0.00    -0.027 C 
HETATM   29  C   UNL     1      28.730  43.436  52.161  1.00  0.00     0.011 C 
HETATM   30  C   UNL     1      29.479  43.373  53.351  1.00  0.00     0.030 C 
HETATM   31  C   UNL     1      29.157  44.127  54.484  1.00  0.00     0.030 C 
HETATM   32  C   UNL     1      27.932  44.799  54.410  1.00  0.00     0.030 C 
HETATM   33  C   UNL     1      27.173  44.857  53.229  1.00  0.00     0.011 C 
BRANCH  31  34
HETATM   34  N   UNL     1      29.976  44.195  55.611  1.00  0.00    -0.382 N 
BRANCH  34  35
HETATM   35  C   UNL     1      30.327  45.516  56.171  1.00  0.00     0.118 C 
HETATM   36  C   UNL     1      29.325  45.955  57.232  1.00  0.00     0.026 C 
ENDBRANCH  34  35
BRANCH  34  37
HETATM   37  C   UNL     1      30.933  43.120  55.930  1.00  0.00     0.118 C 
HETATM   38  C   UNL     1      31.768  43.486  57.146  1.00  0.00     0.026 C 
ENDBRANCH  34  37
ENDBRANCH  31  34
ENDBRANCH   1  28
BRANCH   6  39
HETATM   39  O   UNL     1      25.464  42.140  51.729  1.00  0.00    -0.389 OA
HETATM   40  H   UNL     1      26.338  41.708  51.765  1.00  0.00     0.210 HD
ENDBRANCH   6  39
TORSDOF 10
ENDMDL
MODEL 2
REMARK VINA RESULT:      -8.3      2.019      2.760
REMARK  10 active torsions:
REMARK  status: ('A' for Active; 'I' for Inactive)
REMARK    1  A    between atoms: C_2  and  N_3 
REMARK    2  A    between atoms: N_3  and  C_4 
REMARK    3  A    between atoms: N_3  and  C_37 
REMARK    4  A    between atoms: C_7  and  C_8 
REMARK    5  A    between atoms: N_9  and  C_11 
REMARK    6  A    between atoms: C_11  and  C_12 
REMARK       I    between atoms: C_12  and  N_13 
REMARK    7  A    between atoms: N_13  and  C_14 
REMARK    8  A    between atoms: C_20  and  C_21 
REMARK    9  A    between atoms: C_21  and  O_22 
REMARK   10  A    between atoms: C_28  and  O_29 
ROOT
HETATM    1  C   UNL     1      24.774  45.136  49.885  1.00  0.00     0.228 C 
HETATM    2  N   UNL     1      23.281  45.227  49.491  1.00  0.00    -0.054 N 
HETATM    3  H   UNL     1      22.983  46.137  49.874  1.00  0.00     0.281 HD
HETATM    4  C   UNL     1      22.421  44.131  50.083  1.00  0.00     0.239 C 
HETATM    5  C   UNL     1      22.943  42.754  49.709  1.00  0.00     0.066 C 
HETATM    6  C   UNL     1      24.413  42.576  50.113  1.00  0.00     0.065 C 
HETATM    7  C   UNL     1      25.271  43.701  49.492  1.00  0.00     0.055 C 
HETATM    8  C   UNL     1      24.892  41.179  49.670  1.00  0.00     0.038 C 
HETATM    9  C   UNL     1      26.395  40.969  49.848  1.00  0.00     0.003 C 
HETATM   10  C   UNL     1      27.196  42.079  49.182  1.00  0.00     0.001 C 
HETATM   11  C   UNL     1      26.774  43.449  49.711  1.00  0.00     0.010 C 
ENDROOT
BRANCH   2  12
HETATM   12  C   UNL     1      23.020  45.374  47.984  1.00  0.00     0.338 C 
BRANCH  12  13
HETATM   13  C   UNL     1      21.971  46.424  47.620  1.00  0.00     0.248 C 
HETATM   14  N   UNL     1      21.516  47.098  48.735  1.00  0.00    -0.319 N 
HETATM   15  H   UNL     1      21.841  46.808  49.661  1.00  0.00     0.169 HD
HETATM   16  O   UNL     1      21.644  46.555  46.445  1.00  0.00    -0.271 OA
BRANCH  14  17
HETATM   17  C   UNL     1      20.609  48.146  48.797  1.00  0.00     0.094 A 
HETATM   18  S   UNL     1      18.947  47.885  48.678  1.00  0.00    -0.076 SA
HETATM   19  C   UNL     1      18.600  49.553  48.781  1.00  0.00    -0.012 A 
HETATM   20  C   UNL     1      17.174  50.000  48.708  1.00  0.00     0.057 C 
HETATM   21  C   UNL     1      19.746  50.320  48.947  1.00  0.00    -0.030 A 
HETATM   22  C   UNL     1      19.741  51.811  49.112  1.00  0.00     0.050 C 
HETATM   23  C   UNL     1      20.941  49.490  48.929  1.00  0.00     0.080 A 
BRANCH  23  24
HETATM   24  C   UNL     1      22.348  49.909  49.036  1.00  0.00     0.296 C 
HETATM   25  O   UNL     1      22.798  50.391  50.075  1.00  0.00    -0.259 OA
BRANCH  24  26
HETATM   26  O   UNL     1      23.076  49.701  47.908  1.00  0.00    -0.322 OA
HETATM   27  C   UNL     1      24.497  49.757  48.051  1.00  0.00     0.213 C 
ENDBRANCH  24  26
ENDBRANCH  23  24
ENDBRANCH  14  17
ENDBRANCH  12  13
ENDBRANCH   2  12
BRANCH   1  28
HETATM   28  C   UNL     1      25.102  45.617  51.303  1.00  0.00    -0.027 C 
HETATM   29  C   UNL     1      25.100  44.812  52.445  1.00  0.00     0.011 C 
HETATM   30  C   UNL     1      25.623  45.266  53.670  1.00  0.00     0.030 C 
HETATM   31  C   UNL     1      26.163  46.546  53.831  1.00  0.00     0.030 C 
HETATM   32  C   UNL     1      25.971  47.402  52.740  1.00  0.00     0.030 C 
HETATM   33  C   UNL     1      25.439  46.959  51.518  1.00  0.00     0.011 C 
BRANCH  31  34
HETATM   34  N   UNL     1      26.825  46.954  54.988  1.00  0.00    -0.382 N 
BRANCH  34  35
HETATM   35  C   UNL     1      26.221  48.003  55.834  1.00  0.00     0.118 C 
HETATM   36  C   UNL     1      26.927  49.341  55.651  1.00  0.00     0.026 C 
ENDBRANCH  34  35
BRANCH  34  37
HETATM   37  C   UNL     1      28.287  46.825  55.120  1.00  0.00     0.118 C 
HETATM   38  C   UNL     1      28.645  45.936  56.300  1.00  0.00     0.026 C 
ENDBRANCH  34  37
ENDBRANCH  31  34
ENDBRANCH   1  28
BRANCH   6  39
HETATM   39  O   UNL     1      24.444  42.650  51.535  1.00  0.00    -0.389 OA
HETATM   40  H   UNL     1      24.429  41.757  51.924  1.00  0.00     0.210 HD
ENDBRANCH   6  39
TORSDOF 10
ENDMDL
MODEL 3
REMARK VINA RESULT:      -8.1      3.012      5.163
REMARK  10 active torsions:
REMARK  status: ('A' for Active; 'I' for Inactive)
REMARK    1  A    between atoms: C_2  and  N_3 
REMARK    2  A    between atoms: N_3  and  C_4 
REMARK    3  A    between atoms: N_3  and  C_37 
REMARK    4  A    between atoms: C_7  and  C_8 
REMARK    5  A    between atoms: N_9  and  C_11 
REMARK    6  A    between atoms: C_11  and  C_12 
REMARK       I    between atoms: C_12  and  N_13 
REMARK    7  A    between atoms: N_13  and  C_14 
REMARK    8  A    between atoms: C_20  and  C_21 
REMARK    9  A    between atoms: C_21  and  O_22 
REMARK   10  A    between atoms: C_28  and  O_29 
ROOT
HETATM    1  C   UNL     1      24.798  43.007  51.082  1.00  0.00     0.228 C 
HETATM    2  N   UNL     1      23.970  43.481  49.865  1.00  0.00    -0.054 N 
HETATM    3  H   UNL     1      23.902  42.638  49.274  1.00  0.00     0.281 HD
HETATM    4  C   UNL     1      24.621  44.594  49.074  1.00  0.00     0.239 C 
HETATM    5  C   UNL     1      24.927  45.794  49.954  1.00  0.00     0.066 C 
HETATM    6  C   UNL     1      25.787  45.405  51.164  1.00  0.00     0.065 C 
HETATM    7  C   UNL     1      25.100  44.272  51.959  1.00  0.00     0.055 C 
HETATM    8  C   UNL     1      26.026  46.654  52.036  1.00  0.00     0.038 C 
HETATM    9  C   UNL     1      26.707  46.342  53.368  1.00  0.00     0.003 C 
HETATM   10  C   UNL     1      25.967  45.252  54.131  1.00  0.00     0.001 C 
HETATM   11  C   UNL     1      25.831  43.988  53.283  1.00  0.00     0.010 C 
ENDROOT
BRANCH   2  12
HETATM   12  C   UNL     1      22.502  43.815  50.174  1.00  0.00     0.338 C 
BRANCH  12  13
HETATM   13  C   UNL     1      21.692  44.295  48.971  1.00  0.00     0.248 C 
HETATM   14  N   UNL     1      20.955  45.423  49.268  1.00  0.00    -0.319 N 
HETATM   15  H   UNL     1      20.952  45.778  50.228  1.00  0.00     0.169 HD
HETATM   16  O   UNL     1      21.760  43.666  47.919  1.00  0.00    -0.271 OA
BRANCH  14  17
HETATM   17  C   UNL     1      20.145  46.170  48.424  1.00  0.00     0.094 A 
HETATM   18  S   UNL     1      18.759  45.515  47.721  1.00  0.00    -0.076 SA
HETATM   19  C   UNL     1      18.420  46.953  46.867  1.00  0.00    -0.012 A 
HETATM   20  C   UNL     1      17.222  46.997  45.972  1.00  0.00     0.057 C 
HETATM   21  C   UNL     1      19.339  47.958  47.142  1.00  0.00    -0.030 A 
HETATM   22  C   UNL     1      19.264  49.343  46.569  1.00  0.00     0.050 C 
HETATM   23  C   UNL     1      20.379  47.487  48.045  1.00  0.00     0.080 A 
BRANCH  23  24
HETATM   24  C   UNL     1      21.550  48.218  48.553  1.00  0.00     0.296 C 
HETATM   25  O   UNL     1      22.690  47.943  48.181  1.00  0.00    -0.259 OA
BRANCH  24  26
HETATM   26  O   UNL     1      21.248  49.204  49.437  1.00  0.00    -0.322 OA
HETATM   27  C   UNL     1      21.873  50.471  49.213  1.00  0.00     0.213 C 
ENDBRANCH  24  26
ENDBRANCH  23  24
ENDBRANCH  14  17
ENDBRANCH  12  13
ENDBRANCH   2  12
BRANCH   1  28
HETATM   28  C   UNL     1      25.987  42.099  50.746  1.00  0.00    -0.027 C 
HETATM   29  C   UNL     1      27.062  41.836  51.598  1.00  0.00     0.011 C 
HETATM   30  C   UNL     1      28.000  40.827  51.313  1.00  0.00     0.030 C 
HETATM   31  C   UNL     1      27.929  40.034  50.164  1.00  0.00     0.030 C 
HETATM   32  C   UNL     1      26.972  40.445  49.229  1.00  0.00     0.030 C 
HETATM   33  C   UNL     1      26.039  41.460  49.501  1.00  0.00     0.011 C 
BRANCH  31  34
HETATM   34  N   UNL     1      28.753  38.931  49.946  1.00  0.00    -0.382 N 
BRANCH  34  35
HETATM   35  C   UNL     1      28.262  37.814  49.114  1.00  0.00     0.118 C 
HETATM   36  C   UNL     1      28.924  37.810  47.741  1.00  0.00     0.026 C 
ENDBRANCH  34  35
BRANCH  34  37
HETATM   37  C   UNL     1      29.809  38.562  50.906  1.00  0.00     0.118 C 
HETATM   38  C   UNL     1      29.759  37.075  51.217  1.00  0.00     0.026 C 
ENDBRANCH  34  37
ENDBRANCH  31  34
ENDBRANCH   1  28
BRANCH   6  39
HETATM   39  O   UNL     1      27.033  44.960  50.636  1.00  0.00    -0.389 OA
HETATM   40  H   UNL     1      26.912  44.589  49.743  1.00  0.00     0.210 HD
ENDBRANCH   6  39
TORSDOF 10
ENDMDL
MODEL 4
REMARK VINA RESULT:      -8.1      4.482     11.907
REMARK  10 active torsions:
REMARK  status: ('A' for Active; 'I' for Inactive)
REMARK    1  A    between atoms: C_2  and  N_3 
REMARK    2  A    between atoms: N_3  and  C_4 
REMARK    3  A    between atoms: N_3  and  C_37 
REMARK    4  A    between atoms: C_7  and  C_8 
REMARK    5  A    between atoms: N_9  and  C_11 
REMARK    6  A    between atoms: C_11  and  C_12 
REMARK       I    between atoms: C_12  and  N_13 
REMARK    7  A    between atoms: N_13  and  C_14 
REMARK    8  A    between atoms: C_20  and  C_21 
REMARK    9  A    between atoms: C_21  and  O_22 
REMARK   10  A    between atoms: C_28  and  O_29 
ROOT
HETATM    1  C   UNL     1      19.182  49.309  46.980  1.00  0.00     0.228 C 
HETATM    2  N   UNL     1      18.972  47.875  47.519  1.00  0.00    -0.054 N 
HETATM    3  H   UNL     1      19.264  47.274  46.732  1.00  0.00     0.281 HD
HETATM    4  C   UNL     1      17.537  47.559  47.881  1.00  0.00     0.239 C 
HETATM    5  C   UNL     1      16.992  48.549  48.897  1.00  0.00     0.066 C 
HETATM    6  C   UNL     1      17.127  49.997  48.407  1.00  0.00     0.065 C 
HETATM    7  C   UNL     1      18.600  50.298  48.049  1.00  0.00     0.055 C 
HETATM    8  C   UNL     1      16.596  50.950  49.496  1.00  0.00     0.038 C 
HETATM    9  C   UNL     1      16.862  52.424  49.195  1.00  0.00     0.003 C 
HETATM   10  C   UNL     1      18.333  52.675  48.891  1.00  0.00     0.001 C 
HETATM   11  C   UNL     1      18.811  51.791  47.741  1.00  0.00     0.010 C 
ENDROOT
BRANCH   2  12
HETATM   12  C   UNL     1      19.926  47.465  48.651  1.00  0.00     0.338 C 
BRANCH  12  13
HETATM   13  C   UNL     1      21.397  47.387  48.246  1.00  0.00     0.248 C 
HETATM   14  N   UNL     1      22.234  47.585  49.325  1.00  0.00    -0.319 N 
HETATM   15  H   UNL     1      21.830  47.826  50.234  1.00  0.00     0.169 HD
HETATM   16  O   UNL     1      21.680  47.180  47.070  1.00  0.00    -0.271 OA
BRANCH  14  17
HETATM   17  C   UNL     1      23.621  47.536  49.359  1.00  0.00     0.094 A 
HETATM   18  S   UNL     1      24.446  46.150  49.852  1.00  0.00    -0.076 SA
HETATM   19  C   UNL     1      25.969  46.898  49.667  1.00  0.00    -0.012 A 
HETATM   20  C   UNL     1      27.202  46.118  49.999  1.00  0.00     0.057 C 
HETATM   21  C   UNL     1      25.863  48.198  49.190  1.00  0.00    -0.030 A 
HETATM   22  C   UNL     1      27.039  49.080  48.889  1.00  0.00     0.050 C 
HETATM   23  C   UNL     1      24.470  48.588  49.032  1.00  0.00     0.080 A 
BRANCH  23  24
HETATM   24  C   UNL     1      23.926  49.882  48.589  1.00  0.00     0.296 C 
HETATM   25  O   UNL     1      23.935  50.211  47.404  1.00  0.00    -0.259 OA
BRANCH  24  26
HETATM   26  O   UNL     1      23.419  50.643  49.593  1.00  0.00    -0.322 OA
HETATM   27  C   UNL     1      22.019  50.931  49.526  1.00  0.00     0.213 C 
ENDBRANCH  24  26
ENDBRANCH  23  24
ENDBRANCH  14  17
ENDBRANCH  12  13
ENDBRANCH   2  12
BRANCH   1  28
HETATM   28  C   UNL     1      18.746  49.528  45.526  1.00  0.00    -0.027 C 
HETATM   29  C   UNL     1      18.596  50.774  44.912  1.00  0.00     0.011 C 
HETATM   30  C   UNL     1      18.409  50.895  43.523  1.00  0.00     0.030 C 
HETATM   31  C   UNL     1      18.349  49.787  42.671  1.00  0.00     0.030 C 
HETATM   32  C   UNL     1      18.296  48.550  43.324  1.00  0.00     0.030 C 
HETATM   33  C   UNL     1      18.471  48.422  44.713  1.00  0.00     0.011 C 
BRANCH  31  34
HETATM   34  N   UNL     1      18.323  49.894  41.281  1.00  0.00    -0.382 N 
BRANCH  34  35
HETATM   35  C   UNL     1      17.379  50.836  40.646  1.00  0.00     0.118 C 
HETATM   36  C   UNL     1      18.113  51.966  39.934  1.00  0.00     0.026 C 
ENDBRANCH  34  35
BRANCH  34  37
HETATM   37  C   UNL     1      18.750  48.778  40.418  1.00  0.00     0.118 C 
HETATM   38  C   UNL     1      20.260  48.780  40.243  1.00  0.00     0.026 C 
ENDBRANCH  34  37
ENDBRANCH  31  34
ENDBRANCH   1  28
BRANCH   6  39
HETATM   39  O   UNL     1      16.301  50.102  47.252  1.00  0.00    -0.389 OA
HETATM   40  H   UNL     1      16.719  49.660  46.491  1.00  0.00     0.210 HD
ENDBRANCH   6  39
TORSDOF 10
ENDMDL
MODEL 5
REMARK VINA RESULT:      -7.8     13.026     15.595
REMARK  10 active torsions:
REMARK  status: ('A' for Active; 'I' for Inactive)
REMARK    1  A    between atoms: C_2  and  N_3 
REMARK    2  A    between atoms: N_3  and  C_4 
REMARK    3  A    between atoms: N_3  and  C_37 
REMARK    4  A    between atoms: C_7  and  C_8 
REMARK    5  A    between atoms: N_9  and  C_11 
REMARK    6  A    between atoms: C_11  and  C_12 
REMARK       I    between atoms: C_12  and  N_13 
REMARK    7  A    between atoms: N_13  and  C_14 
REMARK    8  A    between atoms: C_20  and  C_21 
REMARK    9  A    between atoms: C_21  and  O_22 
REMARK   10  A    between atoms: C_28  and  O_29 
ROOT
HETATM    1  C   UNL     1      36.568  53.503  40.888  1.00  0.00     0.228 C 
HETATM    2  N   UNL     1      35.327  52.601  40.692  1.00  0.00    -0.054 N 
HETATM    3  H   UNL     1      34.715  52.853  41.485  1.00  0.00     0.281 HD
HETATM    4  C   UNL     1      35.629  51.120  40.747  1.00  0.00     0.239 C 
HETATM    5  C   UNL     1      36.682  50.731  39.724  1.00  0.00     0.066 C 
HETATM    6  C   UNL     1      37.965  51.559  39.888  1.00  0.00     0.065 C 
HETATM    7  C   UNL     1      37.632  53.066  39.823  1.00  0.00     0.055 C 
HETATM    8  C   UNL     1      38.975  51.147  38.798  1.00  0.00     0.038 C 
HETATM    9  C   UNL     1      40.211  52.043  38.748  1.00  0.00     0.003 C 
HETATM   10  C   UNL     1      39.830  53.513  38.640  1.00  0.00     0.001 C 
HETATM   11  C   UNL     1      38.910  53.924  39.788  1.00  0.00     0.010 C 
ENDROOT
BRANCH   2  12
HETATM   12  C   UNL     1      34.470  52.941  39.462  1.00  0.00     0.338 C 
BRANCH  12  13
HETATM   13  C   UNL     1      33.248  52.045  39.272  1.00  0.00     0.248 C 
HETATM   14  N   UNL     1      32.376  52.138  40.338  1.00  0.00    -0.319 N 
HETATM   15  H   UNL     1      32.638  52.704  41.149  1.00  0.00     0.169 HD
HETATM   16  O   UNL     1      33.165  51.360  38.257  1.00  0.00    -0.271 OA
BRANCH  14  17
HETATM   17  C   UNL     1      31.145  51.518  40.499  1.00  0.00     0.094 A 
HETATM   18  S   UNL     1      29.791  51.995  39.613  1.00  0.00    -0.076 SA
HETATM   19  C   UNL     1      28.784  50.861  40.396  1.00  0.00    -0.012 A 
HETATM   20  C   UNL     1      27.335  50.806  40.026  1.00  0.00     0.057 C 
HETATM   21  C   UNL     1      29.479  50.083  41.311  1.00  0.00    -0.030 A 
HETATM   22  C   UNL     1      28.860  48.976  42.113  1.00  0.00     0.050 C 
HETATM   23  C   UNL     1      30.875  50.488  41.394  1.00  0.00     0.080 A 
BRANCH  23  24
HETATM   24  C   UNL     1      31.935  49.949  42.260  1.00  0.00     0.296 C 
HETATM   25  O   UNL     1      31.909  50.105  43.481  1.00  0.00    -0.259 OA
BRANCH  24  26
HETATM   26  O   UNL     1      32.906  49.273  41.593  1.00  0.00    -0.322 OA
HETATM   27  C   UNL     1      32.609  47.920  41.239  1.00  0.00     0.213 C 
ENDBRANCH  24  26
ENDBRANCH  23  24
ENDBRANCH  14  17
ENDBRANCH  12  13
ENDBRANCH   2  12
BRANCH   1  28
HETATM   28  C   UNL     1      37.053  53.635  42.337  1.00  0.00    -0.027 C 
HETATM   29  C   UNL     1      36.630  52.834  43.401  1.00  0.00     0.011 C 
HETATM   30  C   UNL     1      37.276  52.865  44.650  1.00  0.00     0.030 C 
HETATM   31  C   UNL     1      38.366  53.700  44.915  1.00  0.00     0.030 C 
HETATM   32  C   UNL     1      38.643  54.635  43.911  1.00  0.00     0.030 C 
HETATM   33  C   UNL     1      37.994  54.618  42.665  1.00  0.00     0.011 C 
BRANCH  31  34
HETATM   34  N   UNL     1      39.114  53.629  46.090  1.00  0.00    -0.382 N 
BRANCH  34  35
HETATM   35  C   UNL     1      38.812  54.560  47.196  1.00  0.00     0.118 C 
HETATM   36  C   UNL     1      38.513  53.810  48.489  1.00  0.00     0.026 C 
ENDBRANCH  34  35
BRANCH  34  37
HETATM   37  C   UNL     1      40.489  53.099  46.092  1.00  0.00     0.118 C 
HETATM   38  C   UNL     1      40.486  51.592  45.890  1.00  0.00     0.026 C 
ENDBRANCH  34  37
ENDBRANCH  31  34
ENDBRANCH   1  28
BRANCH   6  39
HETATM   39  O   UNL     1      38.493  51.218  41.166  1.00  0.00    -0.389 OA
HETATM   40  H   UNL     1      38.781  52.019  41.641  1.00  0.00     0.210 HD
ENDBRANCH   6  39
TORSDOF 10
ENDMDL
MODEL 6
REMARK VINA RESULT:      -7.7      4.334     11.940
REMARK  10 active torsions:
REMARK  status: ('A' for Active; 'I' for Inactive)
REMARK    1  A    between atoms: C_2  and  N_3 
REMARK    2  A    between atoms: N_3  and  C_4 
REMARK    3  A    between atoms: N_3  and  C_37 
REMARK    4  A    between atoms: C_7  and  C_8 
REMARK    5  A    between atoms: N_9  and  C_11 
REMARK    6  A    between atoms: C_11  and  C_12 
REMARK       I    between atoms: C_12  and  N_13 
REMARK    7  A    between atoms: N_13  and  C_14 
REMARK    8  A    between atoms: C_20  and  C_21 
REMARK    9  A    between atoms: C_21  and  O_22 
REMARK   10  A    between atoms: C_28  and  O_29 
ROOT
HETATM    1  C   UNL     1      19.391  48.922  46.955  1.00  0.00     0.228 C 
HETATM    2  N   UNL     1      19.075  47.481  47.416  1.00  0.00    -0.054 N 
HETATM    3  H   UNL     1      19.173  46.922  46.554  1.00  0.00     0.281 HD
HETATM    4  C   UNL     1      17.677  47.305  47.968  1.00  0.00     0.239 C 
HETATM    5  C   UNL     1      17.412  48.257  49.122  1.00  0.00     0.066 C 
HETATM    6  C   UNL     1      17.664  49.717  48.721  1.00  0.00     0.065 C 
HETATM    7  C   UNL     1      19.098  49.873  48.168  1.00  0.00     0.055 C 
HETATM    8  C   UNL     1      17.419  50.625  49.943  1.00  0.00     0.038 C 
HETATM    9  C   UNL     1      17.829  52.079  49.710  1.00  0.00     0.003 C 
HETATM   10  C   UNL     1      19.262  52.180  49.207  1.00  0.00     0.001 C 
HETATM   11  C   UNL     1      19.456  51.353  47.938  1.00  0.00     0.010 C 
ENDROOT
BRANCH   2  12
HETATM   12  C   UNL     1      20.118  46.862  48.360  1.00  0.00     0.338 C 
BRANCH  12  13
HETATM   13  C   UNL     1      21.569  47.148  47.979  1.00  0.00     0.248 C 
HETATM   14  N   UNL     1      22.244  47.797  48.993  1.00  0.00    -0.319 N 
HETATM   15  H   UNL     1      21.732  48.081  49.832  1.00  0.00     0.169 HD
HETATM   16  O   UNL     1      21.972  46.806  46.872  1.00  0.00    -0.271 OA
BRANCH  14  17
HETATM   17  C   UNL     1      23.580  48.173  49.036  1.00  0.00     0.094 A 
HETATM   18  S   UNL     1      24.109  49.632  48.376  1.00  0.00    -0.076 SA
HETATM   19  C   UNL     1      25.738  49.308  48.770  1.00  0.00    -0.012 A 
HETATM   20  C   UNL     1      26.785  50.306  48.391  1.00  0.00     0.057 C 
HETATM   21  C   UNL     1      25.887  48.102  49.443  1.00  0.00    -0.030 A 
HETATM   22  C   UNL     1      27.199  47.582  49.952  1.00  0.00     0.050 C 
HETATM   23  C   UNL     1      24.611  47.414  49.578  1.00  0.00     0.080 A 
BRANCH  23  24
HETATM   24  C   UNL     1      24.338  46.104  50.190  1.00  0.00     0.296 C 
HETATM   25  O   UNL     1      23.865  45.175  49.535  1.00  0.00    -0.259 OA
BRANCH  24  26
HETATM   26  O   UNL     1      24.664  46.027  51.506  1.00  0.00    -0.322 OA
HETATM   27  C   UNL     1      24.722  44.714  52.070  1.00  0.00     0.213 C 
ENDBRANCH  24  26
ENDBRANCH  23  24
ENDBRANCH  14  17
ENDBRANCH  12  13
ENDBRANCH   2  12
BRANCH   1  28
HETATM   28  C   UNL     1      18.787  49.319  45.603  1.00  0.00    -0.027 C 
HETATM   29  C   UNL     1      18.544  50.631  45.186  1.00  0.00     0.011 C 
HETATM   30  C   UNL     1      18.196  50.931  43.856  1.00  0.00     0.030 C 
HETATM   31  C   UNL     1      18.058  49.946  42.873  1.00  0.00     0.030 C 
HETATM   32  C   UNL     1      18.104  48.632  43.352  1.00  0.00     0.030 C 
HETATM   33  C   UNL     1      18.439  48.324  44.681  1.00  0.00     0.011 C 
BRANCH  31  34
HETATM   34  N   UNL     1      17.871  50.238  41.522  1.00  0.00    -0.382 N 
BRANCH  34  35
HETATM   35  C   UNL     1      18.955  49.950  40.563  1.00  0.00     0.118 C 
HETATM   36  C   UNL     1      20.092  50.957  40.688  1.00  0.00     0.026 C 
ENDBRANCH  34  35
BRANCH  34  37
HETATM   37  C   UNL     1      16.931  51.288  41.089  1.00  0.00     0.118 C 
HETATM   38  C   UNL     1      15.531  50.721  40.919  1.00  0.00     0.026 C 
ENDBRANCH  34  37
ENDBRANCH  31  34
ENDBRANCH   1  28
BRANCH   6  39
HETATM   39  O   UNL     1      16.704  50.021  47.714  1.00  0.00    -0.389 OA
HETATM   40  H   UNL     1      16.893  49.522  46.899  1.00  0.00     0.210 HD
ENDBRANCH   6  39
TORSDOF 10
ENDMDL
MODEL 7
REMARK VINA RESULT:      -7.7      3.649     11.892
REMARK  10 active torsions:
REMARK  status: ('A' for Active; 'I' for Inactive)
REMARK    1  A    between atoms: C_2  and  N_3 
REMARK    2  A    between atoms: N_3  and  C_4 
REMARK    3  A    between atoms: N_3  and  C_37 
REMARK    4  A    between atoms: C_7  and  C_8 
REMARK    5  A    between atoms: N_9  and  C_11 
REMARK    6  A    between atoms: C_11  and  C_12 
REMARK       I    between atoms: C_12  and  N_13 
REMARK    7  A    between atoms: N_13  and  C_14 
REMARK    8  A    between atoms: C_20  and  C_21 
REMARK    9  A    between atoms: C_21  and  O_22 
REMARK   10  A    between atoms: C_28  and  O_29 
ROOT
HETATM    1  C   UNL     1      19.560  48.943  47.183  1.00  0.00     0.228 C 
HETATM    2  N   UNL     1      20.130  47.871  48.141  1.00  0.00    -0.054 N 
HETATM    3  H   UNL     1      20.157  47.017  47.562  1.00  0.00     0.281 HD
HETATM    4  C   UNL     1      19.273  47.619  49.362  1.00  0.00     0.239 C 
HETATM    5  C   UNL     1      19.034  48.898  50.146  1.00  0.00     0.066 C 
HETATM    6  C   UNL     1      18.424  49.997  49.265  1.00  0.00     0.065 C 
HETATM    7  C   UNL     1      19.320  50.242  48.030  1.00  0.00     0.055 C 
HETATM    8  C   UNL     1      18.247  51.277  50.106  1.00  0.00     0.038 C 
HETATM    9  C   UNL     1      17.828  52.493  49.280  1.00  0.00     0.003 C 
HETATM   10  C   UNL     1      18.767  52.715  48.101  1.00  0.00     0.001 C 
HETATM   11  C   UNL     1      18.848  51.467  47.225  1.00  0.00     0.010 C 
ENDROOT
BRANCH   2  12
HETATM   12  C   UNL     1      21.600  48.077  48.537  1.00  0.00     0.338 C 
BRANCH  12  13
HETATM   13  C   UNL     1      22.494  46.857  48.322  1.00  0.00     0.248 C 
HETATM   14  N   UNL     1      23.174  46.512  49.472  1.00  0.00    -0.319 N 
HETATM   15  H   UNL     1      23.088  47.107  50.299  1.00  0.00     0.169 HD
HETATM   16  O   UNL     1      22.529  46.335  47.211  1.00  0.00    -0.271 OA
BRANCH  14  17
HETATM   17  C   UNL     1      24.031  45.440  49.677  1.00  0.00     0.094 A 
HETATM   18  S   UNL     1      23.516  43.846  49.482  1.00  0.00    -0.076 SA
HETATM   19  C   UNL     1      25.034  43.218  49.942  1.00  0.00    -0.012 A 
HETATM   20  C   UNL     1      25.218  41.734  49.990  1.00  0.00     0.057 C 
HETATM   21  C   UNL     1      25.959  44.219  50.210  1.00  0.00    -0.030 A 
HETATM   22  C   UNL     1      27.387  43.962  50.592  1.00  0.00     0.050 C 
HETATM   23  C   UNL     1      25.359  45.538  50.079  1.00  0.00     0.080 A 
BRANCH  23  24
HETATM   24  C   UNL     1      25.978  46.853  50.309  1.00  0.00     0.296 C 
HETATM   25  O   UNL     1      26.867  47.282  49.573  1.00  0.00    -0.259 OA
BRANCH  24  26
HETATM   26  O   UNL     1      25.473  47.526  51.375  1.00  0.00    -0.322 OA
HETATM   27  C   UNL     1      25.976  47.148  52.659  1.00  0.00     0.213 C 
ENDBRANCH  24  26
ENDBRANCH  23  24
ENDBRANCH  14  17
ENDBRANCH  12  13
ENDBRANCH   2  12
BRANCH   1  28
HETATM   28  C   UNL     1      18.401  48.472  46.296  1.00  0.00    -0.027 C 
HETATM   29  C   UNL     1      17.788  47.219  46.376  1.00  0.00     0.011 C 
HETATM   30  C   UNL     1      16.595  46.935  45.687  1.00  0.00     0.030 C 
HETATM   31  C   UNL     1      15.953  47.875  44.874  1.00  0.00     0.030 C 
HETATM   32  C   UNL     1      16.683  49.046  44.646  1.00  0.00     0.030 C 
HETATM   33  C   UNL     1      17.882  49.331  45.321  1.00  0.00     0.011 C 
BRANCH  31  34
HETATM   34  N   UNL     1      14.693  47.664  44.313  1.00  0.00    -0.382 N 
BRANCH  34  35
HETATM   35  C   UNL     1      13.491  48.106  45.049  1.00  0.00     0.118 C 
HETATM   36  C   UNL     1      13.053  49.499  44.614  1.00  0.00     0.026 C 
ENDBRANCH  34  35
BRANCH  34  37
HETATM   37  C   UNL     1      14.456  46.575  43.349  1.00  0.00     0.118 C 
HETATM   38  C   UNL     1      13.312  45.686  43.812  1.00  0.00     0.026 C 
ENDBRANCH  34  37
ENDBRANCH  31  34
ENDBRANCH   1  28
BRANCH   6  39
HETATM   39  O   UNL     1      17.143  49.519  48.867  1.00  0.00    -0.389 OA
HETATM   40  H   UNL     1      16.454  49.845  49.474  1.00  0.00     0.210 HD
ENDBRANCH   6  39
TORSDOF 10
ENDMDL
MODEL 8
REMARK VINA RESULT:      -7.6      8.168     12.236
REMARK  10 active torsions:
REMARK  status: ('A' for Active; 'I' for Inactive)
REMARK    1  A    between atoms: C_2  and  N_3 
REMARK    2  A    between atoms: N_3  and  C_4 
REMARK    3  A    between atoms: N_3  and  C_37 
REMARK    4  A    between atoms: C_7  and  C_8 
REMARK    5  A    between atoms: N_9  and  C_11 
REMARK    6  A    between atoms: C_11  and  C_12 
REMARK       I    between atoms: C_12  and  N_13 
REMARK    7  A    between atoms: N_13  and  C_14 
REMARK    8  A    between atoms: C_20  and  C_21 
REMARK    9  A    between atoms: C_21  and  O_22 
REMARK   10  A    between atoms: C_28  and  O_29 
ROOT
HETATM    1  C   UNL     1      17.875  50.337  47.798  1.00  0.00     0.228 C 
HETATM    2  N   UNL     1      17.257  48.924  47.676  1.00  0.00    -0.054 N 
HETATM    3  H   UNL     1      16.245  49.107  47.591  1.00  0.00     0.281 HD
HETATM    4  C   UNL     1      17.505  48.039  48.877  1.00  0.00     0.239 C 
HETATM    5  C   UNL     1      18.990  47.900  49.167  1.00  0.00     0.066 C 
HETATM    6  C   UNL     1      19.663  49.268  49.346  1.00  0.00     0.065 C 
HETATM    7  C   UNL     1      19.402  50.151  48.105  1.00  0.00     0.055 C 
HETATM    8  C   UNL     1      21.170  49.061  49.595  1.00  0.00     0.038 C 
HETATM    9  C   UNL     1      21.970  50.363  49.593  1.00  0.00     0.003 C 
HETATM   10  C   UNL     1      21.711  51.175  48.331  1.00  0.00     0.001 C 
HETATM   11  C   UNL     1      20.219  51.455  48.159  1.00  0.00     0.010 C 
ENDROOT
BRANCH   2  12
HETATM   12  C   UNL     1      17.594  48.184  46.371  1.00  0.00     0.338 C 
BRANCH  12  13
HETATM   13  C   UNL     1      17.166  48.912  45.099  1.00  0.00     0.248 C 
HETATM   14  N   UNL     1      18.179  49.705  44.600  1.00  0.00    -0.319 N 
HETATM   15  H   UNL     1      19.050  49.793  45.129  1.00  0.00     0.169 HD
HETATM   16  O   UNL     1      16.028  48.744  44.670  1.00  0.00    -0.271 OA
BRANCH  14  17
HETATM   17  C   UNL     1      18.183  50.471  43.442  1.00  0.00     0.094 A 
HETATM   18  S   UNL     1      18.949  49.943  42.035  1.00  0.00    -0.076 SA
HETATM   19  C   UNL     1      18.558  51.375  41.193  1.00  0.00    -0.012 A 
HETATM   20  C   UNL     1      19.019  51.530  39.778  1.00  0.00     0.057 C 
HETATM   21  C   UNL     1      17.805  52.250  41.965  1.00  0.00    -0.030 A 
HETATM   22  C   UNL     1      17.281  53.566  41.470  1.00  0.00     0.050 C 
HETATM   23  C   UNL     1      17.604  51.728  43.308  1.00  0.00     0.080 A 
BRANCH  23  24
HETATM   24  C   UNL     1      16.900  52.354  44.438  1.00  0.00     0.296 C 
HETATM   25  O   UNL     1      17.511  52.805  45.407  1.00  0.00    -0.259 OA
BRANCH  24  26
HETATM   26  O   UNL     1      15.550  52.393  44.298  1.00  0.00    -0.322 OA
HETATM   27  C   UNL     1      14.782  51.989  45.435  1.00  0.00     0.213 C 
ENDBRANCH  24  26
ENDBRANCH  23  24
ENDBRANCH  14  17
ENDBRANCH  12  13
ENDBRANCH   2  12
BRANCH   1  28
HETATM   28  C   UNL     1      17.101  51.308  48.698  1.00  0.00    -0.027 C 
HETATM   29  C   UNL     1      17.654  52.419  49.340  1.00  0.00     0.011 C 
HETATM   30  C   UNL     1      16.846  53.386  49.967  1.00  0.00     0.030 C 
HETATM   31  C   UNL     1      15.451  53.297  50.001  1.00  0.00     0.030 C 
HETATM   32  C   UNL     1      14.932  52.083  49.534  1.00  0.00     0.030 C 
HETATM   33  C   UNL     1      15.733  51.107  48.918  1.00  0.00     0.011 C 
BRANCH  31  34
HETATM   34  N   UNL     1      14.632  54.321  50.476  1.00  0.00    -0.382 N 
BRANCH  34  35
HETATM   35  C   UNL     1      15.214  55.371  51.335  1.00  0.00     0.118 C 
HETATM   36  C   UNL     1      14.561  55.390  52.712  1.00  0.00     0.026 C 
ENDBRANCH  34  35
BRANCH  34  37
HETATM   37  C   UNL     1      13.181  54.126  50.642  1.00  0.00     0.118 C 
HETATM   38  C   UNL     1      12.413  54.826  49.532  1.00  0.00     0.026 C 
ENDBRANCH  34  37
ENDBRANCH  31  34
ENDBRANCH   1  28
BRANCH   6  39
HETATM   39  O   UNL     1      19.075  49.849  50.506  1.00  0.00    -0.389 OA
HETATM   40  H   UNL     1      18.106  49.744  50.486  1.00  0.00     0.210 HD
ENDBRANCH   6  39
TORSDOF 10
ENDMDL
MODEL 9
REMARK VINA RESULT:      -7.6     12.005     15.922
REMARK  10 active torsions:
REMARK  status: ('A' for Active; 'I' for Inactive)
REMARK    1  A    between atoms: C_2  and  N_3 
REMARK    2  A    between atoms: N_3  and  C_4 
REMARK    3  A    between atoms: N_3  and  C_37 
REMARK    4  A    between atoms: C_7  and  C_8 
REMARK    5  A    between atoms: N_9  and  C_11 
REMARK    6  A    between atoms: C_11  and  C_12 
REMARK       I    between atoms: C_12  and  N_13 
REMARK    7  A    between atoms: N_13  and  C_14 
REMARK    8  A    between atoms: C_20  and  C_21 
REMARK    9  A    between atoms: C_21  and  O_22 
REMARK   10  A    between atoms: C_28  and  O_29 
ROOT
HETATM    1  C   UNL     1      32.153  50.540  39.738  1.00  0.00     0.228 C 
HETATM    2  N   UNL     1      33.460  50.458  40.560  1.00  0.00    -0.054 N 
HETATM    3  H   UNL     1      33.920  49.606  40.202  1.00  0.00     0.281 HD
HETATM    4  C   UNL     1      33.241  50.317  42.050  1.00  0.00     0.239 C 
HETATM    5  C   UNL     1      32.391  51.452  42.595  1.00  0.00     0.066 C 
HETATM    6  C   UNL     1      31.053  51.565  41.852  1.00  0.00     0.065 C 
HETATM    7  C   UNL     1      31.302  51.714  40.335  1.00  0.00     0.055 C 
HETATM    8  C   UNL     1      30.258  52.757  42.422  1.00  0.00     0.038 C 
HETATM    9  C   UNL     1      28.995  53.081  41.625  1.00  0.00     0.003 C 
HETATM   10  C   UNL     1      29.301  53.261  40.144  1.00  0.00     0.001 C 
HETATM   11  C   UNL     1      29.998  52.025  39.577  1.00  0.00     0.010 C 
ENDROOT
BRANCH   2  12
HETATM   12  C   UNL     1      34.483  51.565  40.258  1.00  0.00     0.338 C 
BRANCH  12  13
HETATM   13  C   UNL     1      35.696  51.580  41.187  1.00  0.00     0.248 C 
HETATM   14  N   UNL     1      35.852  52.805  41.802  1.00  0.00    -0.319 N 
HETATM   15  H   UNL     1      35.230  53.575  41.546  1.00  0.00     0.169 HD
HETATM   16  O   UNL     1      36.382  50.567  41.286  1.00  0.00    -0.271 OA
BRANCH  14  17
HETATM   17  C   UNL     1      36.801  53.181  42.742  1.00  0.00     0.094 A 
HETATM   18  S   UNL     1      36.948  52.380  44.220  1.00  0.00    -0.076 SA
HETATM   19  C   UNL     1      38.196  53.419  44.746  1.00  0.00    -0.012 A 
HETATM   20  C   UNL     1      38.781  53.213  46.107  1.00  0.00     0.057 C 
HETATM   21  C   UNL     1      38.539  54.360  43.784  1.00  0.00    -0.030 A 
HETATM   22  C   UNL     1      39.633  55.372  43.953  1.00  0.00     0.050 C 
HETATM   23  C   UNL     1      37.694  54.238  42.604  1.00  0.00     0.080 A 
BRANCH  23  24
HETATM   24  C   UNL     1      37.704  55.058  41.383  1.00  0.00     0.296 C 
HETATM   25  O   UNL     1      38.656  55.040  40.604  1.00  0.00    -0.259 OA
BRANCH  24  26
HETATM   26  O   UNL     1      36.582  55.803  41.206  1.00  0.00    -0.322 OA
HETATM   27  C   UNL     1      36.195  56.057  39.853  1.00  0.00     0.213 C 
ENDBRANCH  24  26
ENDBRANCH  23  24
ENDBRANCH  14  17
ENDBRANCH  12  13
ENDBRANCH   2  12
BRANCH   1  28
HETATM   28  C   UNL     1      31.434  49.202  39.526  1.00  0.00    -0.027 C 
HETATM   29  C   UNL     1      31.781  47.998  40.143  1.00  0.00     0.011 C 
HETATM   30  C   UNL     1      30.948  46.866  40.074  1.00  0.00     0.030 C 
HETATM   31  C   UNL     1      29.733  46.865  39.381  1.00  0.00     0.030 C 
HETATM   32  C   UNL     1      29.502  48.007  38.606  1.00  0.00     0.030 C 
HETATM   33  C   UNL     1      30.336  49.136  38.659  1.00  0.00     0.011 C 
BRANCH  31  34
HETATM   34  N   UNL     1      28.826  45.808  39.435  1.00  0.00    -0.382 N 
BRANCH  34  35
HETATM   35  C   UNL     1      27.749  45.830  40.446  1.00  0.00     0.118 C 
HETATM   36  C   UNL     1      26.392  46.103  39.807  1.00  0.00     0.026 C 
ENDBRANCH  34  35
BRANCH  34  37
HETATM   37  C   UNL     1      29.187  44.462  38.954  1.00  0.00     0.118 C 
HETATM   38  C   UNL     1      29.185  44.415  37.435  1.00  0.00     0.026 C 
ENDBRANCH  34  37
ENDBRANCH  31  34
ENDBRANCH   1  28
BRANCH   6  39
HETATM   39  O   UNL     1      30.346  50.360  42.127  1.00  0.00    -0.389 OA
HETATM   40  H   UNL     1      30.737  49.615  41.635  1.00  0.00     0.210 HD
ENDBRANCH   6  39
TORSDOF 10
ENDMDL
MODEL 10
REMARK VINA RESULT:      -7.6     13.293     15.573
REMARK  10 active torsions:
REMARK  status: ('A' for Active; 'I' for Inactive)
REMARK    1  A    between atoms: C_2  and  N_3 
REMARK    2  A    between atoms: N_3  and  C_4 
REMARK    3  A    between atoms: N_3  and  C_37 
REMARK    4  A    between atoms: C_7  and  C_8 
REMARK    5  A    between atoms: N_9  and  C_11 
REMARK    6  A    between atoms: C_11  and  C_12 
REMARK       I    between atoms: C_12  and  N_13 
REMARK    7  A    between atoms: N_13  and  C_14 
REMARK    8  A    between atoms: C_20  and  C_21 
REMARK    9  A    between atoms: C_21  and  O_22 
REMARK   10  A    between atoms: C_28  and  O_29 
ROOT
HETATM    1  C   UNL     1      37.854  51.977  44.646  1.00  0.00     0.228 C 
HETATM    2  N   UNL     1      36.992  52.018  43.362  1.00  0.00    -0.054 N 
HETATM    3  H   UNL     1      37.026  51.047  43.015  1.00  0.00     0.281 HD
HETATM    4  C   UNL     1      37.524  52.949  42.294  1.00  0.00     0.239 C 
HETATM    5  C   UNL     1      37.684  54.364  42.822  1.00  0.00     0.066 C 
HETATM    6  C   UNL     1      38.569  54.405  44.075  1.00  0.00     0.065 C 
HETATM    7  C   UNL     1      38.003  53.453  45.153  1.00  0.00     0.055 C 
HETATM    8  C   UNL     1      38.657  55.858  44.584  1.00  0.00     0.038 C 
HETATM    9  C   UNL     1      39.354  55.986  45.938  1.00  0.00     0.003 C 
HETATM   10  C   UNL     1      38.732  55.061  46.974  1.00  0.00     0.001 C 
HETATM   11  C   UNL     1      38.747  53.612  46.491  1.00  0.00     0.010 C 
ENDROOT
BRANCH   2  12
HETATM   12  C   UNL     1      35.493  52.257  43.600  1.00  0.00     0.338 C 
BRANCH  12  13
HETATM   13  C   UNL     1      34.569  51.347  42.793  1.00  0.00     0.248 C 
HETATM   14  N   UNL     1      33.242  51.692  42.957  1.00  0.00    -0.319 N 
HETATM   15  H   UNL     1      32.997  52.432  43.620  1.00  0.00     0.169 HD
HETATM   16  O   UNL     1      35.059  50.443  42.124  1.00  0.00    -0.271 OA
BRANCH  14  17
HETATM   17  C   UNL     1      32.126  51.133  42.350  1.00  0.00     0.094 A 
HETATM   18  S   UNL     1      31.527  49.627  42.816  1.00  0.00    -0.076 SA
HETATM   19  C   UNL     1      30.295  49.666  41.636  1.00  0.00    -0.012 A 
HETATM   20  C   UNL     1      29.363  48.501  41.526  1.00  0.00     0.057 C 
HETATM   21  C   UNL     1      30.305  50.846  40.903  1.00  0.00    -0.030 A 
HETATM   22  C   UNL     1      29.310  51.176  39.830  1.00  0.00     0.050 C 
HETATM   23  C   UNL     1      31.407  51.707  41.307  1.00  0.00     0.080 A 
BRANCH  23  24
HETATM   24  C   UNL     1      31.793  53.018  40.761  1.00  0.00     0.296 C 
HETATM   25  O   UNL     1      31.080  54.010  40.910  1.00  0.00    -0.259 OA
BRANCH  24  26
HETATM   26  O   UNL     1      32.984  53.019  40.109  1.00  0.00    -0.322 OA
HETATM   27  C   UNL     1      33.106  52.113  39.010  1.00  0.00     0.213 C 
ENDBRANCH  24  26
ENDBRANCH  23  24
ENDBRANCH  14  17
ENDBRANCH  12  13
ENDBRANCH   2  12
BRANCH   1  28
HETATM   28  C   UNL     1      39.141  51.150  44.538  1.00  0.00    -0.027 C 
HETATM   29  C   UNL     1      40.193  51.180  45.456  1.00  0.00     0.011 C 
HETATM   30  C   UNL     1      41.238  50.238  45.413  1.00  0.00     0.030 C 
HETATM   31  C   UNL     1      41.301  49.225  44.450  1.00  0.00     0.030 C 
HETATM   32  C   UNL     1      40.355  49.335  43.424  1.00  0.00     0.030 C 
HETATM   33  C   UNL     1      39.316  50.281  43.454  1.00  0.00     0.011 C 
BRANCH  31  34
HETATM   34  N   UNL     1      42.238  48.194  44.488  1.00  0.00    -0.382 N 
BRANCH  34  35
HETATM   35  C   UNL     1      42.304  47.234  43.368  1.00  0.00     0.118 C 
HETATM   36  C   UNL     1      42.088  45.804  43.846  1.00  0.00     0.026 C 
ENDBRANCH  34  35
BRANCH  34  37
HETATM   37  C   UNL     1      42.760  47.680  45.768  1.00  0.00     0.118 C 
HETATM   38  C   UNL     1      44.195  48.133  45.985  1.00  0.00     0.026 C 
ENDBRANCH  34  37
ENDBRANCH  31  34
ENDBRANCH   1  28
BRANCH   6  39
HETATM   39  O   UNL     1      39.862  53.978  43.660  1.00  0.00    -0.389 OA
HETATM   40  H   UNL     1      39.791  53.319  42.946  1.00  0.00     0.210 HD
ENDBRANCH   6  39
TORSDOF 10
ENDMDL
