MODEL 1
REMARK VINA RESULT:      -8.7      0.000      0.000
REMARK  4 active torsions:
REMARK  status: ('A' for Active; 'I' for Inactive)
REMARK    1  A    between atoms: C_9  and  C_10 
REMARK    2  A    between atoms: C_18  and  C_19 
REMARK       I    between atoms: C_19  and  N_20 
REMARK    3  A    between atoms: N_20  and  C_21 
REMARK    4  A    between atoms: C_24  and  O_25 
ROOT
HETATM    1  C   UNL     1      29.027  39.653  51.000  1.00  0.00     0.070 C 
HETATM    2  C   UNL     1      27.811  40.464  50.628  1.00  0.00     0.037 C 
HETATM    3  N   UNL     1      27.226  40.142  49.407  1.00  0.00    -0.192 N 
HETATM    4  C   UNL     1      26.022  40.607  49.021  1.00  0.00     0.725 A 
HETATM    5  N   UNL     1      25.382  41.537  49.793  1.00  0.00    -0.084 N 
HETATM    6  N   UNL     1      24.165  41.838  49.292  1.00  0.00    -0.149 NA
HETATM    7  C   UNL     1      24.155  41.073  48.194  1.00  0.00     0.275 A 
HETATM    8  N   UNL     1      25.274  40.306  47.991  1.00  0.00    -0.054 NA
HETATM    9  C   UNL     1      25.936  42.103  51.028  1.00  0.00     0.202 C 
HETATM   10  C   UNL     1      27.238  41.409  51.415  1.00  0.00     0.062 C 
HETATM   11  H   UNL     1      27.634  39.378  48.875  1.00  0.00     0.184 HD
ENDROOT
BRANCH  10  12
HETATM   12  C   UNL     1      27.737  41.801  52.762  1.00  0.00     0.256 C 
HETATM   13  N   UNL     1      28.474  42.965  52.756  1.00  0.00    -0.323 N 
HETATM   14  H   UNL     1      28.615  43.421  51.863  1.00  0.00     0.169 HD
HETATM   15  O   UNL     1      27.410  41.124  53.727  1.00  0.00    -0.267 OA
BRANCH  13  16
HETATM   16  C   UNL     1      29.068  43.603  53.865  1.00  0.00     0.035 A 
HETATM   17  C   UNL     1      28.562  44.754  54.467  1.00  0.00     0.032 A 
HETATM   18  C   UNL     1      29.214  45.321  55.568  1.00  0.00     0.039 A 
HETATM   19  C   UNL     1      30.372  44.745  56.091  1.00  0.00     0.068 A 
HETATM   20  C   UNL     1      30.882  43.595  55.495  1.00  0.00     0.039 A 
HETATM   21  C   UNL     1      30.236  43.032  54.386  1.00  0.00     0.032 A 
BRANCH  19  22
HETATM   22  O   UNL     1      30.900  45.398  57.170  1.00  0.00    -0.356 OA
HETATM   23  C   UNL     1      29.983  46.036  58.049  1.00  0.00     0.210 C 
ENDBRANCH  19  22
ENDBRANCH  13  16
ENDBRANCH  10  12
BRANCH   9  24
HETATM   24  C   UNL     1      26.111  43.616  50.891  1.00  0.00    -0.026 A 
HETATM   25  C   UNL     1      25.695  44.506  51.898  1.00  0.00     0.035 A 
HETATM   26  C   UNL     1      25.852  45.888  51.742  1.00  0.00     0.056 A 
HETATM   27 CL   UNL     1      25.312  46.905  53.031  1.00  0.00    -0.083 Cl
HETATM   28  C   UNL     1      26.421  46.399  50.572  1.00  0.00     0.055 A 
HETATM   29 CL   UNL     1      26.644  48.093  50.311  1.00  0.00    -0.083 Cl
HETATM   30  C   UNL     1      26.826  45.526  49.561  1.00  0.00     0.026 A 
HETATM   31  C   UNL     1      26.670  44.146  49.717  1.00  0.00     0.011 A 
ENDBRANCH   9  24
TORSDOF 4
ENDMDL
MODEL 2
REMARK VINA RESULT:      -8.0      6.838      9.681
REMARK  4 active torsions:
REMARK  status: ('A' for Active; 'I' for Inactive)
REMARK    1  A    between atoms: C_9  and  C_10 
REMARK    2  A    between atoms: C_18  and  C_19 
REMARK       I    between atoms: C_19  and  N_20 
REMARK    3  A    between atoms: N_20  and  C_21 
REMARK    4  A    between atoms: C_24  and  O_25 
ROOT
HETATM    1  C   UNL     1      25.758  49.385  48.878  1.00  0.00     0.070 C 
HETATM    2  C   UNL     1      25.200  48.056  49.321  1.00  0.00     0.037 C 
HETATM    3  N   UNL     1      26.115  47.188  49.911  1.00  0.00    -0.192 N 
HETATM    4  C   UNL     1      25.753  46.062  50.555  1.00  0.00     0.725 A 
HETATM    5  N   UNL     1      24.443  45.668  50.535  1.00  0.00    -0.084 N 
HETATM    6  N   UNL     1      24.251  44.562  51.283  1.00  0.00    -0.149 NA
HETATM    7  C   UNL     1      25.502  44.324  51.697  1.00  0.00     0.275 A 
HETATM    8  N   UNL     1      26.451  45.219  51.271  1.00  0.00    -0.054 NA
HETATM    9  C   UNL     1      23.380  46.384  49.821  1.00  0.00     0.202 C 
HETATM   10  C   UNL     1      23.895  47.697  49.240  1.00  0.00     0.062 C 
HETATM   11  H   UNL     1      27.071  47.516  50.026  1.00  0.00     0.184 HD
ENDROOT
BRANCH  10  12
HETATM   12  C   UNL     1      22.816  48.557  48.682  1.00  0.00     0.256 C 
HETATM   13  N   UNL     1      22.053  49.177  49.648  1.00  0.00    -0.323 N 
HETATM   14  H   UNL     1      22.283  48.982  50.615  1.00  0.00     0.169 HD
HETATM   15  O   UNL     1      22.742  48.689  47.467  1.00  0.00    -0.267 OA
BRANCH  13  16
HETATM   16  C   UNL     1      20.972  50.059  49.444  1.00  0.00     0.035 A 
HETATM   17  C   UNL     1      21.048  51.223  48.679  1.00  0.00     0.032 A 
HETATM   18  C   UNL     1      19.923  52.042  48.526  1.00  0.00     0.039 A 
HETATM   19  C   UNL     1      18.706  51.709  49.122  1.00  0.00     0.068 A 
HETATM   20  C   UNL     1      18.625  50.549  49.886  1.00  0.00     0.039 A 
HETATM   21  C   UNL     1      19.752  49.732  50.049  1.00  0.00     0.032 A 
BRANCH  19  22
HETATM   22  O   UNL     1      17.692  52.594  48.884  1.00  0.00    -0.356 OA
HETATM   23  C   UNL     1      16.755  52.799  49.933  1.00  0.00     0.210 C 
ENDBRANCH  19  22
ENDBRANCH  13  16
ENDBRANCH  10  12
BRANCH   9  24
HETATM   24  C   UNL     1      22.758  45.487  48.750  1.00  0.00    -0.026 A 
HETATM   25  C   UNL     1      21.369  45.453  48.525  1.00  0.00     0.035 A 
HETATM   26  C   UNL     1      20.823  44.611  47.549  1.00  0.00     0.056 A 
HETATM   27 CL   UNL     1      19.107  44.635  47.342  1.00  0.00    -0.083 Cl
HETATM   28  C   UNL     1      21.658  43.787  46.789  1.00  0.00     0.055 A 
HETATM   29 CL   UNL     1      21.053  42.723  45.570  1.00  0.00    -0.083 Cl
HETATM   30  C   UNL     1      23.036  43.804  47.013  1.00  0.00     0.026 A 
HETATM   31  C   UNL     1      23.582  44.644  47.987  1.00  0.00     0.011 A 
ENDBRANCH   9  24
TORSDOF 4
ENDMDL
MODEL 3
REMARK VINA RESULT:      -7.8      6.842      9.704
REMARK  4 active torsions:
REMARK  status: ('A' for Active; 'I' for Inactive)
REMARK    1  A    between atoms: C_9  and  C_10 
REMARK    2  A    between atoms: C_18  and  C_19 
REMARK       I    between atoms: C_19  and  N_20 
REMARK    3  A    between atoms: N_20  and  C_21 
REMARK    4  A    between atoms: C_24  and  O_25 
ROOT
HETATM    1  C   UNL     1      25.220  48.579  49.306  1.00  0.00     0.070 C 
HETATM    2  C   UNL     1      24.557  47.227  49.390  1.00  0.00     0.037 C 
HETATM    3  N   UNL     1      25.352  46.200  49.889  1.00  0.00    -0.192 N 
HETATM    4  C   UNL     1      24.865  44.992  50.234  1.00  0.00     0.725 A 
HETATM    5  N   UNL     1      23.555  44.697  49.976  1.00  0.00    -0.084 N 
HETATM    6  N   UNL     1      23.224  43.477  50.447  1.00  0.00    -0.149 NA
HETATM    7  C   UNL     1      24.400  43.079  50.947  1.00  0.00     0.275 A 
HETATM    8  N   UNL     1      25.430  43.977  50.834  1.00  0.00    -0.054 NA
HETATM    9  C   UNL     1      22.622  45.612  49.308  1.00  0.00     0.202 C 
HETATM   10  C   UNL     1      23.260  46.979  49.080  1.00  0.00     0.062 C 
HETATM   11  H   UNL     1      26.297  46.434  50.183  1.00  0.00     0.184 HD
ENDROOT
BRANCH  10  12
HETATM   12  C   UNL     1      22.298  48.004  48.592  1.00  0.00     0.256 C 
HETATM   13  N   UNL     1      21.690  48.714  49.605  1.00  0.00    -0.323 N 
HETATM   14  H   UNL     1      21.937  48.468  50.555  1.00  0.00     0.169 HD
HETATM   15  O   UNL     1      22.181  48.168  47.385  1.00  0.00    -0.267 OA
BRANCH  13  16
HETATM   16  C   UNL     1      20.747  49.754  49.469  1.00  0.00     0.035 A 
HETATM   17  C   UNL     1      20.958  50.905  48.712  1.00  0.00     0.032 A 
HETATM   18  C   UNL     1      19.966  51.889  48.630  1.00  0.00     0.039 A 
HETATM   19  C   UNL     1      18.747  51.735  49.291  1.00  0.00     0.068 A 
HETATM   20  C   UNL     1      18.530  50.588  50.047  1.00  0.00     0.039 A 
HETATM   21  C   UNL     1      19.526  49.606  50.139  1.00  0.00     0.032 A 
BRANCH  19  22
HETATM   22  O   UNL     1      17.868  52.768  49.118  1.00  0.00    -0.356 OA
HETATM   23  C   UNL     1      16.701  52.765  49.930  1.00  0.00     0.210 C 
ENDBRANCH  19  22
ENDBRANCH  13  16
ENDBRANCH  10  12
BRANCH   9  24
HETATM   24  C   UNL     1      22.110  44.995  48.006  1.00  0.00    -0.026 A 
HETATM   25  C   UNL     1      22.978  44.656  46.952  1.00  0.00     0.035 A 
HETATM   26  C   UNL     1      22.483  44.106  45.764  1.00  0.00     0.056 A 
HETATM   27 CL   UNL     1      23.624  43.721  44.524  1.00  0.00    -0.083 Cl
HETATM   28  C   UNL     1      21.110  43.894  45.611  1.00  0.00     0.055 A 
HETATM   29 CL   UNL     1      20.428  43.221  44.173  1.00  0.00    -0.083 Cl
HETATM   30  C   UNL     1      20.238  44.238  46.646  1.00  0.00     0.026 A 
HETATM   31  C   UNL     1      20.732  44.786  47.832  1.00  0.00     0.011 A 
ENDBRANCH   9  24
TORSDOF 4
ENDMDL
MODEL 4
REMARK VINA RESULT:      -7.6      3.482      5.006
REMARK  4 active torsions:
REMARK  status: ('A' for Active; 'I' for Inactive)
REMARK    1  A    between atoms: C_9  and  C_10 
REMARK    2  A    between atoms: C_18  and  C_19 
REMARK       I    between atoms: C_19  and  N_20 
REMARK    3  A    between atoms: N_20  and  C_21 
REMARK    4  A    between atoms: C_24  and  O_25 
ROOT
HETATM    1  C   UNL     1      23.222  43.097  50.292  1.00  0.00     0.070 C 
HETATM    2  C   UNL     1      23.976  42.294  49.262  1.00  0.00     0.037 C 
HETATM    3  N   UNL     1      23.189  41.560  48.380  1.00  0.00    -0.192 N 
HETATM    4  C   UNL     1      23.678  40.967  47.274  1.00  0.00     0.725 A 
HETATM    5  N   UNL     1      25.027  40.969  47.051  1.00  0.00    -0.084 N 
HETATM    6  N   UNL     1      25.331  40.393  45.869  1.00  0.00    -0.149 NA
HETATM    7  C   UNL     1      24.112  40.034  45.449  1.00  0.00     0.275 A 
HETATM    8  N   UNL     1      23.074  40.366  46.282  1.00  0.00    -0.054 NA
HETATM    9  C   UNL     1      26.011  41.560  47.966  1.00  0.00     0.202 C 
HETATM   10  C   UNL     1      25.324  42.299  49.110  1.00  0.00     0.062 C 
HETATM   11  H   UNL     1      22.179  41.636  48.472  1.00  0.00     0.184 HD
ENDROOT
BRANCH  10  12
HETATM   12  C   UNL     1      26.265  43.086  49.952  1.00  0.00     0.256 C 
HETATM   13  N   UNL     1      26.472  42.540  51.200  1.00  0.00    -0.323 N 
HETATM   14  H   UNL     1      25.969  41.691  51.424  1.00  0.00     0.169 HD
HETATM   15  O   UNL     1      26.804  44.071  49.464  1.00  0.00    -0.267 OA
BRANCH  13  16
HETATM   16  C   UNL     1      27.313  43.037  52.218  1.00  0.00     0.035 A 
HETATM   17  C   UNL     1      26.888  43.893  53.233  1.00  0.00     0.032 A 
HETATM   18  C   UNL     1      27.790  44.337  54.207  1.00  0.00     0.039 A 
HETATM   19  C   UNL     1      29.123  43.927  54.191  1.00  0.00     0.068 A 
HETATM   20  C   UNL     1      29.553  43.072  53.181  1.00  0.00     0.039 A 
HETATM   21  C   UNL     1      28.654  42.634  52.198  1.00  0.00     0.032 A 
BRANCH  19  22
HETATM   22  O   UNL     1      29.890  44.431  55.204  1.00  0.00    -0.356 OA
HETATM   23  C   UNL     1      29.451  45.643  55.803  1.00  0.00     0.210 C 
ENDBRANCH  19  22
ENDBRANCH  13  16
ENDBRANCH  10  12
BRANCH   9  24
HETATM   24  C   UNL     1      26.978  40.489  48.474  1.00  0.00    -0.026 A 
HETATM   25  C   UNL     1      26.524  39.253  48.968  1.00  0.00     0.035 A 
HETATM   26  C   UNL     1      27.428  38.295  49.442  1.00  0.00     0.056 A 
HETATM   27 CL   UNL     1      26.779  36.805  50.030  1.00  0.00    -0.083 Cl
HETATM   28  C   UNL     1      28.800  38.564  49.434  1.00  0.00     0.055 A 
HETATM   29 CL   UNL     1      29.972  37.431  50.005  1.00  0.00    -0.083 Cl
HETATM   30  C   UNL     1      29.260  39.793  48.957  1.00  0.00     0.026 A 
HETATM   31  C   UNL     1      28.358  40.749  48.484  1.00  0.00     0.011 A 
ENDBRANCH   9  24
TORSDOF 4
ENDMDL
MODEL 5
REMARK VINA RESULT:      -7.5      2.635      3.476
REMARK  4 active torsions:
REMARK  status: ('A' for Active; 'I' for Inactive)
REMARK    1  A    between atoms: C_9  and  C_10 
REMARK    2  A    between atoms: C_18  and  C_19 
REMARK       I    between atoms: C_19  and  N_20 
REMARK    3  A    between atoms: N_20  and  C_21 
REMARK    4  A    between atoms: C_24  and  O_25 
ROOT
HETATM    1  C   UNL     1      30.172  42.303  53.214  1.00  0.00     0.070 C 
HETATM    2  C   UNL     1      28.989  41.860  52.389  1.00  0.00     0.037 C 
HETATM    3  N   UNL     1      29.258  40.887  51.431  1.00  0.00    -0.192 N 
HETATM    4  C   UNL     1      28.294  40.224  50.763  1.00  0.00     0.725 A 
HETATM    5  N   UNL     1      26.988  40.594  50.927  1.00  0.00    -0.084 N 
HETATM    6  N   UNL     1      26.158  39.783  50.238  1.00  0.00    -0.149 NA
HETATM    7  C   UNL     1      27.041  38.966  49.652  1.00  0.00     0.275 A 
HETATM    8  N   UNL     1      28.360  39.205  49.946  1.00  0.00    -0.054 NA
HETATM    9  C   UNL     1      26.548  41.706  51.777  1.00  0.00     0.202 C 
HETATM   10  C   UNL     1      27.716  42.291  52.566  1.00  0.00     0.062 C 
HETATM   11  H   UNL     1      30.209  40.530  51.374  1.00  0.00     0.184 HD
ENDROOT
BRANCH  10  12
HETATM   12  C   UNL     1      27.295  43.284  53.592  1.00  0.00     0.256 C 
HETATM   13  N   UNL     1      27.565  44.588  53.237  1.00  0.00    -0.323 N 
HETATM   14  H   UNL     1      28.023  44.740  52.347  1.00  0.00     0.169 HD
HETATM   15  O   UNL     1      26.711  42.882  54.589  1.00  0.00    -0.267 OA
BRANCH  13  16
HETATM   16  C   UNL     1      27.278  45.750  53.982  1.00  0.00     0.035 A 
HETATM   17  C   UNL     1      27.989  46.148  55.113  1.00  0.00     0.032 A 
HETATM   18  C   UNL     1      27.637  47.320  55.793  1.00  0.00     0.039 A 
HETATM   19  C   UNL     1      26.581  48.117  55.350  1.00  0.00     0.068 A 
HETATM   20  C   UNL     1      25.868  47.726  54.221  1.00  0.00     0.039 A 
HETATM   21  C   UNL     1      26.212  46.547  53.545  1.00  0.00     0.032 A 
BRANCH  19  22
HETATM   22  O   UNL     1      26.352  49.234  56.104  1.00  0.00    -0.356 OA
HETATM   23  C   UNL     1      25.392  49.125  57.146  1.00  0.00     0.210 C 
ENDBRANCH  19  22
ENDBRANCH  13  16
ENDBRANCH  10  12
BRANCH   9  24
HETATM   24  C   UNL     1      25.832  42.767  50.940  1.00  0.00    -0.026 A 
HETATM   25  C   UNL     1      24.429  42.861  50.902  1.00  0.00     0.035 A 
HETATM   26  C   UNL     1      23.797  43.832  50.115  1.00  0.00     0.056 A 
HETATM   27 CL   UNL     1      22.069  43.872  50.130  1.00  0.00    -0.083 Cl
HETATM   28  C   UNL     1      24.561  44.718  49.351  1.00  0.00     0.055 A 
HETATM   29 CL   UNL     1      23.849  45.938  48.356  1.00  0.00    -0.083 Cl
HETATM   30  C   UNL     1      25.954  44.625  49.372  1.00  0.00     0.026 A 
HETATM   31  C   UNL     1      26.586  43.657  50.157  1.00  0.00     0.011 A 
ENDBRANCH   9  24
TORSDOF 4
ENDMDL
MODEL 6
REMARK VINA RESULT:      -7.5      3.362      4.831
REMARK  4 active torsions:
REMARK  status: ('A' for Active; 'I' for Inactive)
REMARK    1  A    between atoms: C_9  and  C_10 
REMARK    2  A    between atoms: C_18  and  C_19 
REMARK       I    between atoms: C_19  and  N_20 
REMARK    3  A    between atoms: N_20  and  C_21 
REMARK    4  A    between atoms: C_24  and  O_25 
ROOT
HETATM    1  C   UNL     1      24.426  45.176  52.302  1.00  0.00     0.070 C 
HETATM    2  C   UNL     1      24.471  44.390  51.016  1.00  0.00     0.037 C 
HETATM    3  N   UNL     1      23.253  44.244  50.360  1.00  0.00    -0.192 N 
HETATM    4  C   UNL     1      23.143  43.767  49.105  1.00  0.00     0.725 A 
HETATM    5  N   UNL     1      24.255  43.284  48.471  1.00  0.00    -0.084 N 
HETATM    6  N   UNL     1      23.975  42.912  47.204  1.00  0.00    -0.149 NA
HETATM    7  C   UNL     1      22.662  43.169  47.156  1.00  0.00     0.275 A 
HETATM    8  N   UNL     1      22.115  43.691  48.301  1.00  0.00    -0.054 NA
HETATM    9  C   UNL     1      25.587  43.217  49.082  1.00  0.00     0.202 C 
HETATM   10  C   UNL     1      25.599  43.895  50.449  1.00  0.00     0.062 C 
HETATM   11  H   UNL     1      22.437  44.691  50.772  1.00  0.00     0.184 HD
ENDROOT
BRANCH  10  12
HETATM   12  C   UNL     1      26.965  44.036  51.024  1.00  0.00     0.256 C 
HETATM   13  N   UNL     1      27.084  43.510  52.292  1.00  0.00    -0.323 N 
HETATM   14  H   UNL     1      26.254  43.104  52.705  1.00  0.00     0.169 HD
HETATM   15  O   UNL     1      27.845  44.525  50.328  1.00  0.00    -0.267 OA
BRANCH  13  16
HETATM   16  C   UNL     1      28.243  43.475  53.095  1.00  0.00     0.035 A 
HETATM   17  C   UNL     1      29.378  42.723  52.795  1.00  0.00     0.032 A 
HETATM   18  C   UNL     1      30.488  42.748  53.647  1.00  0.00     0.039 A 
HETATM   19  C   UNL     1      30.488  43.530  54.803  1.00  0.00     0.068 A 
HETATM   20  C   UNL     1      29.359  44.283  55.107  1.00  0.00     0.039 A 
HETATM   21  C   UNL     1      28.242  44.252  54.260  1.00  0.00     0.032 A 
BRANCH  19  22
HETATM   22  O   UNL     1      31.639  43.466  55.537  1.00  0.00    -0.356 OA
HETATM   23  C   UNL     1      31.515  43.616  56.945  1.00  0.00     0.210 C 
ENDBRANCH  19  22
ENDBRANCH  13  16
ENDBRANCH  10  12
BRANCH   9  24
HETATM   24  C   UNL     1      26.069  41.768  49.156  1.00  0.00    -0.026 A 
HETATM   25  C   UNL     1      26.834  41.187  48.127  1.00  0.00     0.035 A 
HETATM   26  C   UNL     1      27.251  39.853  48.211  1.00  0.00     0.056 A 
HETATM   27 CL   UNL     1      28.187  39.224  46.901  1.00  0.00    -0.083 Cl
HETATM   28  C   UNL     1      26.901  39.080  49.322  1.00  0.00     0.055 A 
HETATM   29 CL   UNL     1      27.378  37.428  49.490  1.00  0.00    -0.083 Cl
HETATM   30  C   UNL     1      26.131  39.643  50.342  1.00  0.00     0.026 A 
HETATM   31  C   UNL     1      25.716  40.975  50.259  1.00  0.00     0.011 A 
ENDBRANCH   9  24
TORSDOF 4
ENDMDL
MODEL 7
REMARK VINA RESULT:      -7.5      3.627      5.285
REMARK  4 active torsions:
REMARK  status: ('A' for Active; 'I' for Inactive)
REMARK    1  A    between atoms: C_9  and  C_10 
REMARK    2  A    between atoms: C_18  and  C_19 
REMARK       I    between atoms: C_19  and  N_20 
REMARK    3  A    between atoms: N_20  and  C_21 
REMARK    4  A    between atoms: C_24  and  O_25 
ROOT
HETATM    1  C   UNL     1      24.842  42.626  50.815  1.00  0.00     0.070 C 
HETATM    2  C   UNL     1      25.897  41.895  50.023  1.00  0.00     0.037 C 
HETATM    3  N   UNL     1      25.594  41.671  48.683  1.00  0.00    -0.192 N 
HETATM    4  C   UNL     1      26.498  41.234  47.786  1.00  0.00     0.725 A 
HETATM    5  N   UNL     1      27.745  40.870  48.211  1.00  0.00    -0.084 N 
HETATM    6  N   UNL     1      28.537  40.524  47.175  1.00  0.00    -0.149 NA
HETATM    7  C   UNL     1      27.683  40.670  46.154  1.00  0.00     0.275 A 
HETATM    8  N   UNL     1      26.424  41.101  46.487  1.00  0.00    -0.054 NA
HETATM    9  C   UNL     1      28.175  40.893  49.614  1.00  0.00     0.202 C 
HETATM   10  C   UNL     1      27.107  41.518  50.506  1.00  0.00     0.062 C 
HETATM   11  H   UNL     1      24.710  42.032  48.332  1.00  0.00     0.184 HD
ENDROOT
BRANCH  10  12
HETATM   12  C   UNL     1      27.568  41.752  51.902  1.00  0.00     0.256 C 
HETATM   13  N   UNL     1      28.374  42.863  52.035  1.00  0.00    -0.323 N 
HETATM   14  H   UNL     1      28.580  43.388  51.195  1.00  0.00     0.169 HD
HETATM   15  O   UNL     1      27.159  41.011  52.785  1.00  0.00    -0.267 OA
BRANCH  13  16
HETATM   16  C   UNL     1      28.956  43.356  53.221  1.00  0.00     0.035 A 
HETATM   17  C   UNL     1      30.103  42.823  53.808  1.00  0.00     0.032 A 
HETATM   18  C   UNL     1      30.615  43.377  54.987  1.00  0.00     0.039 A 
HETATM   19  C   UNL     1      30.000  44.473  55.592  1.00  0.00     0.068 A 
HETATM   20  C   UNL     1      28.855  45.009  55.011  1.00  0.00     0.039 A 
HETATM   21  C   UNL     1      28.334  44.450  53.835  1.00  0.00     0.032 A 
BRANCH  19  22
HETATM   22  O   UNL     1      30.610  44.915  56.733  1.00  0.00    -0.356 OA
HETATM   23  C   UNL     1      31.437  43.987  57.422  1.00  0.00     0.210 C 
ENDBRANCH  19  22
ENDBRANCH  13  16
ENDBRANCH  10  12
BRANCH   9  24
HETATM   24  C   UNL     1      28.560  39.488  50.078  1.00  0.00    -0.026 A 
HETATM   25  C   UNL     1      27.813  38.354  49.710  1.00  0.00     0.035 A 
HETATM   26  C   UNL     1      28.178  37.079  50.161  1.00  0.00     0.056 A 
HETATM   27 CL   UNL     1      27.201  35.745  49.659  1.00  0.00    -0.083 Cl
HETATM   28  C   UNL     1      29.290  36.923  50.992  1.00  0.00     0.055 A 
HETATM   29 CL   UNL     1      29.796  35.382  51.587  1.00  0.00    -0.083 Cl
HETATM   30  C   UNL     1      30.031  38.044  51.373  1.00  0.00     0.026 A 
HETATM   31  C   UNL     1      29.669  39.316  50.923  1.00  0.00     0.011 A 
ENDBRANCH   9  24
TORSDOF 4
ENDMDL
MODEL 8
REMARK VINA RESULT:      -7.4      3.987      6.201
REMARK  4 active torsions:
REMARK  status: ('A' for Active; 'I' for Inactive)
REMARK    1  A    between atoms: C_9  and  C_10 
REMARK    2  A    between atoms: C_18  and  C_19 
REMARK       I    between atoms: C_19  and  N_20 
REMARK    3  A    between atoms: N_20  and  C_21 
REMARK    4  A    between atoms: C_24  and  O_25 
ROOT
HETATM    1  C   UNL     1      28.690  42.285  52.615  1.00  0.00     0.070 C 
HETATM    2  C   UNL     1      28.405  41.192  51.615  1.00  0.00     0.037 C 
HETATM    3  N   UNL     1      29.298  40.124  51.625  1.00  0.00    -0.192 N 
HETATM    4  C   UNL     1      29.076  38.973  50.961  1.00  0.00     0.725 A 
HETATM    5  N   UNL     1      27.991  38.872  50.134  1.00  0.00    -0.084 N 
HETATM    6  N   UNL     1      27.889  37.634  49.607  1.00  0.00    -0.149 NA
HETATM    7  C   UNL     1      28.972  37.051  50.135  1.00  0.00     0.275 A 
HETATM    8  N   UNL     1      29.726  37.839  50.968  1.00  0.00    -0.054 NA
HETATM    9  C   UNL     1      27.041  39.963  49.887  1.00  0.00     0.202 C 
HETATM   10  C   UNL     1      27.333  41.161  50.786  1.00  0.00     0.062 C 
HETATM   11  H   UNL     1      30.049  40.142  52.310  1.00  0.00     0.184 HD
ENDROOT
BRANCH  10  12
HETATM   12  C   UNL     1      26.283  42.213  50.723  1.00  0.00     0.256 C 
HETATM   13  N   UNL     1      26.781  43.472  50.468  1.00  0.00    -0.323 N 
HETATM   14  H   UNL     1      27.784  43.561  50.364  1.00  0.00     0.169 HD
HETATM   15  O   UNL     1      25.111  41.877  50.834  1.00  0.00    -0.267 OA
BRANCH  13  16
HETATM   16  C   UNL     1      26.046  44.669  50.335  1.00  0.00     0.035 A 
HETATM   17  C   UNL     1      25.049  44.871  49.382  1.00  0.00     0.032 A 
HETATM   18  C   UNL     1      24.366  46.091  49.323  1.00  0.00     0.039 A 
HETATM   19  C   UNL     1      24.658  47.122  50.216  1.00  0.00     0.068 A 
HETATM   20  C   UNL     1      25.652  46.926  51.170  1.00  0.00     0.039 A 
HETATM   21  C   UNL     1      26.345  45.708  51.225  1.00  0.00     0.032 A 
BRANCH  19  22
HETATM   22  O   UNL     1      23.911  48.254  50.049  1.00  0.00    -0.356 OA
HETATM   23  C   UNL     1      24.185  49.045  48.900  1.00  0.00     0.210 C 
ENDBRANCH  19  22
ENDBRANCH  13  16
ENDBRANCH  10  12
BRANCH   9  24
HETATM   24  C   UNL     1      27.037  40.343  48.406  1.00  0.00    -0.026 A 
HETATM   25  C   UNL     1      25.863  40.304  47.633  1.00  0.00     0.035 A 
HETATM   26  C   UNL     1      25.889  40.642  46.274  1.00  0.00     0.056 A 
HETATM   27 CL   UNL     1      24.398  40.564  45.402  1.00  0.00    -0.083 Cl
HETATM   28  C   UNL     1      27.092  41.017  45.670  1.00  0.00     0.055 A 
HETATM   29 CL   UNL     1      27.198  41.446  43.999  1.00  0.00    -0.083 Cl
HETATM   30  C   UNL     1      28.265  41.048  46.426  1.00  0.00     0.026 A 
HETATM   31  C   UNL     1      28.240  40.711  47.782  1.00  0.00     0.011 A 
ENDBRANCH   9  24
TORSDOF 4
ENDMDL
MODEL 9
REMARK VINA RESULT:      -7.4      6.806      9.871
REMARK  4 active torsions:
REMARK  status: ('A' for Active; 'I' for Inactive)
REMARK    1  A    between atoms: C_9  and  C_10 
REMARK    2  A    between atoms: C_18  and  C_19 
REMARK       I    between atoms: C_19  and  N_20 
REMARK    3  A    between atoms: N_20  and  C_21 
REMARK    4  A    between atoms: C_24  and  O_25 
ROOT
HETATM    1  C   UNL     1      18.852  47.275  45.457  1.00  0.00     0.070 C 
HETATM    2  C   UNL     1      19.427  47.921  46.692  1.00  0.00     0.037 C 
HETATM    3  N   UNL     1      18.722  49.019  47.177  1.00  0.00    -0.192 N 
HETATM    4  C   UNL     1      18.964  49.578  48.378  1.00  0.00     0.725 A 
HETATM    5  N   UNL     1      20.025  49.140  49.122  1.00  0.00    -0.084 N 
HETATM    6  N   UNL     1      20.075  49.760  50.320  1.00  0.00    -0.149 NA
HETATM    7  C   UNL     1      19.028  50.587  50.213  1.00  0.00     0.275 A 
HETATM    8  N   UNL     1      18.323  50.507  49.038  1.00  0.00    -0.054 NA
HETATM    9  C   UNL     1      20.963  48.100  48.684  1.00  0.00     0.202 C 
HETATM   10  C   UNL     1      20.511  47.470  47.370  1.00  0.00     0.062 C 
HETATM   11  H   UNL     1      17.871  49.287  46.689  1.00  0.00     0.184 HD
ENDROOT
BRANCH  10  12
HETATM   12  C   UNL     1      21.312  46.276  46.984  1.00  0.00     0.256 C 
HETATM   13  N   UNL     1      21.088  45.182  47.791  1.00  0.00    -0.323 N 
HETATM   14  H   UNL     1      20.433  45.294  48.554  1.00  0.00     0.169 HD
HETATM   15  O   UNL     1      22.019  46.343  45.988  1.00  0.00    -0.267 OA
BRANCH  13  16
HETATM   16  C   UNL     1      21.679  43.905  47.678  1.00  0.00     0.035 A 
HETATM   17  C   UNL     1      22.610  43.393  48.580  1.00  0.00     0.032 A 
HETATM   18  C   UNL     1      23.145  42.114  48.394  1.00  0.00     0.039 A 
HETATM   19  C   UNL     1      22.754  41.322  47.313  1.00  0.00     0.068 A 
HETATM   20  C   UNL     1      21.824  41.828  46.410  1.00  0.00     0.039 A 
HETATM   21  C   UNL     1      21.294  43.113  46.589  1.00  0.00     0.032 A 
BRANCH  19  22
HETATM   22  O   UNL     1      23.350  40.094  47.258  1.00  0.00    -0.356 OA
HETATM   23  C   UNL     1      24.679  40.044  46.757  1.00  0.00     0.210 C 
ENDBRANCH  19  22
ENDBRANCH  13  16
ENDBRANCH  10  12
BRANCH   9  24
HETATM   24  C   UNL     1      22.381  48.665  48.592  1.00  0.00    -0.026 A 
HETATM   25  C   UNL     1      23.458  48.086  49.289  1.00  0.00     0.035 A 
HETATM   26  C   UNL     1      24.744  48.632  49.200  1.00  0.00     0.056 A 
HETATM   27 CL   UNL     1      26.005  47.854  50.091  1.00  0.00    -0.083 Cl
HETATM   28  C   UNL     1      24.970  49.768  48.418  1.00  0.00     0.055 A 
HETATM   29 CL   UNL     1      26.529  50.495  48.264  1.00  0.00    -0.083 Cl
HETATM   30  C   UNL     1      23.906  50.358  47.732  1.00  0.00     0.026 A 
HETATM   31  C   UNL     1      22.621  49.814  47.820  1.00  0.00     0.011 A 
ENDBRANCH   9  24
TORSDOF 4
ENDMDL
MODEL 10
REMARK VINA RESULT:      -7.4      9.816     12.458
REMARK  4 active torsions:
REMARK  status: ('A' for Active; 'I' for Inactive)
REMARK    1  A    between atoms: C_9  and  C_10 
REMARK    2  A    between atoms: C_18  and  C_19 
REMARK       I    between atoms: C_19  and  N_20 
REMARK    3  A    between atoms: N_20  and  C_21 
REMARK    4  A    between atoms: C_24  and  O_25 
ROOT
HETATM    1  C   UNL     1      22.149  50.170  49.603  1.00  0.00     0.070 C 
HETATM    2  C   UNL     1      21.494  48.876  49.190  1.00  0.00     0.037 C 
HETATM    3  N   UNL     1      22.356  47.896  48.707  1.00  0.00    -0.192 N 
HETATM    4  C   UNL     1      21.979  46.620  48.500  1.00  0.00     0.725 A 
HETATM    5  N   UNL     1      20.663  46.275  48.648  1.00  0.00    -0.084 N 
HETATM    6  N   UNL     1      20.479  44.951  48.470  1.00  0.00    -0.149 NA
HETATM    7  C   UNL     1      21.728  44.565  48.181  1.00  0.00     0.275 A 
HETATM    8  N   UNL     1      22.674  45.558  48.187  1.00  0.00    -0.054 NA
HETATM    9  C   UNL     1      19.599  47.224  48.997  1.00  0.00     0.202 C 
HETATM   10  C   UNL     1      20.173  48.600  49.320  1.00  0.00     0.062 C 
HETATM   11  H   UNL     1      23.351  48.107  48.692  1.00  0.00     0.184 HD
ENDROOT
BRANCH  10  12
HETATM   12  C   UNL     1      19.164  49.543  49.874  1.00  0.00     0.256 C 
HETATM   13  N   UNL     1      18.563  50.330  48.916  1.00  0.00    -0.323 N 
HETATM   14  H   UNL     1      18.866  50.206  47.958  1.00  0.00     0.169 HD
HETATM   15  O   UNL     1      18.916  49.497  51.072  1.00  0.00    -0.267 OA
BRANCH  13  16
HETATM   16  C   UNL     1      17.563  51.304  49.118  1.00  0.00     0.035 A 
HETATM   17  C   UNL     1      17.767  52.501  49.804  1.00  0.00     0.032 A 
HETATM   18  C   UNL     1      16.719  53.415  49.957  1.00  0.00     0.039 A 
HETATM   19  C   UNL     1      15.457  53.157  49.420  1.00  0.00     0.068 A 
HETATM   20  C   UNL     1      15.248  51.965  48.733  1.00  0.00     0.039 A 
HETATM   21  C   UNL     1      16.294  51.043  48.588  1.00  0.00     0.032 A 
BRANCH  19  22
HETATM   22  O   UNL     1      14.530  54.138  49.637  1.00  0.00    -0.356 OA
HETATM   23  C   UNL     1      15.022  55.419  50.007  1.00  0.00     0.210 C 
ENDBRANCH  19  22
ENDBRANCH  13  16
ENDBRANCH  10  12
BRANCH   9  24
HETATM   24  C   UNL     1      18.553  47.285  47.883  1.00  0.00    -0.026 A 
HETATM   25  C   UNL     1      18.910  47.514  46.542  1.00  0.00     0.035 A 
HETATM   26  C   UNL     1      17.931  47.582  45.542  1.00  0.00     0.056 A 
HETATM   27 CL   UNL     1      18.462  47.867  43.922  1.00  0.00    -0.083 Cl
HETATM   28  C   UNL     1      16.582  47.428  45.873  1.00  0.00     0.055 A 
HETATM   29 CL   UNL     1      15.323  47.501  44.692  1.00  0.00    -0.083 Cl
HETATM   30  C   UNL     1      16.217  47.212  47.203  1.00  0.00     0.026 A 
HETATM   31  C   UNL     1      17.192  47.144  48.201  1.00  0.00     0.011 A 
ENDBRANCH   9  24
TORSDOF 4
ENDMDL
