MODEL 1
REMARK VINA RESULT:      -8.3      0.000      0.000
REMARK  9 active torsions:
REMARK  status: ('A' for Active; 'I' for Inactive)
REMARK    1  A    between atoms: O_2  and  C_3 
REMARK    2  A    between atoms: C_4  and  S_5 
REMARK    3  A    between atoms: S_5  and  N_6 
REMARK    4  A    between atoms: N_6  and  C_7 
REMARK    5  A    between atoms: C_7  and  C_8 
REMARK    6  A    between atoms: C_7  and  C_21 
REMARK       I    between atoms: C_8  and  N_9 
REMARK    7  A    between atoms: N_9  and  C_10 
REMARK    8  A    between atoms: C_21  and  C_22 
REMARK    9  A    between atoms: C_22  and  S_23 
ROOT
HETATM    1  C   UNL     1      27.179  42.152  51.042  1.00  0.00     0.165 C 
ENDROOT
BRANCH   1   2
HETATM    2  N   UNL     1      25.718  42.069  51.313  1.00  0.00    -0.202 NA
HETATM    3  H   UNL     1      25.482  42.143  52.309  1.00  0.00     0.141 HD
BRANCH   2   4
HETATM    4  S   UNL     1      24.755  43.215  50.496  1.00  0.00     0.245 S 
HETATM    5  O   UNL     1      23.379  42.940  50.841  1.00  0.00    -0.206 OA
HETATM    6  O   UNL     1      25.238  43.202  49.134  1.00  0.00    -0.206 OA
BRANCH   4   7
HETATM    7  C   UNL     1      25.219  44.774  51.187  1.00  0.00     0.107 A 
HETATM    8  C   UNL     1      25.234  44.933  52.575  1.00  0.00     0.091 A 
HETATM    9  C   UNL     1      25.657  46.140  53.136  1.00  0.00     0.038 A 
HETATM   10  C   UNL     1      26.026  47.203  52.311  1.00  0.00     0.003 A 
HETATM   11  C   UNL     1      25.980  47.057  50.925  1.00  0.00     0.002 A 
HETATM   12  C   UNL     1      25.577  45.845  50.360  1.00  0.00     0.028 A 
BRANCH   8  13
HETATM   13  O   UNL     1      24.906  43.927  53.438  1.00  0.00    -0.354 OA
HETATM   14  C   UNL     1      25.290  44.238  54.779  1.00  0.00     0.210 C 
ENDBRANCH   8  13
ENDBRANCH   4   7
ENDBRANCH   2   4
ENDBRANCH   1   2
BRANCH   1  15
HETATM   15  C   UNL     1      27.925  42.264  52.385  1.00  0.00     0.254 C 
HETATM   16  N   UNL     1      28.469  43.508  52.617  1.00  0.00    -0.156 N 
HETATM   17  H   UNL     1      28.412  44.261  51.944  1.00  0.00     0.187 HD
HETATM   18  O   UNL     1      28.052  41.293  53.136  1.00  0.00    -0.271 OA
BRANCH  16  19
HETATM   19  C   UNL     1      29.092  43.830  53.793  1.00  0.00     0.708 A 
HETATM   20  N   UNL     1      28.808  44.889  54.513  1.00  0.00    -0.062 NA
HETATM   21  C   UNL     1      29.628  44.804  55.616  1.00  0.00     0.103 A 
HETATM   22  C   UNL     1      30.417  43.660  55.566  1.00  0.00     0.078 A 
HETATM   23  C   UNL     1      29.749  45.670  56.713  1.00  0.00     0.034 A 
HETATM   24  N   UNL     1      30.070  43.068  54.382  1.00  0.00    -0.188 N 
HETATM   25  C   UNL     1      31.321  43.304  56.569  1.00  0.00     0.032 A 
HETATM   26  H   UNL     1      30.429  42.205  53.993  1.00  0.00     0.184 HD
HETATM   27  C   UNL     1      31.419  44.175  57.661  1.00  0.00     0.002 A 
HETATM   28  C   UNL     1      30.653  45.341  57.732  1.00  0.00     0.002 A 
ENDBRANCH  16  19
ENDBRANCH   1  15
BRANCH   1  29
HETATM   29  C   UNL     1      27.652  40.874  50.335  1.00  0.00     0.040 C 
BRANCH  29  30
HETATM   30  C   UNL     1      26.562  39.836  50.068  1.00  0.00     0.075 C 
BRANCH  30  31
HETATM   31  S   UNL     1      27.115  38.380  49.119  1.00  0.00    -0.173 SA
HETATM   32  C   UNL     1      28.786  38.189  49.788  1.00  0.00     0.089 C 
ENDBRANCH  30  31
ENDBRANCH  29  30
ENDBRANCH   1  29
TORSDOF 9
ENDMDL
MODEL 2
REMARK VINA RESULT:      -8.1      3.092      7.182
REMARK  9 active torsions:
REMARK  status: ('A' for Active; 'I' for Inactive)
REMARK    1  A    between atoms: O_2  and  C_3 
REMARK    2  A    between atoms: C_4  and  S_5 
REMARK    3  A    between atoms: S_5  and  N_6 
REMARK    4  A    between atoms: N_6  and  C_7 
REMARK    5  A    between atoms: C_7  and  C_8 
REMARK    6  A    between atoms: C_7  and  C_21 
REMARK       I    between atoms: C_8  and  N_9 
REMARK    7  A    between atoms: N_9  and  C_10 
REMARK    8  A    between atoms: C_21  and  C_22 
REMARK    9  A    between atoms: C_22  and  S_23 
ROOT
HETATM    1  C   UNL     1      25.316  43.815  51.892  1.00  0.00     0.165 C 
ENDROOT
BRANCH   1   2
HETATM    2  N   UNL     1      26.556  44.447  52.420  1.00  0.00    -0.202 NA
HETATM    3  H   UNL     1      26.843  45.283  51.898  1.00  0.00     0.141 HD
BRANCH   2   4
HETATM    4  S   UNL     1      26.508  44.891  54.066  1.00  0.00     0.245 S 
HETATM    5  O   UNL     1      25.536  44.037  54.710  1.00  0.00    -0.206 OA
HETATM    6  O   UNL     1      26.400  46.333  54.058  1.00  0.00    -0.206 OA
BRANCH   4   7
HETATM    7  C   UNL     1      28.115  44.504  54.689  1.00  0.00     0.107 A 
HETATM    8  C   UNL     1      28.692  43.269  54.381  1.00  0.00     0.091 A 
HETATM    9  C   UNL     1      29.986  42.974  54.816  1.00  0.00     0.038 A 
HETATM   10  C   UNL     1      30.689  43.893  55.593  1.00  0.00     0.003 A 
HETATM   11  C   UNL     1      30.103  45.112  55.930  1.00  0.00     0.002 A 
HETATM   12  C   UNL     1      28.817  45.420  55.481  1.00  0.00     0.028 A 
BRANCH   8  13
HETATM   13  O   UNL     1      28.067  42.333  53.607  1.00  0.00    -0.354 OA
HETATM   14  C   UNL     1      28.982  41.690  52.717  1.00  0.00     0.210 C 
ENDBRANCH   8  13
ENDBRANCH   4   7
ENDBRANCH   2   4
ENDBRANCH   1   2
BRANCH   1  15
HETATM   15  C   UNL     1      24.571  44.842  51.019  1.00  0.00     0.254 C 
HETATM   16  N   UNL     1      25.080  46.119  51.106  1.00  0.00    -0.156 N 
HETATM   17  H   UNL     1      25.848  46.358  51.718  1.00  0.00     0.187 HD
HETATM   18  O   UNL     1      23.578  44.527  50.358  1.00  0.00    -0.271 OA
BRANCH  16  19
HETATM   19  C   UNL     1      24.609  47.151  50.339  1.00  0.00     0.708 A 
HETATM   20  N   UNL     1      25.360  48.107  49.847  1.00  0.00    -0.062 NA
HETATM   21  C   UNL     1      24.503  48.898  49.116  1.00  0.00     0.103 A 
HETATM   22  C   UNL     1      23.206  48.400  49.157  1.00  0.00     0.078 A 
HETATM   23  C   UNL     1      24.766  50.061  48.378  1.00  0.00     0.034 A 
HETATM   24  N   UNL     1      23.298  47.297  49.962  1.00  0.00    -0.188 N 
HETATM   25  C   UNL     1      22.134  48.985  48.480  1.00  0.00     0.032 A 
HETATM   26  H   UNL     1      22.556  46.662  50.229  1.00  0.00     0.184 HD
HETATM   27  C   UNL     1      22.418  50.140  47.739  1.00  0.00     0.002 A 
HETATM   28  C   UNL     1      23.709  50.674  47.692  1.00  0.00     0.002 A 
ENDBRANCH  16  19
ENDBRANCH   1  15
BRANCH   1  29
HETATM   29  C   UNL     1      25.679  42.609  51.012  1.00  0.00     0.040 C 
BRANCH  29  30
HETATM   30  C   UNL     1      26.729  42.883  49.934  1.00  0.00     0.075 C 
BRANCH  30  31
HETATM   31  S   UNL     1      27.277  41.406  49.016  1.00  0.00    -0.173 SA
HETATM   32  C   UNL     1      26.460  40.115  49.986  1.00  0.00     0.089 C 
ENDBRANCH  30  31
ENDBRANCH  29  30
ENDBRANCH   1  29
TORSDOF 9
ENDMDL
MODEL 3
REMARK VINA RESULT:      -8.0      3.673      7.729
REMARK  9 active torsions:
REMARK  status: ('A' for Active; 'I' for Inactive)
REMARK    1  A    between atoms: O_2  and  C_3 
REMARK    2  A    between atoms: C_4  and  S_5 
REMARK    3  A    between atoms: S_5  and  N_6 
REMARK    4  A    between atoms: N_6  and  C_7 
REMARK    5  A    between atoms: C_7  and  C_8 
REMARK    6  A    between atoms: C_7  and  C_21 
REMARK       I    between atoms: C_8  and  N_9 
REMARK    7  A    between atoms: N_9  and  C_10 
REMARK    8  A    between atoms: C_21  and  C_22 
REMARK    9  A    between atoms: C_22  and  S_23 
ROOT
HETATM    1  C   UNL     1      26.033  45.005  51.385  1.00  0.00     0.165 C 
ENDROOT
BRANCH   1   2
HETATM    2  N   UNL     1      27.032  45.189  52.473  1.00  0.00    -0.202 NA
HETATM    3  H   UNL     1      26.834  45.995  53.077  1.00  0.00     0.141 HD
BRANCH   2   4
HETATM    4  S   UNL     1      27.248  43.848  53.503  1.00  0.00     0.245 S 
HETATM    5  O   UNL     1      27.669  42.739  52.677  1.00  0.00    -0.206 OA
HETATM    6  O   UNL     1      26.054  43.808  54.317  1.00  0.00    -0.206 OA
BRANCH   4   7
HETATM    7  C   UNL     1      28.579  44.304  54.572  1.00  0.00     0.107 A 
HETATM    8  C   UNL     1      28.518  45.516  55.265  1.00  0.00     0.091 A 
HETATM    9  C   UNL     1      29.533  45.862  56.160  1.00  0.00     0.038 A 
HETATM   10  C   UNL     1      30.629  45.017  56.333  1.00  0.00     0.003 A 
HETATM   11  C   UNL     1      30.708  43.823  55.618  1.00  0.00     0.002 A 
HETATM   12  C   UNL     1      29.686  43.464  54.738  1.00  0.00     0.028 A 
BRANCH   8  13
HETATM   13  O   UNL     1      27.464  46.378  55.156  1.00  0.00    -0.354 OA
HETATM   14  C   UNL     1      27.897  47.702  54.835  1.00  0.00     0.210 C 
ENDBRANCH   8  13
ENDBRANCH   4   7
ENDBRANCH   2   4
ENDBRANCH   1   2
BRANCH   1  15
HETATM   15  C   UNL     1      25.236  46.313  51.219  1.00  0.00     0.254 C 
HETATM   16  N   UNL     1      24.698  46.480  49.962  1.00  0.00    -0.156 N 
HETATM   17  H   UNL     1      24.850  45.819  49.212  1.00  0.00     0.187 HD
HETATM   18  O   UNL     1      25.154  47.138  52.132  1.00  0.00    -0.271 OA
BRANCH  16  19
HETATM   19  C   UNL     1      23.884  47.536  49.646  1.00  0.00     0.708 A 
HETATM   20  N   UNL     1      24.306  48.765  49.471  1.00  0.00    -0.062 NA
HETATM   21  C   UNL     1      23.183  49.485  49.132  1.00  0.00     0.103 A 
HETATM   22  C   UNL     1      22.058  48.668  49.091  1.00  0.00     0.078 A 
HETATM   23  C   UNL     1      23.047  50.849  48.836  1.00  0.00     0.034 A 
HETATM   24  N   UNL     1      22.531  47.433  49.444  1.00  0.00    -0.188 N 
HETATM   25  C   UNL     1      20.785  49.126  48.745  1.00  0.00     0.032 A 
HETATM   26  H   UNL     1      22.008  46.570  49.523  1.00  0.00     0.184 HD
HETATM   27  C   UNL     1      20.672  50.489  48.442  1.00  0.00     0.002 A 
HETATM   28  C   UNL     1      21.780  51.339  48.492  1.00  0.00     0.002 A 
ENDBRANCH  16  19
ENDBRANCH   1  15
BRANCH   1  29
HETATM   29  C   UNL     1      26.753  44.709  50.061  1.00  0.00     0.040 C 
BRANCH  29  30
HETATM   30  C   UNL     1      26.414  43.362  49.423  1.00  0.00     0.075 C 
BRANCH  30  31
HETATM   31  S   UNL     1      25.100  42.428  50.274  1.00  0.00    -0.173 SA
HETATM   32  C   UNL     1      25.885  40.800  50.370  1.00  0.00     0.089 C 
ENDBRANCH  30  31
ENDBRANCH  29  30
ENDBRANCH   1  29
TORSDOF 9
ENDMDL
MODEL 4
REMARK VINA RESULT:      -7.7      3.210      4.537
REMARK  9 active torsions:
REMARK  status: ('A' for Active; 'I' for Inactive)
REMARK    1  A    between atoms: O_2  and  C_3 
REMARK    2  A    between atoms: C_4  and  S_5 
REMARK    3  A    between atoms: S_5  and  N_6 
REMARK    4  A    between atoms: N_6  and  C_7 
REMARK    5  A    between atoms: C_7  and  C_8 
REMARK    6  A    between atoms: C_7  and  C_21 
REMARK       I    between atoms: C_8  and  N_9 
REMARK    7  A    between atoms: N_9  and  C_10 
REMARK    8  A    between atoms: C_21  and  C_22 
REMARK    9  A    between atoms: C_22  and  S_23 
ROOT
HETATM    1  C   UNL     1      24.658  44.209  50.643  1.00  0.00     0.165 C 
ENDROOT
BRANCH   1   2
HETATM    2  N   UNL     1      23.914  45.497  50.581  1.00  0.00    -0.202 NA
HETATM    3  H   UNL     1      23.386  45.705  51.436  1.00  0.00     0.141 HD
BRANCH   2   4
HETATM    4  S   UNL     1      24.861  46.874  50.244  1.00  0.00     0.245 S 
HETATM    5  O   UNL     1      25.980  46.437  49.442  1.00  0.00    -0.206 OA
HETATM    6  O   UNL     1      25.024  47.534  51.520  1.00  0.00    -0.206 OA
BRANCH   4   7
HETATM    7  C   UNL     1      23.822  47.912  49.262  1.00  0.00     0.107 A 
HETATM    8  C   UNL     1      24.272  49.182  48.893  1.00  0.00     0.091 A 
HETATM    9  C   UNL     1      23.488  49.990  48.066  1.00  0.00     0.038 A 
HETATM   10  C   UNL     1      22.236  49.546  47.641  1.00  0.00     0.003 A 
HETATM   11  C   UNL     1      21.770  48.293  48.035  1.00  0.00     0.002 A 
HETATM   12  C   UNL     1      22.560  47.474  48.845  1.00  0.00     0.028 A 
BRANCH   8  13
HETATM   13  O   UNL     1      25.496  49.668  49.258  1.00  0.00    -0.354 OA
HETATM   14  C   UNL     1      26.357  49.824  48.128  1.00  0.00     0.210 C 
ENDBRANCH   8  13
ENDBRANCH   4   7
ENDBRANCH   2   4
ENDBRANCH   1   2
BRANCH   1  15
HETATM   15  C   UNL     1      25.454  44.161  51.960  1.00  0.00     0.254 C 
HETATM   16  N   UNL     1      26.820  44.139  51.783  1.00  0.00    -0.156 N 
HETATM   17  H   UNL     1      27.250  44.117  50.869  1.00  0.00     0.187 HD
HETATM   18  O   UNL     1      24.888  44.093  53.054  1.00  0.00    -0.271 OA
BRANCH  16  19
HETATM   19  C   UNL     1      27.697  44.185  52.834  1.00  0.00     0.708 A 
HETATM   20  N   UNL     1      28.671  43.326  53.020  1.00  0.00    -0.062 NA
HETATM   21  C   UNL     1      29.322  43.760  54.152  1.00  0.00     0.103 A 
HETATM   22  C   UNL     1      28.735  44.916  54.655  1.00  0.00     0.078 A 
HETATM   23  C   UNL     1      30.436  43.218  54.810  1.00  0.00     0.034 A 
HETATM   24  N   UNL     1      27.687  45.152  53.806  1.00  0.00    -0.188 N 
HETATM   25  C   UNL     1      29.208  45.594  55.780  1.00  0.00     0.032 A 
HETATM   26  H   UNL     1      27.021  45.914  53.844  1.00  0.00     0.184 HD
HETATM   27  C   UNL     1      30.328  45.044  56.417  1.00  0.00     0.002 A 
HETATM   28  C   UNL     1      30.930  43.873  55.946  1.00  0.00     0.002 A 
ENDBRANCH  16  19
ENDBRANCH   1  15
BRANCH   1  29
HETATM   29  C   UNL     1      23.668  43.034  50.636  1.00  0.00     0.040 C 
BRANCH  29  30
HETATM   30  C   UNL     1      22.991  42.762  49.292  1.00  0.00     0.075 C 
BRANCH  30  31
HETATM   31  S   UNL     1      23.829  41.516  48.258  1.00  0.00    -0.173 SA
HETATM   32  C   UNL     1      22.688  41.457  46.854  1.00  0.00     0.089 C 
ENDBRANCH  30  31
ENDBRANCH  29  30
ENDBRANCH   1  29
TORSDOF 9
ENDMDL
MODEL 5
REMARK VINA RESULT:      -7.7      1.354      2.052
REMARK  9 active torsions:
REMARK  status: ('A' for Active; 'I' for Inactive)
REMARK    1  A    between atoms: O_2  and  C_3 
REMARK    2  A    between atoms: C_4  and  S_5 
REMARK    3  A    between atoms: S_5  and  N_6 
REMARK    4  A    between atoms: N_6  and  C_7 
REMARK    5  A    between atoms: C_7  and  C_8 
REMARK    6  A    between atoms: C_7  and  C_21 
REMARK       I    between atoms: C_8  and  N_9 
REMARK    7  A    between atoms: N_9  and  C_10 
REMARK    8  A    between atoms: C_21  and  C_22 
REMARK    9  A    between atoms: C_22  and  S_23 
ROOT
HETATM    1  C   UNL     1      27.681  41.836  51.104  1.00  0.00     0.165 C 
ENDROOT
BRANCH   1   2
HETATM    2  N   UNL     1      26.256  42.265  51.121  1.00  0.00    -0.202 NA
HETATM    3  H   UNL     1      25.847  42.288  52.062  1.00  0.00     0.141 HD
BRANCH   2   4
HETATM    4  S   UNL     1      25.940  43.785  50.414  1.00  0.00     0.245 S 
HETATM    5  O   UNL     1      24.619  43.719  49.832  1.00  0.00    -0.206 OA
HETATM    6  O   UNL     1      27.122  44.087  49.640  1.00  0.00    -0.206 OA
BRANCH   4   7
HETATM    7  C   UNL     1      25.914  44.920  51.769  1.00  0.00     0.107 A 
HETATM    8  C   UNL     1      26.136  46.278  51.530  1.00  0.00     0.091 A 
HETATM    9  C   UNL     1      26.058  47.195  52.581  1.00  0.00     0.038 A 
HETATM   10  C   UNL     1      25.798  46.751  53.877  1.00  0.00     0.003 A 
HETATM   11  C   UNL     1      25.608  45.392  54.123  1.00  0.00     0.002 A 
HETATM   12  C   UNL     1      25.666  44.475  53.072  1.00  0.00     0.028 A 
BRANCH   8  13
HETATM   13  O   UNL     1      26.374  46.781  50.282  1.00  0.00    -0.354 OA
HETATM   14  C   UNL     1      25.307  47.624  49.843  1.00  0.00     0.210 C 
ENDBRANCH   8  13
ENDBRANCH   4   7
ENDBRANCH   2   4
ENDBRANCH   1   2
BRANCH   1  15
HETATM   15  C   UNL     1      28.277  42.045  52.509  1.00  0.00     0.254 C 
HETATM   16  N   UNL     1      28.914  43.256  52.668  1.00  0.00    -0.156 N 
HETATM   17  H   UNL     1      29.011  43.923  51.915  1.00  0.00     0.187 HD
HETATM   18  O   UNL     1      28.218  41.165  53.371  1.00  0.00    -0.271 OA
BRANCH  16  19
HETATM   19  C   UNL     1      29.429  43.662  53.870  1.00  0.00     0.708 A 
HETATM   20  N   UNL     1      29.026  44.725  54.524  1.00  0.00    -0.062 NA
HETATM   21  C   UNL     1      29.768  44.737  55.683  1.00  0.00     0.103 A 
HETATM   22  C   UNL     1      30.631  43.648  55.736  1.00  0.00     0.078 A 
HETATM   23  C   UNL     1      29.753  45.649  56.749  1.00  0.00     0.034 A 
HETATM   24  N   UNL     1      30.409  42.991  54.556  1.00  0.00    -0.188 N 
HETATM   25  C   UNL     1      31.482  43.391  56.813  1.00  0.00     0.032 A 
HETATM   26  H   UNL     1      30.851  42.141  54.230  1.00  0.00     0.184 HD
HETATM   27  C   UNL     1      31.445  44.307  57.872  1.00  0.00     0.002 A 
HETATM   28  C   UNL     1      30.601  45.420  57.841  1.00  0.00     0.002 A 
ENDBRANCH  16  19
ENDBRANCH   1  15
BRANCH   1  29
HETATM   29  C   UNL     1      27.772  40.342  50.760  1.00  0.00     0.040 C 
BRANCH  29  30
HETATM   30  C   UNL     1      28.514  40.017  49.464  1.00  0.00     0.075 C 
BRANCH  30  31
HETATM   31  S   UNL     1      27.815  40.800  47.972  1.00  0.00    -0.173 SA
HETATM   32  C   UNL     1      27.785  39.374  46.856  1.00  0.00     0.089 C 
ENDBRANCH  30  31
ENDBRANCH  29  30
ENDBRANCH   1  29
TORSDOF 9
ENDMDL
MODEL 6
REMARK VINA RESULT:      -7.7      5.098      6.461
REMARK  9 active torsions:
REMARK  status: ('A' for Active; 'I' for Inactive)
REMARK    1  A    between atoms: O_2  and  C_3 
REMARK    2  A    between atoms: C_4  and  S_5 
REMARK    3  A    between atoms: S_5  and  N_6 
REMARK    4  A    between atoms: N_6  and  C_7 
REMARK    5  A    between atoms: C_7  and  C_8 
REMARK    6  A    between atoms: C_7  and  C_21 
REMARK       I    between atoms: C_8  and  N_9 
REMARK    7  A    between atoms: N_9  and  C_10 
REMARK    8  A    between atoms: C_21  and  C_22 
REMARK    9  A    between atoms: C_22  and  S_23 
ROOT
HETATM    1  C   UNL     1      23.539  46.824  49.143  1.00  0.00     0.165 C 
ENDROOT
BRANCH   1   2
HETATM    2  N   UNL     1      22.406  47.771  49.334  1.00  0.00    -0.202 NA
HETATM    3  H   UNL     1      22.557  48.441  50.096  1.00  0.00     0.141 HD
BRANCH   2   4
HETATM    4  S   UNL     1      21.974  48.683  47.960  1.00  0.00     0.245 S 
HETATM    5  O   UNL     1      21.374  47.772  47.013  1.00  0.00    -0.206 OA
HETATM    6  O   UNL     1      23.147  49.470  47.653  1.00  0.00    -0.206 OA
BRANCH   4   7
HETATM    7  C   UNL     1      20.739  49.811  48.532  1.00  0.00     0.107 A 
HETATM    8  C   UNL     1      19.682  49.334  49.312  1.00  0.00     0.091 A 
HETATM    9  C   UNL     1      18.733  50.223  49.822  1.00  0.00     0.038 A 
HETATM   10  C   UNL     1      18.815  51.582  49.520  1.00  0.00     0.003 A 
HETATM   11  C   UNL     1      19.849  52.055  48.714  1.00  0.00     0.002 A 
HETATM   12  C   UNL     1      20.812  51.173  48.219  1.00  0.00     0.028 A 
BRANCH   8  13
HETATM   13  O   UNL     1      19.556  48.020  49.662  1.00  0.00    -0.354 OA
HETATM   14  C   UNL     1      18.457  47.400  48.990  1.00  0.00     0.210 C 
ENDBRANCH   8  13
ENDBRANCH   4   7
ENDBRANCH   2   4
ENDBRANCH   1   2
BRANCH   1  15
HETATM   15  C   UNL     1      24.563  47.045  50.272  1.00  0.00     0.254 C 
HETATM   16  N   UNL     1      24.591  46.030  51.203  1.00  0.00    -0.156 N 
HETATM   17  H   UNL     1      23.965  45.237  51.162  1.00  0.00     0.187 HD
HETATM   18  O   UNL     1      25.241  48.073  50.337  1.00  0.00    -0.271 OA
BRANCH  16  19
HETATM   19  C   UNL     1      25.495  46.002  52.232  1.00  0.00     0.708 A 
HETATM   20  N   UNL     1      26.206  44.949  52.559  1.00  0.00    -0.062 NA
HETATM   21  C   UNL     1      27.002  45.364  53.602  1.00  0.00     0.103 A 
HETATM   22  C   UNL     1      26.775  46.703  53.903  1.00  0.00     0.078 A 
HETATM   23  C   UNL     1      27.957  44.651  54.342  1.00  0.00     0.034 A 
HETATM   24  N   UNL     1      25.792  47.078  53.028  1.00  0.00    -0.188 N 
HETATM   25  C   UNL     1      27.465  47.396  54.899  1.00  0.00     0.032 A 
HETATM   26  H   UNL     1      25.361  47.989  52.936  1.00  0.00     0.184 HD
HETATM   27  C   UNL     1      28.421  46.670  55.619  1.00  0.00     0.002 A 
HETATM   28  C   UNL     1      28.661  45.319  55.352  1.00  0.00     0.002 A 
ENDBRANCH  16  19
ENDBRANCH   1  15
BRANCH   1  29
HETATM   29  C   UNL     1      23.031  45.378  49.230  1.00  0.00     0.040 C 
BRANCH  29  30
HETATM   30  C   UNL     1      23.557  44.437  48.146  1.00  0.00     0.075 C 
BRANCH  30  31
HETATM   31  S   UNL     1      24.432  42.966  48.776  1.00  0.00    -0.173 SA
HETATM   32  C   UNL     1      23.123  41.728  48.605  1.00  0.00     0.089 C 
ENDBRANCH  30  31
ENDBRANCH  29  30
ENDBRANCH   1  29
TORSDOF 9
ENDMDL
MODEL 7
REMARK VINA RESULT:      -7.5      2.280      5.093
REMARK  9 active torsions:
REMARK  status: ('A' for Active; 'I' for Inactive)
REMARK    1  A    between atoms: O_2  and  C_3 
REMARK    2  A    between atoms: C_4  and  S_5 
REMARK    3  A    between atoms: S_5  and  N_6 
REMARK    4  A    between atoms: N_6  and  C_7 
REMARK    5  A    between atoms: C_7  and  C_8 
REMARK    6  A    between atoms: C_7  and  C_21 
REMARK       I    between atoms: C_8  and  N_9 
REMARK    7  A    between atoms: N_9  and  C_10 
REMARK    8  A    between atoms: C_21  and  C_22 
REMARK    9  A    between atoms: C_22  and  S_23 
ROOT
HETATM    1  C   UNL     1      25.292  46.258  51.352  1.00  0.00     0.165 C 
ENDROOT
BRANCH   1   2
HETATM    2  N   UNL     1      25.525  45.035  50.536  1.00  0.00    -0.202 NA
HETATM    3  H   UNL     1      26.392  44.541  50.778  1.00  0.00     0.141 HD
BRANCH   2   4
HETATM    4  S   UNL     1      24.275  43.876  50.580  1.00  0.00     0.245 S 
HETATM    5  O   UNL     1      23.132  44.455  49.912  1.00  0.00    -0.206 OA
HETATM    6  O   UNL     1      24.234  43.426  51.953  1.00  0.00    -0.206 OA
BRANCH   4   7
HETATM    7  C   UNL     1      24.876  42.521  49.618  1.00  0.00     0.107 A 
HETATM    8  C   UNL     1      26.174  42.050  49.831  1.00  0.00     0.091 A 
HETATM    9  C   UNL     1      26.641  40.941  49.122  1.00  0.00     0.038 A 
HETATM   10  C   UNL     1      25.827  40.328  48.169  1.00  0.00     0.003 A 
HETATM   11  C   UNL     1      24.544  40.817  47.931  1.00  0.00     0.002 A 
HETATM   12  C   UNL     1      24.066  41.913  48.653  1.00  0.00     0.028 A 
BRANCH   8  13
HETATM   13  O   UNL     1      27.013  42.591  50.763  1.00  0.00    -0.354 OA
HETATM   14  C   UNL     1      27.963  41.632  51.235  1.00  0.00     0.210 C 
ENDBRANCH   8  13
ENDBRANCH   4   7
ENDBRANCH   2   4
ENDBRANCH   1   2
BRANCH   1  15
HETATM   15  C   UNL     1      26.269  46.251  52.543  1.00  0.00     0.254 C 
HETATM   16  N   UNL     1      26.835  45.020  52.791  1.00  0.00    -0.156 N 
HETATM   17  H   UNL     1      26.596  44.194  52.259  1.00  0.00     0.187 HD
HETATM   18  O   UNL     1      26.462  47.261  53.225  1.00  0.00    -0.271 OA
BRANCH  16  19
HETATM   19  C   UNL     1      27.794  44.832  53.750  1.00  0.00     0.708 A 
HETATM   20  N   UNL     1      28.665  43.851  53.740  1.00  0.00    -0.062 NA
HETATM   21  C   UNL     1      29.456  44.062  54.847  1.00  0.00     0.103 A 
HETATM   22  C   UNL     1      29.061  45.204  55.534  1.00  0.00     0.078 A 
HETATM   23  C   UNL     1      30.545  43.318  55.327  1.00  0.00     0.034 A 
HETATM   24  N   UNL     1      27.984  45.663  54.824  1.00  0.00    -0.188 N 
HETATM   25  C   UNL     1      29.705  45.675  56.680  1.00  0.00     0.032 A 
HETATM   26  H   UNL     1      27.424  46.485  55.014  1.00  0.00     0.184 HD
HETATM   27  C   UNL     1      30.796  44.926  57.137  1.00  0.00     0.002 A 
HETATM   28  C   UNL     1      31.207  43.764  56.478  1.00  0.00     0.002 A 
ENDBRANCH  16  19
ENDBRANCH   1  15
BRANCH   1  29
HETATM   29  C   UNL     1      25.572  47.510  50.508  1.00  0.00     0.040 C 
BRANCH  29  30
HETATM   30  C   UNL     1      26.736  47.385  49.525  1.00  0.00     0.075 C 
BRANCH  30  31
HETATM   31  S   UNL     1      27.594  48.953  49.162  1.00  0.00    -0.173 SA
HETATM   32  C   UNL     1      26.302  49.804  48.222  1.00  0.00     0.089 C 
ENDBRANCH  30  31
ENDBRANCH  29  30
ENDBRANCH   1  29
TORSDOF 9
ENDMDL
MODEL 8
REMARK VINA RESULT:      -7.3      1.798      5.012
REMARK  9 active torsions:
REMARK  status: ('A' for Active; 'I' for Inactive)
REMARK    1  A    between atoms: O_2  and  C_3 
REMARK    2  A    between atoms: C_4  and  S_5 
REMARK    3  A    between atoms: S_5  and  N_6 
REMARK    4  A    between atoms: N_6  and  C_7 
REMARK    5  A    between atoms: C_7  and  C_8 
REMARK    6  A    between atoms: C_7  and  C_21 
REMARK       I    between atoms: C_8  and  N_9 
REMARK    7  A    between atoms: N_9  and  C_10 
REMARK    8  A    between atoms: C_21  and  C_22 
REMARK    9  A    between atoms: C_22  and  S_23 
ROOT
HETATM    1  C   UNL     1      26.595  43.563  50.503  1.00  0.00     0.165 C 
ENDROOT
BRANCH   1   2
HETATM    2  N   UNL     1      27.649  42.722  49.873  1.00  0.00    -0.202 NA
HETATM    3  H   UNL     1      28.325  42.342  50.545  1.00  0.00     0.141 HD
BRANCH   2   4
HETATM    4  S   UNL     1      27.081  41.403  48.954  1.00  0.00     0.245 S 
HETATM    5  O   UNL     1      27.251  41.749  47.561  1.00  0.00    -0.206 OA
HETATM    6  O   UNL     1      25.796  41.076  49.528  1.00  0.00    -0.206 OA
BRANCH   4   7
HETATM    7  C   UNL     1      28.170  40.069  49.350  1.00  0.00     0.107 A 
HETATM    8  C   UNL     1      28.548  39.862  50.679  1.00  0.00     0.091 A 
HETATM    9  C   UNL     1      29.359  38.776  51.015  1.00  0.00     0.038 A 
HETATM   10  C   UNL     1      29.827  37.919  50.019  1.00  0.00     0.003 A 
HETATM   11  C   UNL     1      29.478  38.142  48.688  1.00  0.00     0.002 A 
HETATM   12  C   UNL     1      28.651  39.216  48.350  1.00  0.00     0.028 A 
BRANCH   8  13
HETATM   13  O   UNL     1      28.108  40.651  51.704  1.00  0.00    -0.354 OA
HETATM   14  C   UNL     1      28.784  40.350  52.927  1.00  0.00     0.210 C 
ENDBRANCH   8  13
ENDBRANCH   4   7
ENDBRANCH   2   4
ENDBRANCH   1   2
BRANCH   1  15
HETATM   15  C   UNL     1      26.955  43.778  51.985  1.00  0.00     0.254 C 
HETATM   16  N   UNL     1      28.310  43.775  52.234  1.00  0.00    -0.156 N 
HETATM   17  H   UNL     1      28.996  43.608  51.511  1.00  0.00     0.187 HD
HETATM   18  O   UNL     1      26.083  43.884  52.852  1.00  0.00    -0.271 OA
BRANCH  16  19
HETATM   19  C   UNL     1      28.829  44.039  53.474  1.00  0.00     0.708 A 
HETATM   20  N   UNL     1      29.809  43.361  54.022  1.00  0.00    -0.062 NA
HETATM   21  C   UNL     1      30.040  43.977  55.231  1.00  0.00     0.103 A 
HETATM   22  C   UNL     1      29.186  45.060  55.412  1.00  0.00     0.078 A 
HETATM   23  C   UNL     1      30.975  43.670  56.231  1.00  0.00     0.034 A 
HETATM   24  N   UNL     1      28.409  45.062  54.285  1.00  0.00    -0.188 N 
HETATM   25  C   UNL     1      29.218  45.886  56.537  1.00  0.00     0.032 A 
HETATM   26  H   UNL     1      27.668  45.709  54.047  1.00  0.00     0.184 HD
HETATM   27  C   UNL     1      30.165  45.570  57.519  1.00  0.00     0.002 A 
HETATM   28  C   UNL     1      31.026  44.479  57.374  1.00  0.00     0.002 A 
ENDBRANCH  16  19
ENDBRANCH   1  15
BRANCH   1  29
HETATM   29  C   UNL     1      26.543  44.936  49.817  1.00  0.00     0.040 C 
BRANCH  29  30
HETATM   30  C   UNL     1      25.189  45.642  49.876  1.00  0.00     0.075 C 
BRANCH  30  31
HETATM   31  S   UNL     1      23.749  44.523  49.867  1.00  0.00    -0.173 SA
HETATM   32  C   UNL     1      23.803  43.958  48.148  1.00  0.00     0.089 C 
ENDBRANCH  30  31
ENDBRANCH  29  30
ENDBRANCH   1  29
TORSDOF 9
ENDMDL
MODEL 9
REMARK VINA RESULT:      -7.1     14.537     17.310
REMARK  9 active torsions:
REMARK  status: ('A' for Active; 'I' for Inactive)
REMARK    1  A    between atoms: O_2  and  C_3 
REMARK    2  A    between atoms: C_4  and  S_5 
REMARK    3  A    between atoms: S_5  and  N_6 
REMARK    4  A    between atoms: N_6  and  C_7 
REMARK    5  A    between atoms: C_7  and  C_8 
REMARK    6  A    between atoms: C_7  and  C_21 
REMARK       I    between atoms: C_8  and  N_9 
REMARK    7  A    between atoms: N_9  and  C_10 
REMARK    8  A    between atoms: C_21  and  C_22 
REMARK    9  A    between atoms: C_22  and  S_23 
ROOT
HETATM    1  C   UNL     1      34.844  52.510  39.594  1.00  0.00     0.165 C 
ENDROOT
BRANCH   1   2
HETATM    2  N   UNL     1      35.275  52.311  41.005  1.00  0.00    -0.202 NA
HETATM    3  H   UNL     1      34.600  52.665  41.693  1.00  0.00     0.141 HD
BRANCH   2   4
HETATM    4  S   UNL     1      35.620  50.700  41.445  1.00  0.00     0.245 S 
HETATM    5  O   UNL     1      36.435  50.749  42.637  1.00  0.00    -0.206 OA
HETATM    6  O   UNL     1      36.059  50.067  40.222  1.00  0.00    -0.206 OA
BRANCH   4   7
HETATM    7  C   UNL     1      34.052  49.993  41.851  1.00  0.00     0.107 A 
HETATM    8  C   UNL     1      33.185  50.686  42.699  1.00  0.00     0.091 A 
HETATM    9  C   UNL     1      31.919  50.169  42.980  1.00  0.00     0.038 A 
HETATM   10  C   UNL     1      31.533  48.939  42.447  1.00  0.00     0.003 A 
HETATM   11  C   UNL     1      32.409  48.229  41.627  1.00  0.00     0.002 A 
HETATM   12  C   UNL     1      33.669  48.753  41.328  1.00  0.00     0.028 A 
BRANCH   8  13
HETATM   13  O   UNL     1      33.493  51.904  43.237  1.00  0.00    -0.354 OA
HETATM   14  C   UNL     1      33.059  52.004  44.595  1.00  0.00     0.210 C 
ENDBRANCH   8  13
ENDBRANCH   4   7
ENDBRANCH   2   4
ENDBRANCH   1   2
BRANCH   1  15
HETATM   15  C   UNL     1      33.312  52.366  39.521  1.00  0.00     0.254 C 
HETATM   16  N   UNL     1      32.890  51.305  38.750  1.00  0.00    -0.156 N 
HETATM   17  H   UNL     1      33.533  50.706  38.250  1.00  0.00     0.187 HD
HETATM   18  O   UNL     1      32.561  53.176  40.069  1.00  0.00    -0.271 OA
BRANCH  16  19
HETATM   19  C   UNL     1      31.569  50.961  38.635  1.00  0.00     0.708 A 
HETATM   20  N   UNL     1      31.123  49.728  38.672  1.00  0.00    -0.062 NA
HETATM   21  C   UNL     1      29.756  49.837  38.564  1.00  0.00     0.103 A 
HETATM   22  C   UNL     1      29.366  51.169  38.472  1.00  0.00     0.078 A 
HETATM   23  C   UNL     1      28.774  48.836  38.547  1.00  0.00     0.034 A 
HETATM   24  N   UNL     1      30.546  51.863  38.498  1.00  0.00    -0.188 N 
HETATM   25  C   UNL     1      28.034  51.578  38.383  1.00  0.00     0.032 A 
HETATM   26  H   UNL     1      30.674  52.866  38.455  1.00  0.00     0.184 HD
HETATM   27  C   UNL     1      27.068  50.564  38.377  1.00  0.00     0.002 A 
HETATM   28  C   UNL     1      27.428  49.215  38.451  1.00  0.00     0.002 A 
ENDBRANCH  16  19
ENDBRANCH   1  15
BRANCH   1  29
HETATM   29  C   UNL     1      35.217  53.926  39.130  1.00  0.00     0.040 C 
BRANCH  29  30
HETATM   30  C   UNL     1      36.450  54.528  39.803  1.00  0.00     0.075 C 
BRANCH  30  31
HETATM   31  S   UNL     1      37.517  55.508  38.695  1.00  0.00    -0.173 SA
HETATM   32  C   UNL     1      36.505  56.999  38.526  1.00  0.00     0.089 C 
ENDBRANCH  30  31
ENDBRANCH  29  30
ENDBRANCH   1  29
TORSDOF 9
ENDMDL
MODEL 10
REMARK VINA RESULT:      -7.1      3.152      7.050
REMARK  9 active torsions:
REMARK  status: ('A' for Active; 'I' for Inactive)
REMARK    1  A    between atoms: O_2  and  C_3 
REMARK    2  A    between atoms: C_4  and  S_5 
REMARK    3  A    between atoms: S_5  and  N_6 
REMARK    4  A    between atoms: N_6  and  C_7 
REMARK    5  A    between atoms: C_7  and  C_8 
REMARK    6  A    between atoms: C_7  and  C_21 
REMARK       I    between atoms: C_8  and  N_9 
REMARK    7  A    between atoms: N_9  and  C_10 
REMARK    8  A    between atoms: C_21  and  C_22 
REMARK    9  A    between atoms: C_22  and  S_23 
ROOT
HETATM    1  C   UNL     1      26.235  43.733  51.377  1.00  0.00     0.165 C 
ENDROOT
BRANCH   1   2
HETATM    2  N   UNL     1      27.602  44.264  51.635  1.00  0.00    -0.202 NA
HETATM    3  H   UNL     1      27.614  45.262  51.873  1.00  0.00     0.141 HD
BRANCH   2   4
HETATM    4  S   UNL     1      28.482  43.460  52.854  1.00  0.00     0.245 S 
HETATM    5  O   UNL     1      29.810  43.224  52.337  1.00  0.00    -0.206 OA
HETATM    6  O   UNL     1      27.613  42.392  53.295  1.00  0.00    -0.206 OA
BRANCH   4   7
HETATM    7  C   UNL     1      28.581  44.619  54.184  1.00  0.00     0.107 A 
HETATM    8  C   UNL     1      29.499  44.404  55.215  1.00  0.00     0.091 A 
HETATM    9  C   UNL     1      29.631  45.343  56.240  1.00  0.00     0.038 A 
HETATM   10  C   UNL     1      28.819  46.476  56.259  1.00  0.00     0.003 A 
HETATM   11  C   UNL     1      27.878  46.676  55.249  1.00  0.00     0.002 A 
HETATM   12  C   UNL     1      27.757  45.750  54.211  1.00  0.00     0.028 A 
BRANCH   8  13
HETATM   13  O   UNL     1      30.339  43.328  55.244  1.00  0.00    -0.354 OA
HETATM   14  C   UNL     1      31.095  43.284  56.456  1.00  0.00     0.210 C 
ENDBRANCH   8  13
ENDBRANCH   4   7
ENDBRANCH   2   4
ENDBRANCH   1   2
BRANCH   1  15
HETATM   15  C   UNL     1      25.279  44.919  51.150  1.00  0.00     0.254 C 
HETATM   16  N   UNL     1      25.679  45.772  50.146  1.00  0.00    -0.156 N 
HETATM   17  H   UNL     1      26.542  45.645  49.635  1.00  0.00     0.187 HD
HETATM   18  O   UNL     1      24.283  45.089  51.859  1.00  0.00    -0.271 OA
BRANCH  16  19
HETATM   19  C   UNL     1      24.916  46.834  49.737  1.00  0.00     0.708 A 
HETATM   20  N   UNL     1      25.402  48.006  49.406  1.00  0.00    -0.062 NA
HETATM   21  C   UNL     1      24.311  48.752  49.023  1.00  0.00     0.103 A 
HETATM   22  C   UNL     1      23.140  48.008  49.114  1.00  0.00     0.078 A 
HETATM   23  C   UNL     1      24.244  50.080  48.574  1.00  0.00     0.034 A 
HETATM   24  N   UNL     1      23.553  46.795  49.593  1.00  0.00    -0.188 N 
HETATM   25  C   UNL     1      21.883  48.504  48.760  1.00  0.00     0.032 A 
HETATM   26  H   UNL     1      22.984  45.981  49.788  1.00  0.00     0.184 HD
HETATM   27  C   UNL     1      21.838  49.827  48.304  1.00  0.00     0.002 A 
HETATM   28  C   UNL     1      22.995  50.606  48.218  1.00  0.00     0.002 A 
ENDBRANCH  16  19
ENDBRANCH   1  15
BRANCH   1  29
HETATM   29  C   UNL     1      26.242  42.871  50.105  1.00  0.00     0.040 C 
BRANCH  29  30
HETATM   30  C   UNL     1      26.188  41.362  50.342  1.00  0.00     0.075 C 
BRANCH  30  31
HETATM   31  S   UNL     1      27.810  40.528  50.294  1.00  0.00    -0.173 SA
HETATM   32  C   UNL     1      27.350  39.002  49.435  1.00  0.00     0.089 C 
ENDBRANCH  30  31
ENDBRANCH  29  30
ENDBRANCH   1  29
TORSDOF 9
ENDMDL
