MODEL 1
REMARK VINA RESULT:      -9.4      0.000      0.000
REMARK  4 active torsions:
REMARK  status: ('A' for Active; 'I' for Inactive)
REMARK    1  A    between atoms: S_2  and  C_3 
REMARK    2  A    between atoms: C_3  and  C_4 
REMARK       I    between atoms: C_4  and  N_5 
REMARK    3  A    between atoms: N_5  and  N_6 
REMARK       I    between atoms: N_6  and  C_7 
REMARK    4  A    between atoms: C_7  and  C_8 
ROOT
HETATM    1  C   UNL     1      26.899  46.095  53.695  1.00  0.00     0.103 A 
HETATM    2  N   UNL     1      27.460  44.977  53.120  1.00  0.00    -0.351 N 
HETATM    3  H   UNL     1      27.170  44.601  52.226  1.00  0.00     0.166 HD
HETATM    4  C   UNL     1      28.475  44.473  53.899  1.00  0.00     0.044 A 
HETATM    5  C   UNL     1      28.570  45.282  55.030  1.00  0.00     0.004 A 
HETATM    6  C   UNL     1      27.565  46.290  54.893  1.00  0.00     0.050 A 
HETATM    7  C   UNL     1      29.309  43.373  53.679  1.00  0.00     0.031 A 
HETATM    8  C   UNL     1      30.283  43.092  54.643  1.00  0.00     0.014 A 
HETATM    9  C   UNL     1      30.427  43.876  55.795  1.00  0.00    -0.025 A 
HETATM   10  C   UNL     1      29.567  44.982  56.006  1.00  0.00    -0.013 A 
HETATM   11  C   UNL     1      31.413  43.593  56.754  1.00  0.00     0.012 A 
HETATM   12  C   UNL     1      31.550  44.385  57.897  1.00  0.00     0.001 A 
HETATM   13  C   UNL     1      30.703  45.471  58.102  1.00  0.00     0.001 A 
HETATM   14  C   UNL     1      29.714  45.772  57.164  1.00  0.00     0.013 A 
ENDROOT
BRANCH   1  15
HETATM   15  C   UNL     1      25.846  46.835  53.038  1.00  0.00     0.286 C 
HETATM   16  N   UNL     1      25.398  46.300  51.849  1.00  0.00    -0.262 N 
HETATM   17  H   UNL     1      25.891  45.557  51.360  1.00  0.00     0.190 HD
HETATM   18  O   UNL     1      25.370  47.870  53.506  1.00  0.00    -0.264 OA
BRANCH  16  19
HETATM   19  N   UNL     1      24.399  46.969  51.130  1.00  0.00    -0.267 N 
HETATM   20  C   UNL     1      24.778  47.680  50.009  1.00  0.00     0.245 C 
HETATM   21  O   UNL     1      25.913  47.609  49.537  1.00  0.00    -0.271 OA
HETATM   22  H   UNL     1      23.566  47.247  51.654  1.00  0.00     0.190 HD
BRANCH  20  23
HETATM   23  C   UNL     1      23.666  48.463  49.332  1.00  0.00     0.177 C 
BRANCH  23  24
HETATM   24  S   UNL     1      24.274  49.832  48.294  1.00  0.00    -0.164 SA
HETATM   25  C   UNL     1      22.946  51.027  48.587  1.00  0.00     0.090 C 
ENDBRANCH  23  24
ENDBRANCH  20  23
ENDBRANCH  16  19
ENDBRANCH   1  15
TORSDOF 4
ENDMDL
MODEL 2
REMARK VINA RESULT:      -9.1      4.865      6.729
REMARK  4 active torsions:
REMARK  status: ('A' for Active; 'I' for Inactive)
REMARK    1  A    between atoms: S_2  and  C_3 
REMARK    2  A    between atoms: C_3  and  C_4 
REMARK       I    between atoms: C_4  and  N_5 
REMARK    3  A    between atoms: N_5  and  N_6 
REMARK       I    between atoms: N_6  and  C_7 
REMARK    4  A    between atoms: C_7  and  C_8 
ROOT
HETATM    1  C   UNL     1      28.692  42.739  52.570  1.00  0.00     0.103 A 
HETATM    2  N   UNL     1      28.000  43.895  52.852  1.00  0.00    -0.351 N 
HETATM    3  H   UNL     1      27.237  44.244  52.285  1.00  0.00     0.166 HD
HETATM    4  C   UNL     1      28.457  44.480  54.009  1.00  0.00     0.044 A 
HETATM    5  C   UNL     1      29.494  43.684  54.493  1.00  0.00     0.004 A 
HETATM    6  C   UNL     1      29.638  42.601  53.571  1.00  0.00     0.050 A 
HETATM    7  C   UNL     1      28.023  45.640  54.657  1.00  0.00     0.031 A 
HETATM    8  C   UNL     1      28.665  46.000  55.847  1.00  0.00     0.014 A 
HETATM    9  C   UNL     1      29.709  45.233  56.382  1.00  0.00    -0.025 A 
HETATM   10  C   UNL     1      30.141  44.064  55.707  1.00  0.00    -0.013 A 
HETATM   11  C   UNL     1      30.342  45.596  57.581  1.00  0.00     0.012 A 
HETATM   12  C   UNL     1      31.379  44.821  58.107  1.00  0.00     0.001 A 
HETATM   13  C   UNL     1      31.803  43.673  57.441  1.00  0.00     0.001 A 
HETATM   14  C   UNL     1      31.190  43.292  56.247  1.00  0.00     0.013 A 
ENDROOT
BRANCH   1  15
HETATM   15  C   UNL     1      28.358  41.917  51.429  1.00  0.00     0.286 C 
HETATM   16  N   UNL     1      28.980  40.687  51.383  1.00  0.00    -0.262 N 
HETATM   17  H   UNL     1      29.760  40.441  51.986  1.00  0.00     0.190 HD
HETATM   18  O   UNL     1      27.567  42.280  50.558  1.00  0.00    -0.264 OA
BRANCH  16  19
HETATM   19  N   UNL     1      28.736  39.838  50.295  1.00  0.00    -0.267 N 
HETATM   20  C   UNL     1      29.417  38.638  50.248  1.00  0.00     0.245 C 
HETATM   21  O   UNL     1      30.091  38.227  51.193  1.00  0.00    -0.271 OA
HETATM   22  H   UNL     1      28.421  40.281  49.430  1.00  0.00     0.190 HD
BRANCH  20  23
HETATM   23  C   UNL     1      29.183  37.810  48.997  1.00  0.00     0.177 C 
BRANCH  23  24
HETATM   24  S   UNL     1      27.498  37.978  48.323  1.00  0.00    -0.164 SA
HETATM   25  C   UNL     1      26.603  36.973  49.533  1.00  0.00     0.090 C 
ENDBRANCH  23  24
ENDBRANCH  20  23
ENDBRANCH  16  19
ENDBRANCH   1  15
TORSDOF 4
ENDMDL
MODEL 3
REMARK VINA RESULT:      -8.8      1.634      1.963
REMARK  4 active torsions:
REMARK  status: ('A' for Active; 'I' for Inactive)
REMARK    1  A    between atoms: S_2  and  C_3 
REMARK    2  A    between atoms: C_3  and  C_4 
REMARK       I    between atoms: C_4  and  N_5 
REMARK    3  A    between atoms: N_5  and  N_6 
REMARK       I    between atoms: N_6  and  C_7 
REMARK    4  A    between atoms: C_7  and  C_8 
ROOT
HETATM    1  C   UNL     1      27.114  44.748  52.408  1.00  0.00     0.103 A 
HETATM    2  N   UNL     1      28.088  43.787  52.259  1.00  0.00    -0.351 N 
HETATM    3  H   UNL     1      28.180  43.204  51.436  1.00  0.00     0.166 HD
HETATM    4  C   UNL     1      28.925  43.753  53.349  1.00  0.00     0.044 A 
HETATM    5  C   UNL     1      28.473  44.718  54.248  1.00  0.00     0.004 A 
HETATM    6  C   UNL     1      27.327  45.326  53.648  1.00  0.00     0.050 A 
HETATM    7  C   UNL     1      30.043  42.950  53.595  1.00  0.00     0.031 A 
HETATM    8  C   UNL     1      30.731  43.142  54.797  1.00  0.00     0.014 A 
HETATM    9  C   UNL     1      30.324  44.102  55.734  1.00  0.00    -0.025 A 
HETATM   10  C   UNL     1      29.184  44.902  55.472  1.00  0.00    -0.013 A 
HETATM   11  C   UNL     1      31.026  44.295  56.935  1.00  0.00     0.012 A 
HETATM   12  C   UNL     1      30.613  45.259  57.859  1.00  0.00     0.001 A 
HETATM   13  C   UNL     1      29.491  46.043  57.599  1.00  0.00     0.001 A 
HETATM   14  C   UNL     1      28.777  45.869  56.413  1.00  0.00     0.013 A 
ENDROOT
BRANCH   1  15
HETATM   15  C   UNL     1      26.144  45.009  51.368  1.00  0.00     0.286 C 
HETATM   16  N   UNL     1      25.253  46.028  51.632  1.00  0.00    -0.262 N 
HETATM   17  H   UNL     1      25.145  46.441  52.554  1.00  0.00     0.190 HD
HETATM   18  O   UNL     1      26.114  44.373  50.314  1.00  0.00    -0.264 OA
BRANCH  16  19
HETATM   19  N   UNL     1      24.260  46.328  50.690  1.00  0.00    -0.267 N 
HETATM   20  C   UNL     1      24.357  47.525  50.010  1.00  0.00     0.245 C 
HETATM   21  O   UNL     1      25.353  48.245  50.084  1.00  0.00    -0.271 OA
HETATM   22  H   UNL     1      23.346  45.895  50.834  1.00  0.00     0.190 HD
BRANCH  20  23
HETATM   23  C   UNL     1      23.199  47.836  49.077  1.00  0.00     0.177 C 
BRANCH  23  24
HETATM   24  S   UNL     1      22.462  46.350  48.321  1.00  0.00    -0.164 SA
HETATM   25  C   UNL     1      21.279  47.151  47.209  1.00  0.00     0.090 C 
ENDBRANCH  23  24
ENDBRANCH  20  23
ENDBRANCH  16  19
ENDBRANCH   1  15
TORSDOF 4
ENDMDL
MODEL 4
REMARK VINA RESULT:      -8.5      1.967      3.118
REMARK  4 active torsions:
REMARK  status: ('A' for Active; 'I' for Inactive)
REMARK    1  A    between atoms: S_2  and  C_3 
REMARK    2  A    between atoms: C_3  and  C_4 
REMARK       I    between atoms: C_4  and  N_5 
REMARK    3  A    between atoms: N_5  and  N_6 
REMARK       I    between atoms: N_6  and  C_7 
REMARK    4  A    between atoms: C_7  and  C_8 
ROOT
HETATM    1  C   UNL     1      25.715  45.707  52.145  1.00  0.00     0.103 A 
HETATM    2  N   UNL     1      25.803  46.672  53.124  1.00  0.00    -0.351 N 
HETATM    3  H   UNL     1      25.162  47.451  53.202  1.00  0.00     0.166 HD
HETATM    4  C   UNL     1      26.844  46.414  53.984  1.00  0.00     0.044 A 
HETATM    5  C   UNL     1      27.465  45.247  53.544  1.00  0.00     0.004 A 
HETATM    6  C   UNL     1      26.752  44.822  52.380  1.00  0.00     0.050 A 
HETATM    7  C   UNL     1      27.267  47.121  55.113  1.00  0.00     0.031 A 
HETATM    8  C   UNL     1      28.360  46.616  55.826  1.00  0.00     0.014 A 
HETATM    9  C   UNL     1      29.019  45.443  55.431  1.00  0.00    -0.025 A 
HETATM   10  C   UNL     1      28.581  44.744  54.279  1.00  0.00    -0.013 A 
HETATM   11  C   UNL     1      30.110  44.938  56.156  1.00  0.00     0.012 A 
HETATM   12  C   UNL     1      30.755  43.765  55.755  1.00  0.00     0.001 A 
HETATM   13  C   UNL     1      30.323  43.080  54.622  1.00  0.00     0.001 A 
HETATM   14  C   UNL     1      29.242  43.564  53.884  1.00  0.00     0.013 A 
ENDROOT
BRANCH   1  15
HETATM   15  C   UNL     1      24.666  45.733  51.151  1.00  0.00     0.286 C 
HETATM   16  N   UNL     1      24.419  46.965  50.582  1.00  0.00    -0.262 N 
HETATM   17  H   UNL     1      24.797  47.830  50.958  1.00  0.00     0.190 HD
HETATM   18  O   UNL     1      24.036  44.727  50.825  1.00  0.00    -0.264 OA
BRANCH  16  19
HETATM   19  N   UNL     1      23.398  47.086  49.630  1.00  0.00    -0.267 N 
HETATM   20  C   UNL     1      23.033  48.357  49.234  1.00  0.00     0.245 C 
HETATM   21  O   UNL     1      23.674  49.357  49.560  1.00  0.00    -0.271 OA
HETATM   22  H   UNL     1      22.720  46.323  49.587  1.00  0.00     0.190 HD
BRANCH  20  23
HETATM   23  C   UNL     1      21.856  48.424  48.277  1.00  0.00     0.177 C 
BRANCH  23  24
HETATM   24  S   UNL     1      20.239  48.434  49.119  1.00  0.00    -0.164 SA
HETATM   25  C   UNL     1      19.708  46.745  48.740  1.00  0.00     0.090 C 
ENDBRANCH  23  24
ENDBRANCH  20  23
ENDBRANCH  16  19
ENDBRANCH   1  15
TORSDOF 4
ENDMDL
MODEL 5
REMARK VINA RESULT:      -8.5      3.599      4.339
REMARK  4 active torsions:
REMARK  status: ('A' for Active; 'I' for Inactive)
REMARK    1  A    between atoms: S_2  and  C_3 
REMARK    2  A    between atoms: C_3  and  C_4 
REMARK       I    between atoms: C_4  and  N_5 
REMARK    3  A    between atoms: N_5  and  N_6 
REMARK       I    between atoms: N_6  and  C_7 
REMARK    4  A    between atoms: C_7  and  C_8 
ROOT
HETATM    1  C   UNL     1      27.570  44.034  52.627  1.00  0.00     0.103 A 
HETATM    2  N   UNL     1      27.170  45.168  53.298  1.00  0.00    -0.351 N 
HETATM    3  H   UNL     1      26.399  45.752  53.001  1.00  0.00     0.166 HD
HETATM    4  C   UNL     1      27.927  45.370  54.428  1.00  0.00     0.044 A 
HETATM    5  C   UNL     1      28.864  44.340  54.488  1.00  0.00     0.004 A 
HETATM    6  C   UNL     1      28.635  43.515  53.343  1.00  0.00     0.050 A 
HETATM    7  C   UNL     1      27.842  46.379  55.392  1.00  0.00     0.031 A 
HETATM    8  C   UNL     1      28.741  46.332  56.463  1.00  0.00     0.014 A 
HETATM    9  C   UNL     1      29.699  45.316  56.577  1.00  0.00    -0.025 A 
HETATM   10  C   UNL     1      29.775  44.306  55.586  1.00  0.00    -0.013 A 
HETATM   11  C   UNL     1      30.591  45.271  57.661  1.00  0.00     0.012 A 
HETATM   12  C   UNL     1      31.539  44.249  57.766  1.00  0.00     0.001 A 
HETATM   13  C   UNL     1      31.613  43.259  56.790  1.00  0.00     0.001 A 
HETATM   14  C   UNL     1      30.738  43.283  55.703  1.00  0.00     0.013 A 
ENDROOT
BRANCH   1  15
HETATM   15  C   UNL     1      26.890  43.582  51.434  1.00  0.00     0.286 C 
HETATM   16  N   UNL     1      25.783  42.788  51.648  1.00  0.00    -0.262 N 
HETATM   17  H   UNL     1      25.564  42.381  52.554  1.00  0.00     0.190 HD
HETATM   18  O   UNL     1      27.263  43.888  50.302  1.00  0.00    -0.264 OA
BRANCH  16  19
HETATM   19  N   UNL     1      25.081  42.282  50.546  1.00  0.00    -0.267 N 
HETATM   20  C   UNL     1      23.833  42.808  50.280  1.00  0.00     0.245 C 
HETATM   21  O   UNL     1      23.397  43.798  50.867  1.00  0.00    -0.271 OA
HETATM   22  H   UNL     1      25.305  41.327  50.260  1.00  0.00     0.190 HD
BRANCH  20  23
HETATM   23  C   UNL     1      23.084  42.149  49.134  1.00  0.00     0.177 C 
BRANCH  23  24
HETATM   24  S   UNL     1      24.154  41.141  48.056  1.00  0.00    -0.164 SA
HETATM   25  C   UNL     1      23.329  41.439  46.473  1.00  0.00     0.090 C 
ENDBRANCH  23  24
ENDBRANCH  20  23
ENDBRANCH  16  19
ENDBRANCH   1  15
TORSDOF 4
ENDMDL
MODEL 6
REMARK VINA RESULT:      -8.3      4.576      5.816
REMARK  4 active torsions:
REMARK  status: ('A' for Active; 'I' for Inactive)
REMARK    1  A    between atoms: S_2  and  C_3 
REMARK    2  A    between atoms: C_3  and  C_4 
REMARK       I    between atoms: C_4  and  N_5 
REMARK    3  A    between atoms: N_5  and  N_6 
REMARK       I    between atoms: N_6  and  C_7 
REMARK    4  A    between atoms: C_7  and  C_8 
ROOT
HETATM    1  C   UNL     1      28.489  42.257  52.702  1.00  0.00     0.103 A 
HETATM    2  N   UNL     1      27.858  43.474  52.829  1.00  0.00    -0.351 N 
HETATM    3  H   UNL     1      27.106  43.781  52.226  1.00  0.00     0.166 HD
HETATM    4  C   UNL     1      28.360  44.186  53.893  1.00  0.00     0.044 A 
HETATM    5  C   UNL     1      29.364  43.412  54.472  1.00  0.00     0.004 A 
HETATM    6  C   UNL     1      29.442  42.208  53.705  1.00  0.00     0.050 A 
HETATM    7  C   UNL     1      27.992  45.443  54.381  1.00  0.00     0.031 A 
HETATM    8  C   UNL     1      28.667  45.928  55.506  1.00  0.00     0.014 A 
HETATM    9  C   UNL     1      29.680  45.189  56.132  1.00  0.00    -0.025 A 
HETATM   10  C   UNL     1      30.045  43.920  55.619  1.00  0.00    -0.013 A 
HETATM   11  C   UNL     1      30.347  45.679  57.267  1.00  0.00     0.012 A 
HETATM   12  C   UNL     1      31.353  44.931  57.885  1.00  0.00     0.001 A 
HETATM   13  C   UNL     1      31.710  43.683  57.378  1.00  0.00     0.001 A 
HETATM   14  C   UNL     1      31.063  43.176  56.251  1.00  0.00     0.013 A 
ENDROOT
BRANCH   1  15
HETATM   15  C   UNL     1      28.100  41.306  51.686  1.00  0.00     0.286 C 
HETATM   16  N   UNL     1      26.956  41.624  50.984  1.00  0.00    -0.262 N 
HETATM   17  H   UNL     1      26.318  42.359  51.276  1.00  0.00     0.190 HD
HETATM   18  O   UNL     1      28.745  40.283  51.452  1.00  0.00    -0.264 OA
BRANCH  16  19
HETATM   19  N   UNL     1      26.490  40.742  50.001  1.00  0.00    -0.267 N 
HETATM   20  C   UNL     1      26.738  41.059  48.680  1.00  0.00     0.245 C 
HETATM   21  O   UNL     1      27.482  41.985  48.354  1.00  0.00    -0.271 OA
HETATM   22  H   UNL     1      25.679  40.170  50.245  1.00  0.00     0.190 HD
BRANCH  20  23
HETATM   23  C   UNL     1      26.123  40.116  47.661  1.00  0.00     0.177 C 
BRANCH  23  24
HETATM   24  S   UNL     1      27.336  39.430  46.486  1.00  0.00    -0.164 SA
HETATM   25  C   UNL     1      28.191  38.282  47.593  1.00  0.00     0.090 C 
ENDBRANCH  23  24
ENDBRANCH  20  23
ENDBRANCH  16  19
ENDBRANCH   1  15
TORSDOF 4
ENDMDL
MODEL 7
REMARK VINA RESULT:      -8.2      2.821      3.115
REMARK  4 active torsions:
REMARK  status: ('A' for Active; 'I' for Inactive)
REMARK    1  A    between atoms: S_2  and  C_3 
REMARK    2  A    between atoms: C_3  and  C_4 
REMARK       I    between atoms: C_4  and  N_5 
REMARK    3  A    between atoms: N_5  and  N_6 
REMARK       I    between atoms: N_6  and  C_7 
REMARK    4  A    between atoms: C_7  and  C_8 
ROOT
HETATM    1  C   UNL     1      26.922  44.584  52.054  1.00  0.00     0.103 A 
HETATM    2  N   UNL     1      27.902  43.631  51.894  1.00  0.00    -0.351 N 
HETATM    3  H   UNL     1      27.983  43.042  51.075  1.00  0.00     0.166 HD
HETATM    4  C   UNL     1      28.761  43.616  52.968  1.00  0.00     0.044 A 
HETATM    5  C   UNL     1      28.317  44.584  53.866  1.00  0.00     0.004 A 
HETATM    6  C   UNL     1      27.153  45.176  53.284  1.00  0.00     0.050 A 
HETATM    7  C   UNL     1      29.891  42.826  53.198  1.00  0.00     0.031 A 
HETATM    8  C   UNL     1      30.601  43.036  54.384  1.00  0.00     0.014 A 
HETATM    9  C   UNL     1      30.203  44.000  55.320  1.00  0.00    -0.025 A 
HETATM   10  C   UNL     1      29.050  44.786  55.074  1.00  0.00    -0.013 A 
HETATM   11  C   UNL     1      30.927  44.211  56.505  1.00  0.00     0.012 A 
HETATM   12  C   UNL     1      30.523  45.179  57.428  1.00  0.00     0.001 A 
HETATM   13  C   UNL     1      29.389  45.950  57.185  1.00  0.00     0.001 A 
HETATM   14  C   UNL     1      28.652  45.758  56.015  1.00  0.00     0.013 A 
ENDROOT
BRANCH   1  15
HETATM   15  C   UNL     1      25.929  44.826  51.031  1.00  0.00     0.286 C 
HETATM   16  N   UNL     1      26.089  44.104  49.867  1.00  0.00    -0.262 N 
HETATM   17  H   UNL     1      26.939  43.589  49.652  1.00  0.00     0.190 HD
HETATM   18  O   UNL     1      24.996  45.615  51.185  1.00  0.00    -0.264 OA
BRANCH  16  19
HETATM   19  N   UNL     1      25.188  44.299  48.812  1.00  0.00    -0.267 N 
HETATM   20  C   UNL     1      24.220  43.337  48.606  1.00  0.00     0.245 C 
HETATM   21  O   UNL     1      24.025  42.418  49.402  1.00  0.00    -0.271 OA
HETATM   22  H   UNL     1      25.514  44.873  48.032  1.00  0.00     0.190 HD
BRANCH  20  23
HETATM   23  C   UNL     1      23.338  43.557  47.389  1.00  0.00     0.177 C 
BRANCH  23  24
HETATM   24  S   UNL     1      22.488  45.169  47.394  1.00  0.00    -0.164 SA
HETATM   25  C   UNL     1      21.302  44.865  48.727  1.00  0.00     0.090 C 
ENDBRANCH  23  24
ENDBRANCH  20  23
ENDBRANCH  16  19
ENDBRANCH   1  15
TORSDOF 4
ENDMDL
MODEL 8
REMARK VINA RESULT:      -8.0      5.393      6.892
REMARK  4 active torsions:
REMARK  status: ('A' for Active; 'I' for Inactive)
REMARK    1  A    between atoms: S_2  and  C_3 
REMARK    2  A    between atoms: C_3  and  C_4 
REMARK       I    between atoms: C_4  and  N_5 
REMARK    3  A    between atoms: N_5  and  N_6 
REMARK       I    between atoms: N_6  and  C_7 
REMARK    4  A    between atoms: C_7  and  C_8 
ROOT
HETATM    1  C   UNL     1      28.129  41.641  51.727  1.00  0.00     0.103 A 
HETATM    2  N   UNL     1      29.252  41.497  52.509  1.00  0.00    -0.351 N 
HETATM    3  H   UNL     1      29.910  40.734  52.411  1.00  0.00     0.166 HD
HETATM    4  C   UNL     1      29.373  42.536  53.402  1.00  0.00     0.044 A 
HETATM    5  C   UNL     1      28.281  43.380  53.205  1.00  0.00     0.004 A 
HETATM    6  C   UNL     1      27.502  42.798  52.158  1.00  0.00     0.050 A 
HETATM    7  C   UNL     1      30.365  42.786  54.354  1.00  0.00     0.031 A 
HETATM    8  C   UNL     1      30.247  43.944  55.130  1.00  0.00     0.014 A 
HETATM    9  C   UNL     1      29.173  44.831  54.969  1.00  0.00    -0.025 A 
HETATM   10  C   UNL     1      28.172  44.557  54.005  1.00  0.00    -0.013 A 
HETATM   11  C   UNL     1      29.066  45.997  55.745  1.00  0.00     0.012 A 
HETATM   12  C   UNL     1      27.993  46.876  55.573  1.00  0.00     0.001 A 
HETATM   13  C   UNL     1      27.010  46.603  54.625  1.00  0.00     0.001 A 
HETATM   14  C   UNL     1      27.094  45.451  53.843  1.00  0.00     0.013 A 
ENDROOT
BRANCH   1  15
HETATM   15  C   UNL     1      27.814  40.700  50.676  1.00  0.00     0.286 C 
HETATM   16  N   UNL     1      28.814  40.488  49.750  1.00  0.00    -0.262 N 
HETATM   17  H   UNL     1      29.635  41.083  49.683  1.00  0.00     0.190 HD
HETATM   18  O   UNL     1      26.731  40.117  50.610  1.00  0.00    -0.264 OA
BRANCH  16  19
HETATM   19  N   UNL     1      28.582  39.613  48.681  1.00  0.00    -0.267 N 
HETATM   20  C   UNL     1      28.251  40.163  47.459  1.00  0.00     0.245 C 
HETATM   21  O   UNL     1      28.314  41.373  47.242  1.00  0.00    -0.271 OA
HETATM   22  H   UNL     1      28.265  38.671  48.920  1.00  0.00     0.190 HD
BRANCH  20  23
HETATM   23  C   UNL     1      27.915  39.161  46.368  1.00  0.00     0.177 C 
BRANCH  23  24
HETATM   24  S   UNL     1      28.392  37.452  46.785  1.00  0.00    -0.164 SA
HETATM   25  C   UNL     1      26.749  36.693  46.811  1.00  0.00     0.090 C 
ENDBRANCH  23  24
ENDBRANCH  20  23
ENDBRANCH  16  19
ENDBRANCH   1  15
TORSDOF 4
ENDMDL
MODEL 9
REMARK VINA RESULT:      -8.0      2.927      3.582
REMARK  4 active torsions:
REMARK  status: ('A' for Active; 'I' for Inactive)
REMARK    1  A    between atoms: S_2  and  C_3 
REMARK    2  A    between atoms: C_3  and  C_4 
REMARK       I    between atoms: C_4  and  N_5 
REMARK    3  A    between atoms: N_5  and  N_6 
REMARK       I    between atoms: N_6  and  C_7 
REMARK    4  A    between atoms: C_7  and  C_8 
ROOT
HETATM    1  C   UNL     1      26.702  44.028  52.063  1.00  0.00     0.103 A 
HETATM    2  N   UNL     1      26.428  45.228  52.679  1.00  0.00    -0.351 N 
HETATM    3  H   UNL     1      25.672  45.842  52.401  1.00  0.00     0.166 HD
HETATM    4  C   UNL     1      27.284  45.455  53.731  1.00  0.00     0.044 A 
HETATM    5  C   UNL     1      28.158  44.371  53.794  1.00  0.00     0.004 A 
HETATM    6  C   UNL     1      27.788  43.489  52.731  1.00  0.00     0.050 A 
HETATM    7  C   UNL     1      27.339  46.529  54.624  1.00  0.00     0.031 A 
HETATM    8  C   UNL     1      28.316  46.494  55.624  1.00  0.00     0.014 A 
HETATM    9  C   UNL     1      29.216  45.426  55.738  1.00  0.00    -0.025 A 
HETATM   10  C   UNL     1      29.151  44.350  54.818  1.00  0.00    -0.013 A 
HETATM   11  C   UNL     1      30.189  45.394  56.751  1.00  0.00     0.012 A 
HETATM   12  C   UNL     1      31.078  44.321  56.856  1.00  0.00     0.001 A 
HETATM   13  C   UNL     1      31.013  43.265  55.951  1.00  0.00     0.001 A 
HETATM   14  C   UNL     1      30.056  43.275  54.935  1.00  0.00     0.013 A 
ENDROOT
BRANCH   1  15
HETATM   15  C   UNL     1      25.902  43.544  50.961  1.00  0.00     0.286 C 
HETATM   16  N   UNL     1      25.914  44.332  49.829  1.00  0.00    -0.262 N 
HETATM   17  H   UNL     1      26.289  45.277  49.820  1.00  0.00     0.190 HD
HETATM   18  O   UNL     1      25.257  42.497  51.019  1.00  0.00    -0.264 OA
BRANCH  16  19
HETATM   19  N   UNL     1      25.142  43.952  48.723  1.00  0.00    -0.267 N 
HETATM   20  C   UNL     1      23.938  44.599  48.525  1.00  0.00     0.245 C 
HETATM   21  O   UNL     1      23.608  45.589  49.179  1.00  0.00    -0.271 OA
HETATM   22  H   UNL     1      25.273  42.999  48.379  1.00  0.00     0.190 HD
BRANCH  20  23
HETATM   23  C   UNL     1      23.104  44.074  47.369  1.00  0.00     0.177 C 
BRANCH  23  24
HETATM   24  S   UNL     1      21.382  44.670  47.392  1.00  0.00    -0.164 SA
HETATM   25  C   UNL     1      21.426  45.731  45.925  1.00  0.00     0.090 C 
ENDBRANCH  23  24
ENDBRANCH  20  23
ENDBRANCH  16  19
ENDBRANCH   1  15
TORSDOF 4
ENDMDL
MODEL 10
REMARK VINA RESULT:      -7.9      1.907      2.739
REMARK  4 active torsions:
REMARK  status: ('A' for Active; 'I' for Inactive)
REMARK    1  A    between atoms: S_2  and  C_3 
REMARK    2  A    between atoms: C_3  and  C_4 
REMARK       I    between atoms: C_4  and  N_5 
REMARK    3  A    between atoms: N_5  and  N_6 
REMARK       I    between atoms: N_6  and  C_7 
REMARK    4  A    between atoms: C_7  and  C_8 
ROOT
HETATM    1  C   UNL     1      25.568  45.262  51.263  1.00  0.00     0.103 A 
HETATM    2  N   UNL     1      26.143  44.082  50.848  1.00  0.00    -0.351 N 
HETATM    3  H   UNL     1      25.859  43.584  50.014  1.00  0.00     0.166 HD
HETATM    4  C   UNL     1      27.163  43.702  51.688  1.00  0.00     0.044 A 
HETATM    5  C   UNL     1      27.247  44.660  52.696  1.00  0.00     0.004 A 
HETATM    6  C   UNL     1      26.230  45.628  52.423  1.00  0.00     0.050 A 
HETATM    7  C   UNL     1      28.011  42.593  51.620  1.00  0.00     0.031 A 
HETATM    8  C   UNL     1      28.987  42.458  52.613  1.00  0.00     0.014 A 
HETATM    9  C   UNL     1      29.121  43.396  53.647  1.00  0.00    -0.025 A 
HETATM   10  C   UNL     1      28.247  44.510  53.703  1.00  0.00    -0.013 A 
HETATM   11  C   UNL     1      30.109  43.259  54.634  1.00  0.00     0.012 A 
HETATM   12  C   UNL     1      30.235  44.202  55.657  1.00  0.00     0.001 A 
HETATM   13  C   UNL     1      29.374  45.296  55.712  1.00  0.00     0.001 A 
HETATM   14  C   UNL     1      28.383  45.453  54.742  1.00  0.00     0.013 A 
ENDROOT
BRANCH   1  15
HETATM   15  C   UNL     1      24.507  45.892  50.511  1.00  0.00     0.286 C 
HETATM   16  N   UNL     1      24.373  47.251  50.700  1.00  0.00    -0.262 N 
HETATM   17  H   UNL     1      24.843  47.752  51.449  1.00  0.00     0.190 HD
HETATM   18  O   UNL     1      23.772  45.264  49.748  1.00  0.00    -0.264 OA
BRANCH  16  19
HETATM   19  N   UNL     1      23.350  47.936  50.032  1.00  0.00    -0.267 N 
HETATM   20  C   UNL     1      23.712  48.858  49.070  1.00  0.00     0.245 C 
HETATM   21  O   UNL     1      24.872  48.973  48.673  1.00  0.00    -0.271 OA
HETATM   22  H   UNL     1      22.466  48.043  50.534  1.00  0.00     0.190 HD
BRANCH  20  23
HETATM   23  C   UNL     1      22.563  49.636  48.454  1.00  0.00     0.177 C 
BRANCH  23  24
HETATM   24  S   UNL     1      21.561  50.539  49.680  1.00  0.00    -0.164 SA
HETATM   25  C   UNL     1      20.055  49.536  49.615  1.00  0.00     0.090 C 
ENDBRANCH  23  24
ENDBRANCH  20  23
ENDBRANCH  16  19
ENDBRANCH   1  15
TORSDOF 4
ENDMDL
