MODEL 1
REMARK VINA RESULT:      -8.4      0.000      0.000
REMARK  9 active torsions:
REMARK  status: ('A' for Active; 'I' for Inactive)
REMARK    1  A    between atoms: C_3  and  C_4 
REMARK    2  A    between atoms: C_4  and  O_5 
REMARK    3  A    between atoms: C_8  and  N_9 
REMARK       I    between atoms: N_9  and  C_10 
REMARK    4  A    between atoms: C_10  and  C_11 
REMARK    5  A    between atoms: C_11  and  N_12 
REMARK    6  A    between atoms: C_14  and  C_15 
REMARK    7  A    between atoms: C_16  and  O_17 
REMARK    8  A    between atoms: C_21  and  O_22 
REMARK    9  A    between atoms: C_26  and  O_27 
ROOT
HETATM    1  N   UNL     1      23.530  45.207  49.209  1.00  0.00    -0.054 N 
HETATM    2  H   UNL     1      23.303  45.964  49.868  1.00  0.00     0.281 HD
HETATM    3  C   UNL     1      24.994  44.906  49.570  1.00  0.00     0.231 C 
HETATM    4  C   UNL     1      25.372  43.436  49.222  1.00  0.00     0.055 C 
HETATM    5  C   UNL     1      24.318  42.347  49.501  1.00  0.00     0.065 C 
HETATM    6  C   UNL     1      22.953  42.783  48.978  1.00  0.00     0.066 C 
HETATM    7  C   UNL     1      22.550  44.129  49.552  1.00  0.00     0.239 C 
HETATM    8  C   UNL     1      26.758  43.017  49.741  1.00  0.00     0.010 C 
HETATM    9  C   UNL     1      27.195  41.696  49.104  1.00  0.00     0.001 C 
HETATM   10  C   UNL     1      26.159  40.590  49.286  1.00  0.00     0.003 C 
HETATM   11  C   UNL     1      24.759  41.022  48.841  1.00  0.00     0.038 C 
ENDROOT
BRANCH   1  12
HETATM   12  C   UNL     1      23.323  45.914  47.863  1.00  0.00     0.338 C 
BRANCH  12  13
HETATM   13  C   UNL     1      22.206  46.950  47.802  1.00  0.00     0.248 C 
HETATM   14  N   UNL     1      21.927  47.555  49.019  1.00  0.00    -0.319 N 
HETATM   15  H   UNL     1      22.038  47.029  49.876  1.00  0.00     0.169 HD
HETATM   16  O   UNL     1      21.578  47.132  46.761  1.00  0.00    -0.271 OA
BRANCH  14  17
HETATM   17  C   UNL     1      20.999  48.575  49.075  1.00  0.00     0.094 C 
HETATM   18  C   UNL     1      21.109  49.952  49.085  1.00  0.00     0.080 C 
HETATM   19  C   UNL     1      19.778  50.550  48.983  1.00  0.00    -0.030 C 
HETATM   20  C   UNL     1      19.502  52.023  48.902  1.00  0.00     0.050 C 
HETATM   21  C   UNL     1      18.778  49.582  49.005  1.00  0.00    -0.012 C 
HETATM   22  S   UNL     1      19.410  48.009  49.196  1.00  0.00    -0.076 SA
HETATM   23  C   UNL     1      17.296  49.773  48.922  1.00  0.00     0.057 C 
BRANCH  18  24
HETATM   24  C   UNL     1      22.401  50.640  49.259  1.00  0.00     0.296 C 
HETATM   25  O   UNL     1      22.817  51.025  50.348  1.00  0.00    -0.259 OA
BRANCH  24  26
HETATM   26  O   UNL     1      23.045  50.878  48.081  1.00  0.00    -0.322 OA
HETATM   27  C   UNL     1      24.259  50.150  47.889  1.00  0.00     0.213 C 
ENDBRANCH  24  26
ENDBRANCH  18  24
ENDBRANCH  14  17
ENDBRANCH  12  13
ENDBRANCH   1  12
BRANCH   3  28
HETATM   28  C   UNL     1      25.328  45.515  50.934  1.00  0.00     0.009 A 
HETATM   29  C   UNL     1      25.723  46.873  51.013  1.00  0.00     0.076 A 
HETATM   30  C   UNL     1      25.978  47.466  52.253  1.00  0.00     0.040 A 
HETATM   31  C   UNL     1      25.845  46.725  53.426  1.00  0.00     0.039 A 
HETATM   32  C   UNL     1      25.457  45.392  53.374  1.00  0.00     0.069 A 
HETATM   33  C   UNL     1      25.183  44.803  52.138  1.00  0.00     0.048 A 
BRANCH  29  34
HETATM   34  O   UNL     1      25.768  47.562  49.828  1.00  0.00    -0.355 OA
HETATM   35  C   UNL     1      26.988  48.245  49.533  1.00  0.00     0.210 C 
ENDBRANCH  29  34
BRANCH  32  36
HETATM   36  O   UNL     1      25.338  44.779  54.590  1.00  0.00    -0.356 OA
HETATM   37  C   UNL     1      26.236  43.707  54.856  1.00  0.00     0.210 C 
ENDBRANCH  32  36
ENDBRANCH   3  28
BRANCH   5  38
HETATM   38  O   UNL     1      24.164  42.138  50.902  1.00  0.00    -0.389 OA
HETATM   39  H   UNL     1      24.012  41.191  51.083  1.00  0.00     0.210 HD
ENDBRANCH   5  38
TORSDOF 9
ENDMDL
MODEL 2
REMARK VINA RESULT:      -7.7     10.145     13.273
REMARK  9 active torsions:
REMARK  status: ('A' for Active; 'I' for Inactive)
REMARK    1  A    between atoms: C_3  and  C_4 
REMARK    2  A    between atoms: C_4  and  O_5 
REMARK    3  A    between atoms: C_8  and  N_9 
REMARK       I    between atoms: N_9  and  C_10 
REMARK    4  A    between atoms: C_10  and  C_11 
REMARK    5  A    between atoms: C_11  and  N_12 
REMARK    6  A    between atoms: C_14  and  C_15 
REMARK    7  A    between atoms: C_16  and  O_17 
REMARK    8  A    between atoms: C_21  and  O_22 
REMARK    9  A    between atoms: C_26  and  O_27 
ROOT
HETATM    1  N   UNL     1      29.946  47.511  40.633  1.00  0.00    -0.054 N 
HETATM    2  H   UNL     1      29.983  46.696  41.259  1.00  0.00     0.281 HD
HETATM    3  C   UNL     1      28.821  47.112  39.665  1.00  0.00     0.231 C 
HETATM    4  C   UNL     1      28.125  48.366  39.057  1.00  0.00     0.055 C 
HETATM    5  C   UNL     1      27.883  49.567  39.993  1.00  0.00     0.065 C 
HETATM    6  C   UNL     1      29.144  49.877  40.794  1.00  0.00     0.066 C 
HETATM    7  C   UNL     1      29.630  48.652  41.549  1.00  0.00     0.239 C 
HETATM    8  C   UNL     1      26.865  48.036  38.239  1.00  0.00     0.010 C 
HETATM    9  C   UNL     1      26.420  49.250  37.421  1.00  0.00     0.001 C 
HETATM   10  C   UNL     1      26.230  50.495  38.283  1.00  0.00     0.003 C 
HETATM   11  C   UNL     1      27.451  50.792  39.159  1.00  0.00     0.038 C 
ENDROOT
BRANCH   1  12
HETATM   12  C   UNL     1      31.359  47.489  40.034  1.00  0.00     0.338 C 
BRANCH  12  13
HETATM   13  C   UNL     1      32.459  48.149  40.860  1.00  0.00     0.248 C 
HETATM   14  N   UNL     1      32.805  49.421  40.430  1.00  0.00    -0.319 N 
HETATM   15  H   UNL     1      32.753  49.647  39.445  1.00  0.00     0.169 HD
HETATM   16  O   UNL     1      33.020  47.529  41.762  1.00  0.00    -0.271 OA
BRANCH  14  17
HETATM   17  C   UNL     1      33.724  50.156  41.151  1.00  0.00     0.094 C 
HETATM   18  C   UNL     1      33.643  50.875  42.329  1.00  0.00     0.080 C 
HETATM   19  C   UNL     1      34.979  51.321  42.722  1.00  0.00    -0.030 C 
HETATM   20  C   UNL     1      35.297  52.076  43.981  1.00  0.00     0.050 C 
HETATM   21  C   UNL     1      35.933  50.989  41.765  1.00  0.00    -0.012 C 
HETATM   22  S   UNL     1      35.242  50.215  40.410  1.00  0.00    -0.076 SA
HETATM   23  C   UNL     1      37.405  51.261  41.785  1.00  0.00     0.057 C 
BRANCH  18  24
HETATM   24  C   UNL     1      32.357  51.174  42.984  1.00  0.00     0.296 C 
HETATM   25  O   UNL     1      31.694  50.330  43.582  1.00  0.00    -0.259 OA
BRANCH  24  26
HETATM   26  O   UNL     1      31.941  52.457  42.790  1.00  0.00    -0.322 OA
HETATM   27  C   UNL     1      30.557  52.610  42.470  1.00  0.00     0.213 C 
ENDBRANCH  24  26
ENDBRANCH  18  24
ENDBRANCH  14  17
ENDBRANCH  12  13
ENDBRANCH   1  12
BRANCH   3  28
HETATM   28  C   UNL     1      28.010  45.958  40.260  1.00  0.00     0.009 A 
HETATM   29  C   UNL     1      28.380  44.623  39.966  1.00  0.00     0.076 A 
HETATM   30  C   UNL     1      27.690  43.552  40.543  1.00  0.00     0.040 A 
HETATM   31  C   UNL     1      26.629  43.790  41.414  1.00  0.00     0.039 A 
HETATM   32  C   UNL     1      26.248  45.091  41.719  1.00  0.00     0.069 A 
HETATM   33  C   UNL     1      26.948  46.161  41.159  1.00  0.00     0.048 A 
BRANCH  29  34
HETATM   34  O   UNL     1      29.476  44.460  39.156  1.00  0.00    -0.355 OA
HETATM   35  C   UNL     1      29.346  43.520  38.089  1.00  0.00     0.210 C 
ENDBRANCH  29  34
BRANCH  32  36
HETATM   36  O   UNL     1      25.211  45.196  42.602  1.00  0.00    -0.356 OA
HETATM   37  C   UNL     1      24.844  44.013  43.302  1.00  0.00     0.210 C 
ENDBRANCH  32  36
ENDBRANCH   3  28
BRANCH   5  38
HETATM   38  O   UNL     1      26.865  49.272  40.945  1.00  0.00    -0.389 OA
HETATM   39  H   UNL     1      26.826  48.309  41.104  1.00  0.00     0.210 HD
ENDBRANCH   5  38
TORSDOF 9
ENDMDL
MODEL 3
REMARK VINA RESULT:      -7.7      3.124      8.875
REMARK  9 active torsions:
REMARK  status: ('A' for Active; 'I' for Inactive)
REMARK    1  A    between atoms: C_3  and  C_4 
REMARK    2  A    between atoms: C_4  and  O_5 
REMARK    3  A    between atoms: C_8  and  N_9 
REMARK       I    between atoms: N_9  and  C_10 
REMARK    4  A    between atoms: C_10  and  C_11 
REMARK    5  A    between atoms: C_11  and  N_12 
REMARK    6  A    between atoms: C_14  and  C_15 
REMARK    7  A    between atoms: C_16  and  O_17 
REMARK    8  A    between atoms: C_21  and  O_22 
REMARK    9  A    between atoms: C_26  and  O_27 
ROOT
HETATM    1  N   UNL     1      18.956  46.922  47.787  1.00  0.00    -0.054 N 
HETATM    2  H   UNL     1      18.474  46.391  47.050  1.00  0.00     0.281 HD
HETATM    3  C   UNL     1      19.318  48.222  47.052  1.00  0.00     0.231 C 
HETATM    4  C   UNL     1      19.449  49.416  48.043  1.00  0.00     0.055 C 
HETATM    5  C   UNL     1      18.430  49.495  49.197  1.00  0.00     0.065 C 
HETATM    6  C   UNL     1      18.284  48.134  49.871  1.00  0.00     0.066 C 
HETATM    7  C   UNL     1      17.924  47.059  48.862  1.00  0.00     0.239 C 
HETATM    8  C   UNL     1      19.612  50.779  47.349  1.00  0.00     0.010 C 
HETATM    9  C   UNL     1      20.048  51.847  48.354  1.00  0.00     0.001 C 
HETATM   10  C   UNL     1      19.115  51.929  49.559  1.00  0.00     0.003 C 
HETATM   11  C   UNL     1      18.886  50.563  50.215  1.00  0.00     0.038 C 
ENDROOT
BRANCH   1  12
HETATM   12  C   UNL     1      20.141  45.995  48.093  1.00  0.00     0.338 C 
BRANCH  12  13
HETATM   13  C   UNL     1      21.532  46.608  47.983  1.00  0.00     0.248 C 
HETATM   14  N   UNL     1      21.936  47.306  49.111  1.00  0.00    -0.319 N 
HETATM   15  H   UNL     1      21.248  47.793  49.670  1.00  0.00     0.169 HD
HETATM   16  O   UNL     1      22.164  46.538  46.930  1.00  0.00    -0.271 OA
BRANCH  14  17
HETATM   17  C   UNL     1      23.212  47.830  49.167  1.00  0.00     0.094 C 
HETATM   18  C   UNL     1      24.392  47.381  49.728  1.00  0.00     0.080 C 
HETATM   19  C   UNL     1      25.487  48.268  49.336  1.00  0.00    -0.030 C 
HETATM   20  C   UNL     1      26.929  48.066  49.702  1.00  0.00     0.050 C 
HETATM   21  C   UNL     1      25.028  49.357  48.602  1.00  0.00    -0.012 C 
HETATM   22  S   UNL     1      23.330  49.348  48.432  1.00  0.00    -0.076 SA
HETATM   23  C   UNL     1      25.818  50.486  48.017  1.00  0.00     0.057 C 
BRANCH  18  24
HETATM   24  C   UNL     1      24.445  46.223  50.638  1.00  0.00     0.296 C 
HETATM   25  O   UNL     1      24.929  46.275  51.766  1.00  0.00    -0.259 OA
BRANCH  24  26
HETATM   26  O   UNL     1      23.978  45.074  50.072  1.00  0.00    -0.322 OA
HETATM   27  C   UNL     1      24.789  44.533  49.028  1.00  0.00     0.213 C 
ENDBRANCH  24  26
ENDBRANCH  18  24
ENDBRANCH  14  17
ENDBRANCH  12  13
ENDBRANCH   1  12
BRANCH   3  28
HETATM   28  C   UNL     1      18.494  48.338  45.767  1.00  0.00     0.009 A 
HETATM   29  C   UNL     1      18.838  47.544  44.645  1.00  0.00     0.076 A 
HETATM   30  C   UNL     1      18.066  47.591  43.480  1.00  0.00     0.040 A 
HETATM   31  C   UNL     1      16.949  48.421  43.412  1.00  0.00     0.039 A 
HETATM   32  C   UNL     1      16.591  49.208  44.499  1.00  0.00     0.069 A 
HETATM   33  C   UNL     1      17.349  49.147  45.670  1.00  0.00     0.048 A 
BRANCH  29  34
HETATM   34  O   UNL     1      19.908  46.700  44.803  1.00  0.00    -0.355 OA
HETATM   35  C   UNL     1      19.709  45.339  44.419  1.00  0.00     0.210 C 
ENDBRANCH  29  34
BRANCH  32  36
HETATM   36  O   UNL     1      15.464  49.960  44.320  1.00  0.00    -0.356 OA
HETATM   37  C   UNL     1      14.641  50.162  45.464  1.00  0.00     0.210 C 
ENDBRANCH  32  36
ENDBRANCH   3  28
BRANCH   5  38
HETATM   38  O   UNL     1      17.138  49.842  48.709  1.00  0.00    -0.389 OA
HETATM   39  H   UNL     1      16.795  49.131  48.135  1.00  0.00     0.210 HD
ENDBRANCH   5  38
TORSDOF 9
ENDMDL
MODEL 4
REMARK VINA RESULT:      -7.6      2.619      7.483
REMARK  9 active torsions:
REMARK  status: ('A' for Active; 'I' for Inactive)
REMARK    1  A    between atoms: C_3  and  C_4 
REMARK    2  A    between atoms: C_4  and  O_5 
REMARK    3  A    between atoms: C_8  and  N_9 
REMARK       I    between atoms: N_9  and  C_10 
REMARK    4  A    between atoms: C_10  and  C_11 
REMARK    5  A    between atoms: C_11  and  N_12 
REMARK    6  A    between atoms: C_14  and  C_15 
REMARK    7  A    between atoms: C_16  and  O_17 
REMARK    8  A    between atoms: C_21  and  O_22 
REMARK    9  A    between atoms: C_26  and  O_27 
ROOT
HETATM    1  N   UNL     1      22.296  45.457  48.724  1.00  0.00    -0.054 N 
HETATM    2  H   UNL     1      22.947  46.135  49.141  1.00  0.00     0.281 HD
HETATM    3  C   UNL     1      21.079  46.342  48.411  1.00  0.00     0.231 C 
HETATM    4  C   UNL     1      20.247  45.763  47.228  1.00  0.00     0.055 C 
HETATM    5  C   UNL     1      21.024  45.155  46.044  1.00  0.00     0.065 C 
HETATM    6  C   UNL     1      22.121  44.225  46.552  1.00  0.00     0.066 C 
HETATM    7  C   UNL     1      23.036  44.939  47.530  1.00  0.00     0.239 C 
HETATM    8  C   UNL     1      19.133  46.705  46.739  1.00  0.00     0.010 C 
HETATM    9  C   UNL     1      18.169  45.963  45.811  1.00  0.00     0.001 C 
HETATM   10  C   UNL     1      18.887  45.277  44.651  1.00  0.00     0.003 C 
HETATM   11  C   UNL     1      20.046  44.394  45.123  1.00  0.00     0.038 C 
ENDROOT
BRANCH   1  12
HETATM   12  C   UNL     1      22.105  44.474  49.887  1.00  0.00     0.338 C 
BRANCH  12  13
HETATM   13  C   UNL     1      23.367  44.036  50.622  1.00  0.00     0.248 C 
HETATM   14  N   UNL     1      24.390  44.973  50.603  1.00  0.00    -0.319 N 
HETATM   15  H   UNL     1      24.496  45.580  49.800  1.00  0.00     0.169 HD
HETATM   16  O   UNL     1      23.453  42.905  51.096  1.00  0.00    -0.271 OA
BRANCH  14  17
HETATM   17  C   UNL     1      25.549  44.730  51.311  1.00  0.00     0.094 C 
HETATM   18  C   UNL     1      26.118  45.323  52.422  1.00  0.00     0.080 C 
HETATM   19  C   UNL     1      27.281  44.545  52.849  1.00  0.00    -0.030 C 
HETATM   20  C   UNL     1      28.119  44.845  54.058  1.00  0.00     0.050 C 
HETATM   21  C   UNL     1      27.547  43.498  51.972  1.00  0.00    -0.012 C 
HETATM   22  S   UNL     1      26.471  43.478  50.648  1.00  0.00    -0.076 SA
HETATM   23  C   UNL     1      28.638  42.475  52.047  1.00  0.00     0.057 C 
BRANCH  18  24
HETATM   24  C   UNL     1      25.620  46.591  52.984  1.00  0.00     0.296 C 
HETATM   25  O   UNL     1      25.264  47.540  52.291  1.00  0.00    -0.259 OA
BRANCH  24  26
HETATM   26  O   UNL     1      25.672  46.632  54.346  1.00  0.00    -0.322 OA
HETATM   27  C   UNL     1      26.164  47.853  54.902  1.00  0.00     0.213 C 
ENDBRANCH  24  26
ENDBRANCH  18  24
ENDBRANCH  14  17
ENDBRANCH  12  13
ENDBRANCH   1  12
BRANCH   3  28
HETATM   28  C   UNL     1      21.485  47.817  48.454  1.00  0.00     0.009 A 
HETATM   29  C   UNL     1      20.720  48.728  49.224  1.00  0.00     0.076 A 
HETATM   30  C   UNL     1      21.104  50.068  49.325  1.00  0.00     0.040 A 
HETATM   31  C   UNL     1      22.246  50.522  48.668  1.00  0.00     0.039 A 
HETATM   32  C   UNL     1      23.013  49.648  47.908  1.00  0.00     0.069 A 
HETATM   33  C   UNL     1      22.642  48.304  47.822  1.00  0.00     0.048 A 
BRANCH  29  34
HETATM   34  O   UNL     1      19.647  48.201  49.899  1.00  0.00    -0.355 OA
HETATM   35  C   UNL     1      18.810  49.130  50.589  1.00  0.00     0.210 C 
ENDBRANCH  29  34
BRANCH  32  36
HETATM   36  O   UNL     1      24.121  50.204  47.333  1.00  0.00    -0.356 OA
HETATM   37  C   UNL     1      25.364  49.981  47.990  1.00  0.00     0.210 C 
ENDBRANCH  32  36
ENDBRANCH   3  28
BRANCH   5  38
HETATM   38  O   UNL     1      21.676  46.171  45.290  1.00  0.00    -0.389 OA
HETATM   39  H   UNL     1      21.797  46.969  45.839  1.00  0.00     0.210 HD
ENDBRANCH   5  38
TORSDOF 9
ENDMDL
MODEL 5
REMARK VINA RESULT:      -7.6      4.868      8.735
REMARK  9 active torsions:
REMARK  status: ('A' for Active; 'I' for Inactive)
REMARK    1  A    between atoms: C_3  and  C_4 
REMARK    2  A    between atoms: C_4  and  O_5 
REMARK    3  A    between atoms: C_8  and  N_9 
REMARK       I    between atoms: N_9  and  C_10 
REMARK    4  A    between atoms: C_10  and  C_11 
REMARK    5  A    between atoms: C_11  and  N_12 
REMARK    6  A    between atoms: C_14  and  C_15 
REMARK    7  A    between atoms: C_16  and  O_17 
REMARK    8  A    between atoms: C_21  and  O_22 
REMARK    9  A    between atoms: C_26  and  O_27 
ROOT
HETATM    1  N   UNL     1      26.972  41.417  47.902  1.00  0.00    -0.054 N 
HETATM    2  H   UNL     1      27.309  42.145  47.258  1.00  0.00     0.281 HD
HETATM    3  C   UNL     1      26.235  40.467  46.945  1.00  0.00     0.231 C 
HETATM    4  C   UNL     1      26.203  39.013  47.501  1.00  0.00     0.055 C 
HETATM    5  C   UNL     1      27.474  38.493  48.201  1.00  0.00     0.065 C 
HETATM    6  C   UNL     1      27.999  39.531  49.189  1.00  0.00     0.066 C 
HETATM    7  C   UNL     1      28.227  40.869  48.509  1.00  0.00     0.239 C 
HETATM    8  C   UNL     1      25.656  37.982  46.500  1.00  0.00     0.010 C 
HETATM    9  C   UNL     1      25.357  36.655  47.202  1.00  0.00     0.001 C 
HETATM   10  C   UNL     1      26.560  36.119  47.973  1.00  0.00     0.003 C 
HETATM   11  C   UNL     1      27.159  37.164  48.920  1.00  0.00     0.038 C 
ENDROOT
BRANCH   1  12
HETATM   12  C   UNL     1      26.068  42.238  48.832  1.00  0.00     0.338 C 
BRANCH  12  13
HETATM   13  C   UNL     1      26.767  43.071  49.900  1.00  0.00     0.248 C 
HETATM   14  N   UNL     1      26.687  42.538  51.178  1.00  0.00    -0.319 N 
HETATM   15  H   UNL     1      25.866  42.013  51.450  1.00  0.00     0.169 HD
HETATM   16  O   UNL     1      27.265  44.160  49.617  1.00  0.00    -0.271 OA
BRANCH  14  17
HETATM   17  C   UNL     1      27.358  43.154  52.215  1.00  0.00     0.094 C 
HETATM   18  C   UNL     1      27.019  44.175  53.083  1.00  0.00     0.080 C 
HETATM   19  C   UNL     1      28.057  44.312  54.105  1.00  0.00    -0.030 C 
HETATM   20  C   UNL     1      28.008  45.275  55.255  1.00  0.00     0.050 C 
HETATM   21  C   UNL     1      29.128  43.457  53.865  1.00  0.00    -0.012 C 
HETATM   22  S   UNL     1      28.924  42.555  52.431  1.00  0.00    -0.076 SA
HETATM   23  C   UNL     1      30.381  43.287  54.667  1.00  0.00     0.057 C 
BRANCH  18  24
HETATM   24  C   UNL     1      25.819  45.008  52.893  1.00  0.00     0.296 C 
HETATM   25  O   UNL     1      24.677  44.556  52.905  1.00  0.00    -0.259 OA
BRANCH  24  26
HETATM   26  O   UNL     1      26.108  46.312  52.621  1.00  0.00    -0.322 OA
HETATM   27  C   UNL     1      25.521  46.833  51.427  1.00  0.00     0.213 C 
ENDBRANCH  24  26
ENDBRANCH  18  24
ENDBRANCH  14  17
ENDBRANCH  12  13
ENDBRANCH   1  12
BRANCH   3  28
HETATM   28  C   UNL     1      26.651  40.761  45.501  1.00  0.00     0.009 A 
HETATM   29  C   UNL     1      25.661  41.104  44.547  1.00  0.00     0.076 A 
HETATM   30  C   UNL     1      26.022  41.431  43.237  1.00  0.00     0.040 A 
HETATM   31  C   UNL     1      27.363  41.423  42.856  1.00  0.00     0.039 A 
HETATM   32  C   UNL     1      28.352  41.091  43.774  1.00  0.00     0.069 A 
HETATM   33  C   UNL     1      27.994  40.783  45.088  1.00  0.00     0.048 A 
BRANCH  29  34
HETATM   34  O   UNL     1      24.369  41.159  45.006  1.00  0.00    -0.355 OA
HETATM   35  C   UNL     1      23.709  42.421  44.903  1.00  0.00     0.210 C 
ENDBRANCH  29  34
BRANCH  32  36
HETATM   36  O   UNL     1      29.629  41.142  43.289  1.00  0.00    -0.356 OA
HETATM   37  C   UNL     1      30.098  39.989  42.601  1.00  0.00     0.210 C 
ENDBRANCH  32  36
ENDBRANCH   3  28
BRANCH   5  38
HETATM   38  O   UNL     1      28.518  38.273  47.257  1.00  0.00    -0.389 OA
HETATM   39  H   UNL     1      28.164  38.328  46.349  1.00  0.00     0.210 HD
ENDBRANCH   5  38
TORSDOF 9
ENDMDL
MODEL 6
REMARK VINA RESULT:      -7.5     10.321     13.352
REMARK  9 active torsions:
REMARK  status: ('A' for Active; 'I' for Inactive)
REMARK    1  A    between atoms: C_3  and  C_4 
REMARK    2  A    between atoms: C_4  and  O_5 
REMARK    3  A    between atoms: C_8  and  N_9 
REMARK       I    between atoms: N_9  and  C_10 
REMARK    4  A    between atoms: C_10  and  C_11 
REMARK    5  A    between atoms: C_11  and  N_12 
REMARK    6  A    between atoms: C_14  and  C_15 
REMARK    7  A    between atoms: C_16  and  O_17 
REMARK    8  A    between atoms: C_21  and  O_22 
REMARK    9  A    between atoms: C_26  and  O_27 
ROOT
HETATM    1  N   UNL     1      31.211  49.282  40.567  1.00  0.00    -0.054 N 
HETATM    2  H   UNL     1      32.170  48.944  40.727  1.00  0.00     0.281 HD
HETATM    3  C   UNL     1      31.337  50.769  40.931  1.00  0.00     0.231 C 
HETATM    4  C   UNL     1      30.274  51.628  40.183  1.00  0.00     0.055 C 
HETATM    5  C   UNL     1      29.972  51.263  38.716  1.00  0.00     0.065 C 
HETATM    6  C   UNL     1      29.775  49.757  38.574  1.00  0.00     0.066 C 
HETATM    7  C   UNL     1      30.968  48.993  39.119  1.00  0.00     0.239 C 
HETATM    8  C   UNL     1      30.477  53.143  40.350  1.00  0.00     0.010 C 
HETATM    9  C   UNL     1      29.242  53.908  39.868  1.00  0.00     0.001 C 
HETATM   10  C   UNL     1      28.848  53.540  38.440  1.00  0.00     0.003 C 
HETATM   11  C   UNL     1      28.716  52.026  38.244  1.00  0.00     0.038 C 
ENDROOT
BRANCH   1  12
HETATM   12  C   UNL     1      30.425  48.429  41.573  1.00  0.00     0.338 C 
BRANCH  12  13
HETATM   13  C   UNL     1      28.904  48.496  41.482  1.00  0.00     0.248 C 
HETATM   14  N   UNL     1      28.344  47.547  40.640  1.00  0.00    -0.319 N 
HETATM   15  H   UNL     1      28.855  47.242  39.821  1.00  0.00     0.169 HD
HETATM   16  O   UNL     1      28.283  49.391  42.053  1.00  0.00    -0.271 OA
BRANCH  14  17
HETATM   17  C   UNL     1      26.971  47.448  40.544  1.00  0.00     0.094 C 
HETATM   18  C   UNL     1      26.050  46.563  41.070  1.00  0.00     0.080 C 
HETATM   19  C   UNL     1      24.696  47.035  40.777  1.00  0.00    -0.030 C 
HETATM   20  C   UNL     1      23.435  46.368  41.243  1.00  0.00     0.050 C 
HETATM   21  C   UNL     1      24.712  48.173  39.977  1.00  0.00    -0.012 C 
HETATM   22  S   UNL     1      26.298  48.632  39.543  1.00  0.00    -0.076 SA
HETATM   23  C   UNL     1      23.551  48.962  39.458  1.00  0.00     0.057 C 
BRANCH  18  24
HETATM   24  C   UNL     1      26.449  45.312  41.740  1.00  0.00     0.296 C 
HETATM   25  O   UNL     1      26.077  45.005  42.870  1.00  0.00    -0.259 OA
BRANCH  24  26
HETATM   26  O   UNL     1      27.335  44.574  41.014  1.00  0.00    -0.322 OA
HETATM   27  C   UNL     1      26.758  43.751  39.998  1.00  0.00     0.213 C 
ENDBRANCH  24  26
ENDBRANCH  18  24
ENDBRANCH  14  17
ENDBRANCH  12  13
ENDBRANCH   1  12
BRANCH   3  28
HETATM   28  C   UNL     1      32.814  51.173  40.958  1.00  0.00     0.009 A 
HETATM   29  C   UNL     1      33.525  51.128  42.182  1.00  0.00     0.076 A 
HETATM   30  C   UNL     1      34.888  51.438  42.221  1.00  0.00     0.040 A 
HETATM   31  C   UNL     1      35.561  51.794  41.054  1.00  0.00     0.039 A 
HETATM   32  C   UNL     1      34.885  51.844  39.841  1.00  0.00     0.069 A 
HETATM   33  C   UNL     1      33.528  51.516  39.797  1.00  0.00     0.048 A 
BRANCH  29  34
HETATM   34  O   UNL     1      32.820  50.704  43.280  1.00  0.00    -0.355 OA
HETATM   35  C   UNL     1      32.547  51.686  44.281  1.00  0.00     0.210 C 
ENDBRANCH  29  34
BRANCH  32  36
HETATM   36  O   UNL     1      35.656  52.182  38.765  1.00  0.00    -0.356 OA
HETATM   37  C   UNL     1      37.057  52.289  38.989  1.00  0.00     0.210 C 
ENDBRANCH  32  36
ENDBRANCH   3  28
BRANCH   5  38
HETATM   38  O   UNL     1      31.067  51.606  37.872  1.00  0.00    -0.389 OA
HETATM   39  H   UNL     1      30.857  51.384  36.945  1.00  0.00     0.210 HD
ENDBRANCH   5  38
TORSDOF 9
ENDMDL
MODEL 7
REMARK VINA RESULT:      -7.5      1.705      2.910
REMARK  9 active torsions:
REMARK  status: ('A' for Active; 'I' for Inactive)
REMARK    1  A    between atoms: C_3  and  C_4 
REMARK    2  A    between atoms: C_4  and  O_5 
REMARK    3  A    between atoms: C_8  and  N_9 
REMARK       I    between atoms: N_9  and  C_10 
REMARK    4  A    between atoms: C_10  and  C_11 
REMARK    5  A    between atoms: C_11  and  N_12 
REMARK    6  A    between atoms: C_14  and  C_15 
REMARK    7  A    between atoms: C_16  and  O_17 
REMARK    8  A    between atoms: C_21  and  O_22 
REMARK    9  A    between atoms: C_26  and  O_27 
ROOT
HETATM    1  N   UNL     1      23.554  45.092  49.236  1.00  0.00    -0.054 N 
HETATM    2  H   UNL     1      23.308  45.846  49.891  1.00  0.00     0.281 HD
HETATM    3  C   UNL     1      25.026  44.832  49.595  1.00  0.00     0.231 C 
HETATM    4  C   UNL     1      25.443  43.371  49.254  1.00  0.00     0.055 C 
HETATM    5  C   UNL     1      24.419  42.255  49.542  1.00  0.00     0.065 C 
HETATM    6  C   UNL     1      23.041  42.652  49.020  1.00  0.00     0.066 C 
HETATM    7  C   UNL     1      22.604  43.990  49.587  1.00  0.00     0.239 C 
HETATM    8  C   UNL     1      26.840  42.991  49.772  1.00  0.00     0.010 C 
HETATM    9  C   UNL     1      27.311  41.679  49.141  1.00  0.00     0.001 C 
HETATM   10  C   UNL     1      26.306  40.547  49.332  1.00  0.00     0.003 C 
HETATM   11  C   UNL     1      24.893  40.940  48.888  1.00  0.00     0.038 C 
ENDROOT
BRANCH   1  12
HETATM   12  C   UNL     1      23.325  45.785  47.887  1.00  0.00     0.338 C 
BRANCH  12  13
HETATM   13  C   UNL     1      21.974  46.465  47.690  1.00  0.00     0.248 C 
HETATM   14  N   UNL     1      21.222  46.579  48.851  1.00  0.00    -0.319 N 
HETATM   15  H   UNL     1      21.294  45.865  49.565  1.00  0.00     0.169 HD
HETATM   16  O   UNL     1      21.593  46.783  46.565  1.00  0.00    -0.271 OA
BRANCH  14  17
HETATM   17  C   UNL     1      20.020  47.256  48.819  1.00  0.00     0.094 C 
HETATM   18  C   UNL     1      18.737  46.885  48.467  1.00  0.00     0.080 C 
HETATM   19  C   UNL     1      17.809  47.969  48.788  1.00  0.00    -0.030 C 
HETATM   20  C   UNL     1      16.320  47.908  48.604  1.00  0.00     0.050 C 
HETATM   21  C   UNL     1      18.478  49.094  49.258  1.00  0.00    -0.012 C 
HETATM   22  S   UNL     1      20.171  48.880  49.265  1.00  0.00    -0.076 SA
HETATM   23  C   UNL     1      17.902  50.406  49.694  1.00  0.00     0.057 C 
BRANCH  18  24
HETATM   24  C   UNL     1      18.440  45.605  47.798  1.00  0.00     0.296 C 
HETATM   25  O   UNL     1      18.716  44.512  48.285  1.00  0.00    -0.259 OA
BRANCH  24  26
HETATM   26  O   UNL     1      17.907  45.761  46.554  1.00  0.00    -0.322 OA
HETATM   27  C   UNL     1      17.402  44.568  45.950  1.00  0.00     0.213 C 
ENDBRANCH  24  26
ENDBRANCH  18  24
ENDBRANCH  14  17
ENDBRANCH  12  13
ENDBRANCH   1  12
BRANCH   3  28
HETATM   28  C   UNL     1      25.346  45.457  50.956  1.00  0.00     0.009 A 
HETATM   29  C   UNL     1      25.682  46.831  51.029  1.00  0.00     0.076 A 
HETATM   30  C   UNL     1      25.923  47.436  52.266  1.00  0.00     0.040 A 
HETATM   31  C   UNL     1      25.834  46.692  53.441  1.00  0.00     0.039 A 
HETATM   32  C   UNL     1      25.505  45.343  53.395  1.00  0.00     0.069 A 
HETATM   33  C   UNL     1      25.245  44.742  52.162  1.00  0.00     0.048 A 
BRANCH  29  34
HETATM   34  O   UNL     1      25.685  47.520  49.843  1.00  0.00    -0.355 OA
HETATM   35  C   UNL     1      26.899  48.187  49.496  1.00  0.00     0.210 C 
ENDBRANCH  29  34
BRANCH  32  36
HETATM   36  O   UNL     1      25.425  44.727  54.612  1.00  0.00    -0.356 OA
HETATM   37  C   UNL     1      26.247  43.582  54.804  1.00  0.00     0.210 C 
ENDBRANCH  32  36
ENDBRANCH   3  28
BRANCH   5  38
HETATM   38  O   UNL     1      24.273  42.050  50.944  1.00  0.00    -0.389 OA
HETATM   39  H   UNL     1      24.648  42.806  51.433  1.00  0.00     0.210 HD
ENDBRANCH   5  38
TORSDOF 9
ENDMDL
MODEL 8
REMARK VINA RESULT:      -7.3      1.869      2.793
REMARK  9 active torsions:
REMARK  status: ('A' for Active; 'I' for Inactive)
REMARK    1  A    between atoms: C_3  and  C_4 
REMARK    2  A    between atoms: C_4  and  O_5 
REMARK    3  A    between atoms: C_8  and  N_9 
REMARK       I    between atoms: N_9  and  C_10 
REMARK    4  A    between atoms: C_10  and  C_11 
REMARK    5  A    between atoms: C_11  and  N_12 
REMARK    6  A    between atoms: C_14  and  C_15 
REMARK    7  A    between atoms: C_16  and  O_17 
REMARK    8  A    between atoms: C_21  and  O_22 
REMARK    9  A    between atoms: C_26  and  O_27 
ROOT
HETATM    1  N   UNL     1      22.756  46.249  49.277  1.00  0.00    -0.054 N 
HETATM    2  H   UNL     1      22.775  46.889  50.083  1.00  0.00     0.281 HD
HETATM    3  C   UNL     1      24.112  45.538  49.408  1.00  0.00     0.231 C 
HETATM    4  C   UNL     1      24.074  44.122  48.761  1.00  0.00     0.055 C 
HETATM    5  C   UNL     1      22.795  43.285  48.959  1.00  0.00     0.065 C 
HETATM    6  C   UNL     1      21.558  44.134  48.682  1.00  0.00     0.066 C 
HETATM    7  C   UNL     1      21.555  45.392  49.531  1.00  0.00     0.239 C 
HETATM    8  C   UNL     1      25.336  43.285  49.035  1.00  0.00     0.010 C 
HETATM    9  C   UNL     1      25.374  42.055  48.125  1.00  0.00     0.001 C 
HETATM   10  C   UNL     1      24.102  41.218  48.223  1.00  0.00     0.003 C 
HETATM   11  C   UNL     1      22.835  42.056  48.025  1.00  0.00     0.038 C 
ENDROOT
BRANCH   1  12
HETATM   12  C   UNL     1      22.651  47.242  48.112  1.00  0.00     0.338 C 
BRANCH  12  13
HETATM   13  C   UNL     1      21.541  48.285  48.204  1.00  0.00     0.248 C 
HETATM   14  N   UNL     1      20.496  48.081  47.316  1.00  0.00    -0.319 N 
HETATM   15  H   UNL     1      20.682  47.668  46.411  1.00  0.00     0.169 HD
HETATM   16  O   UNL     1      21.655  49.253  48.954  1.00  0.00    -0.271 OA
BRANCH  14  17
HETATM   17  C   UNL     1      19.391  48.906  47.365  1.00  0.00     0.094 C 
HETATM   18  C   UNL     1      18.276  48.942  48.181  1.00  0.00     0.080 C 
HETATM   19  C   UNL     1      17.496  50.145  47.890  1.00  0.00    -0.030 C 
HETATM   20  C   UNL     1      16.250  50.559  48.618  1.00  0.00     0.050 C 
HETATM   21  C   UNL     1      18.031  50.857  46.820  1.00  0.00    -0.012 C 
HETATM   22  S   UNL     1      19.395  50.080  46.149  1.00  0.00    -0.076 SA
HETATM   23  C   UNL     1      17.539  52.133  46.212  1.00  0.00     0.057 C 
BRANCH  18  24
HETATM   24  C   UNL     1      17.948  47.854  49.120  1.00  0.00     0.296 C 
HETATM   25  O   UNL     1      16.955  47.140  49.002  1.00  0.00    -0.259 OA
BRANCH  24  26
HETATM   26  O   UNL     1      18.810  47.776  50.173  1.00  0.00    -0.322 OA
HETATM   27  C   UNL     1      18.721  48.845  51.117  1.00  0.00     0.213 C 
ENDBRANCH  24  26
ENDBRANCH  18  24
ENDBRANCH  14  17
ENDBRANCH  12  13
ENDBRANCH   1  12
BRANCH   3  28
HETATM   28  C   UNL     1      24.680  45.758  50.813  1.00  0.00     0.009 A 
HETATM   29  C   UNL     1      25.286  46.998  51.132  1.00  0.00     0.076 A 
HETATM   30  C   UNL     1      25.761  47.243  52.424  1.00  0.00     0.040 A 
HETATM   31  C   UNL     1      25.641  46.269  53.412  1.00  0.00     0.039 A 
HETATM   32  C   UNL     1      25.049  45.045  53.124  1.00  0.00     0.069 A 
HETATM   33  C   UNL     1      24.557  44.806  51.839  1.00  0.00     0.048 A 
BRANCH  29  34
HETATM   34  O   UNL     1      25.310  47.938  50.133  1.00  0.00    -0.355 OA
HETATM   35  C   UNL     1      26.596  48.290  49.619  1.00  0.00     0.210 C 
ENDBRANCH  29  34
BRANCH  32  36
HETATM   36  O   UNL     1      24.967  44.181  54.180  1.00  0.00    -0.356 OA
HETATM   37  C   UNL     1      26.193  43.808  54.798  1.00  0.00     0.210 C 
ENDBRANCH  32  36
ENDBRANCH   3  28
BRANCH   5  38
HETATM   38  O   UNL     1      22.684  42.840  50.307  1.00  0.00    -0.389 OA
HETATM   39  H   UNL     1      23.479  42.332  50.557  1.00  0.00     0.210 HD
ENDBRANCH   5  38
TORSDOF 9
ENDMDL
MODEL 9
REMARK VINA RESULT:      -7.3      2.296      5.134
REMARK  9 active torsions:
REMARK  status: ('A' for Active; 'I' for Inactive)
REMARK    1  A    between atoms: C_3  and  C_4 
REMARK    2  A    between atoms: C_4  and  O_5 
REMARK    3  A    between atoms: C_8  and  N_9 
REMARK       I    between atoms: N_9  and  C_10 
REMARK    4  A    between atoms: C_10  and  C_11 
REMARK    5  A    between atoms: C_11  and  N_12 
REMARK    6  A    between atoms: C_14  and  C_15 
REMARK    7  A    between atoms: C_16  and  O_17 
REMARK    8  A    between atoms: C_21  and  O_22 
REMARK    9  A    between atoms: C_26  and  O_27 
ROOT
HETATM    1  N   UNL     1      22.881  44.482  48.794  1.00  0.00    -0.054 N 
HETATM    2  H   UNL     1      22.935  43.912  47.939  1.00  0.00     0.281 HD
HETATM    3  C   UNL     1      23.618  43.596  49.809  1.00  0.00     0.231 C 
HETATM    4  C   UNL     1      24.246  44.446  50.953  1.00  0.00     0.055 C 
HETATM    5  C   UNL     1      24.889  45.792  50.565  1.00  0.00     0.065 C 
HETATM    6  C   UNL     1      23.963  46.574  49.639  1.00  0.00     0.066 C 
HETATM    7  C   UNL     1      23.582  45.751  48.422  1.00  0.00     0.239 C 
HETATM    8  C   UNL     1      25.163  43.640  51.888  1.00  0.00     0.010 C 
HETATM    9  C   UNL     1      25.487  44.443  53.150  1.00  0.00     0.001 C 
HETATM   10  C   UNL     1      26.064  45.819  52.833  1.00  0.00     0.003 C 
HETATM   11  C   UNL     1      25.196  46.603  51.843  1.00  0.00     0.038 C 
ENDROOT
BRANCH   1  12
HETATM   12  C   UNL     1      21.362  44.575  48.992  1.00  0.00     0.338 C 
BRANCH  12  13
HETATM   13  C   UNL     1      20.677  45.818  48.433  1.00  0.00     0.248 C 
HETATM   14  N   UNL     1      20.069  46.612  49.395  1.00  0.00    -0.319 N 
HETATM   15  H   UNL     1      19.669  46.181  50.218  1.00  0.00     0.169 HD
HETATM   16  O   UNL     1      20.619  46.007  47.219  1.00  0.00    -0.271 OA
BRANCH  14  17
HETATM   17  C   UNL     1      19.494  47.810  49.024  1.00  0.00     0.094 C 
HETATM   18  C   UNL     1      18.197  48.183  48.729  1.00  0.00     0.080 C 
HETATM   19  C   UNL     1      18.132  49.635  48.560  1.00  0.00    -0.030 C 
HETATM   20  C   UNL     1      16.877  50.413  48.292  1.00  0.00     0.050 C 
HETATM   21  C   UNL     1      19.393  50.217  48.643  1.00  0.00    -0.012 C 
HETATM   22  S   UNL     1      20.625  49.057  48.862  1.00  0.00    -0.076 SA
HETATM   23  C   UNL     1      19.759  51.664  48.526  1.00  0.00     0.057 C 
BRANCH  18  24
HETATM   24  C   UNL     1      17.114  47.200  48.548  1.00  0.00     0.296 C 
HETATM   25  O   UNL     1      16.114  47.161  49.260  1.00  0.00    -0.259 OA
BRANCH  24  26
HETATM   26  O   UNL     1      17.374  46.291  47.566  1.00  0.00    -0.322 OA
HETATM   27  C   UNL     1      17.237  46.777  46.229  1.00  0.00     0.213 C 
ENDBRANCH  24  26
ENDBRANCH  18  24
ENDBRANCH  14  17
ENDBRANCH  12  13
ENDBRANCH   1  12
BRANCH   3  28
HETATM   28  C   UNL     1      24.429  42.526  49.072  1.00  0.00     0.009 A 
HETATM   29  C   UNL     1      23.752  41.529  48.328  1.00  0.00     0.076 A 
HETATM   30  C   UNL     1      24.471  40.576  47.601  1.00  0.00     0.040 A 
HETATM   31  C   UNL     1      25.864  40.599  47.601  1.00  0.00     0.039 A 
HETATM   32  C   UNL     1      26.551  41.568  48.321  1.00  0.00     0.069 A 
HETATM   33  C   UNL     1      25.834  42.532  49.033  1.00  0.00     0.048 A 
BRANCH  29  34
HETATM   34  O   UNL     1      22.381  41.605  48.316  1.00  0.00    -0.355 OA
HETATM   35  C   UNL     1      21.738  41.322  47.073  1.00  0.00     0.210 C 
ENDBRANCH  29  34
BRANCH  32  36
HETATM   36  O   UNL     1      27.913  41.502  48.224  1.00  0.00    -0.356 OA
HETATM   37  C   UNL     1      28.532  40.314  48.703  1.00  0.00     0.210 C 
ENDBRANCH  32  36
ENDBRANCH   3  28
BRANCH   5  38
HETATM   38  O   UNL     1      26.100  45.587  49.844  1.00  0.00    -0.389 OA
HETATM   39  H   UNL     1      26.694  45.000  50.349  1.00  0.00     0.210 HD
ENDBRANCH   5  38
TORSDOF 9
ENDMDL
MODEL 10
REMARK VINA RESULT:      -7.3      1.594      4.395
REMARK  9 active torsions:
REMARK  status: ('A' for Active; 'I' for Inactive)
REMARK    1  A    between atoms: C_3  and  C_4 
REMARK    2  A    between atoms: C_4  and  O_5 
REMARK    3  A    between atoms: C_8  and  N_9 
REMARK       I    between atoms: N_9  and  C_10 
REMARK    4  A    between atoms: C_10  and  C_11 
REMARK    5  A    between atoms: C_11  and  N_12 
REMARK    6  A    between atoms: C_14  and  C_15 
REMARK    7  A    between atoms: C_16  and  O_17 
REMARK    8  A    between atoms: C_21  and  O_22 
REMARK    9  A    between atoms: C_26  and  O_27 
ROOT
HETATM    1  N   UNL     1      22.950  44.659  48.655  1.00  0.00    -0.054 N 
HETATM    2  H   UNL     1      23.032  44.098  47.797  1.00  0.00     0.281 HD
HETATM    3  C   UNL     1      23.594  43.732  49.698  1.00  0.00     0.231 C 
HETATM    4  C   UNL     1      24.186  44.543  50.889  1.00  0.00     0.055 C 
HETATM    5  C   UNL     1      24.899  45.869  50.559  1.00  0.00     0.065 C 
HETATM    6  C   UNL     1      24.058  46.697  49.593  1.00  0.00     0.066 C 
HETATM    7  C   UNL     1      23.717  45.905  48.344  1.00  0.00     0.239 C 
HETATM    8  C   UNL     1      25.017  43.690  51.863  1.00  0.00     0.010 C 
HETATM    9  C   UNL     1      25.296  44.465  53.153  1.00  0.00     0.001 C 
HETATM   10  C   UNL     1      25.941  45.822  52.890  1.00  0.00     0.003 C 
HETATM   11  C   UNL     1      25.161  46.651  51.864  1.00  0.00     0.038 C 
ENDROOT
BRANCH   1  12
HETATM   12  C   UNL     1      21.426  44.806  48.767  1.00  0.00     0.338 C 
BRANCH  12  13
HETATM   13  C   UNL     1      20.839  46.146  48.338  1.00  0.00     0.248 C 
HETATM   14  N   UNL     1      20.389  46.932  49.389  1.00  0.00    -0.319 N 
HETATM   15  H   UNL     1      20.005  46.489  50.215  1.00  0.00     0.169 HD
HETATM   16  O   UNL     1      20.714  46.420  47.146  1.00  0.00    -0.271 OA
BRANCH  14  17
HETATM   17  C   UNL     1      19.919  48.204  49.136  1.00  0.00     0.094 C 
HETATM   18  C   UNL     1      20.547  49.405  48.864  1.00  0.00     0.080 C 
HETATM   19  C   UNL     1      19.545  50.410  48.507  1.00  0.00    -0.030 C 
HETATM   20  C   UNL     1      19.853  51.818  48.088  1.00  0.00     0.050 C 
HETATM   21  C   UNL     1      18.252  49.913  48.635  1.00  0.00    -0.012 C 
HETATM   22  S   UNL     1      18.234  48.309  49.218  1.00  0.00    -0.076 SA
HETATM   23  C   UNL     1      16.955  50.612  48.369  1.00  0.00     0.057 C 
BRANCH  18  24
HETATM   24  C   UNL     1      22.001  49.588  49.013  1.00  0.00     0.296 C 
HETATM   25  O   UNL     1      22.529  49.956  50.059  1.00  0.00    -0.259 OA
BRANCH  24  26
HETATM   26  O   UNL     1      22.689  49.388  47.854  1.00  0.00    -0.322 OA
HETATM   27  C   UNL     1      23.913  50.116  47.735  1.00  0.00     0.213 C 
ENDBRANCH  24  26
ENDBRANCH  18  24
ENDBRANCH  14  17
ENDBRANCH  12  13
ENDBRANCH   1  12
BRANCH   3  28
HETATM   28  C   UNL     1      24.406  42.642  48.993  1.00  0.00     0.009 A 
HETATM   29  C   UNL     1      23.732  41.644  48.247  1.00  0.00     0.076 A 
HETATM   30  C   UNL     1      24.455  40.673  47.547  1.00  0.00     0.040 A 
HETATM   31  C   UNL     1      25.847  40.677  47.578  1.00  0.00     0.039 A 
HETATM   32  C   UNL     1      26.531  41.646  48.301  1.00  0.00     0.069 A 
HETATM   33  C   UNL     1      25.812  42.629  48.984  1.00  0.00     0.048 A 
BRANCH  29  34
HETATM   34  O   UNL     1      22.364  41.739  48.203  1.00  0.00    -0.355 OA
HETATM   35  C   UNL     1      21.751  41.543  46.928  1.00  0.00     0.210 C 
ENDBRANCH  29  34
BRANCH  32  36
HETATM   36  O   UNL     1      27.894  41.561  48.235  1.00  0.00    -0.356 OA
HETATM   37  C   UNL     1      28.471  40.293  48.524  1.00  0.00     0.210 C 
ENDBRANCH  32  36
ENDBRANCH   3  28
BRANCH   5  38
HETATM   38  O   UNL     1      26.141  45.628  49.906  1.00  0.00    -0.389 OA
HETATM   39  H   UNL     1      26.226  46.209  49.126  1.00  0.00     0.210 HD
ENDBRANCH   5  38
TORSDOF 9
ENDMDL
