MODEL 1
REMARK VINA RESULT:      -8.1      0.000      0.000
REMARK  2 active torsions:
REMARK  status: ('A' for Active; 'I' for Inactive)
REMARK    1  A    between atoms: C_9  and  C_11 
REMARK    2  A    between atoms: C_9  and  O_10 
ROOT
HETATM    1  C   UNL     1      29.395  42.018  53.943  1.00  0.00     0.048 C 
HETATM    2  C   UNL     1      28.953  43.395  54.349  1.00  0.00    -0.061 A 
HETATM    3  C   UNL     1      27.685  43.873  53.982  1.00  0.00     0.020 A 
HETATM    4  C   UNL     1      27.327  45.162  54.354  1.00  0.00     0.018 A 
HETATM    5  C   UNL     1      28.208  45.951  55.093  1.00  0.00     0.045 A 
HETATM    6  N   UNL     1      27.640  47.184  55.371  1.00  0.00    -0.323 N 
HETATM    7  C   UNL     1      26.357  47.291  54.831  1.00  0.00     0.266 A 
HETATM    8  O   UNL     1      25.637  48.269  54.964  1.00  0.00    -0.269 OA
HETATM    9  C   UNL     1      26.042  45.928  54.102  1.00  0.00     0.198 A 
HETATM   10  C   UNL     1      29.457  45.511  55.473  1.00  0.00     0.031 A 
HETATM   11  C   UNL     1      29.828  44.219  55.091  1.00  0.00     0.009 A 
HETATM   12  H   UNL     1      28.071  47.931  55.894  1.00  0.00     0.169 HD
ENDROOT
BRANCH   9  13
HETATM   13  C   UNL     1      25.940  46.079  52.604  1.00  0.00     0.018 A 
HETATM   14  C   UNL     1      25.459  45.101  51.657  1.00  0.00     0.002 A 
HETATM   15  C   UNL     1      25.585  45.647  50.379  1.00  0.00     0.043 A 
HETATM   16  C   UNL     1      24.937  43.794  51.767  1.00  0.00     0.014 A 
HETATM   17  C   UNL     1      25.228  44.955  49.215  1.00  0.00     0.030 A 
HETATM   18  N   UNL     1      26.097  46.912  50.528  1.00  0.00    -0.365 N 
HETATM   19  C   UNL     1      24.718  43.662  49.357  1.00  0.00     0.002 A 
HETATM   20  C   UNL     1      24.571  43.087  50.616  1.00  0.00     0.001 A 
HETATM   21  H   UNL     1      26.287  47.545  49.763  1.00  0.00     0.165 HD
HETATM   22  C   UNL     1      26.319  47.181  51.849  1.00  0.00     0.100 A 
ENDBRANCH   9  13
BRANCH   9  23
HETATM   23  O   UNL     1      24.948  45.248  54.698  1.00  0.00    -0.371 OA
HETATM   24  H   UNL     1      24.148  45.571  54.252  1.00  0.00     0.212 HD
ENDBRANCH   9  23
TORSDOF 2
ENDMDL
MODEL 2
REMARK VINA RESULT:      -8.0      1.480      5.019
REMARK  2 active torsions:
REMARK  status: ('A' for Active; 'I' for Inactive)
REMARK    1  A    between atoms: C_9  and  C_11 
REMARK    2  A    between atoms: C_9  and  O_10 
ROOT
HETATM    1  C   UNL     1      27.344  48.450  49.578  1.00  0.00     0.048 C 
HETATM    2  C   UNL     1      26.582  47.410  50.349  1.00  0.00    -0.061 A 
HETATM    3  C   UNL     1      26.734  47.303  51.740  1.00  0.00     0.020 A 
HETATM    4  C   UNL     1      26.033  46.310  52.411  1.00  0.00     0.018 A 
HETATM    5  C   UNL     1      25.183  45.453  51.711  1.00  0.00     0.045 A 
HETATM    6  N   UNL     1      24.572  44.559  52.576  1.00  0.00    -0.323 N 
HETATM    7  C   UNL     1      24.982  44.762  53.895  1.00  0.00     0.266 A 
HETATM    8  O   UNL     1      24.563  44.122  54.848  1.00  0.00    -0.269 OA
HETATM    9  C   UNL     1      26.001  45.967  53.888  1.00  0.00     0.198 A 
HETATM   10  C   UNL     1      25.009  45.535  50.347  1.00  0.00     0.031 A 
HETATM   11  C   UNL     1      25.722  46.524  49.664  1.00  0.00     0.009 A 
HETATM   12  H   UNL     1      23.912  43.842  52.318  1.00  0.00     0.169 HD
ENDROOT
BRANCH   9  13
HETATM   13  C   UNL     1      27.405  45.543  54.243  1.00  0.00     0.018 A 
HETATM   14  C   UNL     1      28.134  44.411  53.724  1.00  0.00     0.002 A 
HETATM   15  C   UNL     1      29.375  44.373  54.364  1.00  0.00     0.043 A 
HETATM   16  C   UNL     1      27.851  43.404  52.777  1.00  0.00     0.014 A 
HETATM   17  C   UNL     1      30.334  43.385  54.112  1.00  0.00     0.030 A 
HETATM   18  N   UNL     1      29.421  45.445  55.220  1.00  0.00    -0.365 N 
HETATM   19  C   UNL     1      30.022  42.400  53.171  1.00  0.00     0.002 A 
HETATM   20  C   UNL     1      28.798  42.408  52.509  1.00  0.00     0.001 A 
HETATM   21  H   UNL     1      30.210  45.671  55.810  1.00  0.00     0.165 HD
HETATM   22  C   UNL     1      28.251  46.149  55.163  1.00  0.00     0.100 A 
ENDBRANCH   9  13
BRANCH   9  23
HETATM   23  O   UNL     1      25.518  47.075  54.633  1.00  0.00    -0.371 OA
HETATM   24  H   UNL     1      26.116  47.178  55.390  1.00  0.00     0.212 HD
ENDBRANCH   9  23
TORSDOF 2
ENDMDL
MODEL 3
REMARK VINA RESULT:      -8.0     12.746     14.315
REMARK  2 active torsions:
REMARK  status: ('A' for Active; 'I' for Inactive)
REMARK    1  A    between atoms: C_9  and  C_11 
REMARK    2  A    between atoms: C_9  and  O_10 
ROOT
HETATM    1  C   UNL     1      32.493  51.931  44.691  1.00  0.00     0.048 C 
HETATM    2  C   UNL     1      32.497  51.592  43.227  1.00  0.00    -0.061 A 
HETATM    3  C   UNL     1      31.461  52.035  42.391  1.00  0.00     0.020 A 
HETATM    4  C   UNL     1      31.488  51.675  41.050  1.00  0.00     0.018 A 
HETATM    5  C   UNL     1      32.539  50.906  40.550  1.00  0.00     0.045 A 
HETATM    6  N   UNL     1      32.377  50.686  39.191  1.00  0.00    -0.323 N 
HETATM    7  C   UNL     1      31.211  51.286  38.710  1.00  0.00     0.266 A 
HETATM    8  O   UNL     1      30.861  51.261  37.540  1.00  0.00    -0.269 OA
HETATM    9  C   UNL     1      30.520  52.007  39.931  1.00  0.00     0.198 A 
HETATM   10  C   UNL     1      33.573  50.459  41.342  1.00  0.00     0.031 A 
HETATM   11  C   UNL     1      33.544  50.807  42.696  1.00  0.00     0.009 A 
HETATM   12  H   UNL     1      33.001  50.163  38.596  1.00  0.00     0.169 HD
ENDROOT
BRANCH   9  13
HETATM   13  C   UNL     1      29.208  51.367  40.318  1.00  0.00     0.018 A 
HETATM   14  C   UNL     1      28.924  49.957  40.434  1.00  0.00     0.002 A 
HETATM   15  C   UNL     1      27.575  49.820  40.768  1.00  0.00     0.043 A 
HETATM   16  C   UNL     1      29.686  48.780  40.273  1.00  0.00     0.014 A 
HETATM   17  C   UNL     1      26.955  48.577  40.940  1.00  0.00     0.030 A 
HETATM   18  N   UNL     1      27.055  51.086  40.878  1.00  0.00    -0.365 N 
HETATM   19  C   UNL     1      27.735  47.430  40.771  1.00  0.00     0.002 A 
HETATM   20  C   UNL     1      29.084  47.528  40.444  1.00  0.00     0.001 A 
HETATM   21  H   UNL     1      26.095  51.290  41.120  1.00  0.00     0.165 HD
HETATM   22  C   UNL     1      28.016  52.019  40.607  1.00  0.00     0.100 A 
ENDBRANCH   9  13
BRANCH   9  23
HETATM   23  O   UNL     1      30.453  53.413  39.749  1.00  0.00    -0.371 OA
HETATM   24  H   UNL     1      29.751  53.573  39.099  1.00  0.00     0.212 HD
ENDBRANCH   9  23
TORSDOF 2
ENDMDL
MODEL 4
REMARK VINA RESULT:      -7.5     12.616     13.987
REMARK  2 active torsions:
REMARK  status: ('A' for Active; 'I' for Inactive)
REMARK    1  A    between atoms: C_9  and  C_11 
REMARK    2  A    between atoms: C_9  and  O_10 
ROOT
HETATM    1  C   UNL     1      29.416  53.545  40.224  1.00  0.00     0.048 C 
HETATM    2  C   UNL     1      30.342  52.454  40.680  1.00  0.00    -0.061 A 
HETATM    3  C   UNL     1      30.220  51.155  40.165  1.00  0.00     0.020 A 
HETATM    4  C   UNL     1      31.079  50.170  40.635  1.00  0.00     0.018 A 
HETATM    5  C   UNL     1      32.052  50.480  41.584  1.00  0.00     0.045 A 
HETATM    6  N   UNL     1      32.808  49.359  41.891  1.00  0.00    -0.323 N 
HETATM    7  C   UNL     1      32.380  48.241  41.173  1.00  0.00     0.266 A 
HETATM    8  O   UNL     1      32.904  47.140  41.245  1.00  0.00    -0.269 OA
HETATM    9  C   UNL     1      31.177  48.703  40.262  1.00  0.00     0.198 A 
HETATM   10  C   UNL     1      32.202  51.746  42.107  1.00  0.00     0.031 A 
HETATM   11  C   UNL     1      31.332  52.738  41.647  1.00  0.00     0.009 A 
HETATM   12  H   UNL     1      33.575  49.322  42.545  1.00  0.00     0.169 HD
ENDROOT
BRANCH   9  13
HETATM   13  C   UNL     1      29.863  48.084  40.675  1.00  0.00     0.018 A 
HETATM   14  C   UNL     1      29.278  46.862  40.177  1.00  0.00     0.002 A 
HETATM   15  C   UNL     1      28.039  46.699  40.800  1.00  0.00     0.043 A 
HETATM   16  C   UNL     1      29.681  45.883  39.244  1.00  0.00     0.014 A 
HETATM   17  C   UNL     1      27.188  45.620  40.533  1.00  0.00     0.030 A 
HETATM   18  N   UNL     1      27.876  47.756  41.660  1.00  0.00    -0.365 N 
HETATM   19  C   UNL     1      27.614  44.669  39.602  1.00  0.00     0.002 A 
HETATM   20  C   UNL     1      28.845  44.796  38.966  1.00  0.00     0.001 A 
HETATM   21  H   UNL     1      27.067  47.892  42.251  1.00  0.00     0.165 HD
HETATM   22  C   UNL     1      28.953  48.594  41.592  1.00  0.00     0.100 A 
ENDBRANCH   9  13
BRANCH   9  23
HETATM   23  O   UNL     1      31.477  48.572  38.881  1.00  0.00    -0.371 OA
HETATM   24  H   UNL     1      32.348  48.981  38.750  1.00  0.00     0.212 HD
ENDBRANCH   9  23
TORSDOF 2
ENDMDL
MODEL 5
REMARK VINA RESULT:      -7.5     13.159     14.959
REMARK  2 active torsions:
REMARK  status: ('A' for Active; 'I' for Inactive)
REMARK    1  A    between atoms: C_9  and  C_11 
REMARK    2  A    between atoms: C_9  and  O_10 
ROOT
HETATM    1  C   UNL     1      36.484  52.004  39.577  1.00  0.00     0.048 C 
HETATM    2  C   UNL     1      35.487  51.509  40.586  1.00  0.00    -0.061 A 
HETATM    3  C   UNL     1      34.472  50.619  40.205  1.00  0.00     0.020 A 
HETATM    4  C   UNL     1      33.554  50.207  41.163  1.00  0.00     0.018 A 
HETATM    5  C   UNL     1      33.660  50.659  42.479  1.00  0.00     0.045 A 
HETATM    6  N   UNL     1      32.661  50.108  43.265  1.00  0.00    -0.323 N 
HETATM    7  C   UNL     1      31.831  49.266  42.522  1.00  0.00     0.266 A 
HETATM    8  O   UNL     1      30.895  48.638  42.993  1.00  0.00    -0.269 OA
HETATM    9  C   UNL     1      32.373  49.264  41.041  1.00  0.00     0.198 A 
HETATM   10  C   UNL     1      34.648  51.529  42.886  1.00  0.00     0.031 A 
HETATM   11  C   UNL     1      35.566  51.957  41.923  1.00  0.00     0.009 A 
HETATM   12  H   UNL     1      32.523  50.273  44.250  1.00  0.00     0.169 HD
ENDROOT
BRANCH   9  13
HETATM   13  C   UNL     1      31.420  49.921  40.071  1.00  0.00     0.018 A 
HETATM   14  C   UNL     1      30.848  51.243  40.167  1.00  0.00     0.002 A 
HETATM   15  C   UNL     1      29.989  51.415  39.081  1.00  0.00     0.043 A 
HETATM   16  C   UNL     1      30.972  52.307  41.086  1.00  0.00     0.014 A 
HETATM   17  C   UNL     1      29.248  52.584  38.873  1.00  0.00     0.030 A 
HETATM   18  N   UNL     1      30.044  50.264  38.334  1.00  0.00    -0.365 N 
HETATM   19  C   UNL     1      29.389  53.619  39.801  1.00  0.00     0.002 A 
HETATM   20  C   UNL     1      30.241  53.485  40.893  1.00  0.00     0.001 A 
HETATM   21  H   UNL     1      29.525  50.112  37.480  1.00  0.00     0.165 HD
HETATM   22  C   UNL     1      30.890  49.362  38.916  1.00  0.00     0.100 A 
ENDBRANCH   9  13
BRANCH   9  23
HETATM   23  O   UNL     1      32.819  47.977  40.641  1.00  0.00    -0.371 OA
HETATM   24  H   UNL     1      32.769  47.412  41.429  1.00  0.00     0.212 HD
ENDBRANCH   9  23
TORSDOF 2
ENDMDL
MODEL 6
REMARK VINA RESULT:      -7.5     13.263     15.201
REMARK  2 active torsions:
REMARK  status: ('A' for Active; 'I' for Inactive)
REMARK    1  A    between atoms: C_9  and  C_11 
REMARK    2  A    between atoms: C_9  and  O_10 
ROOT
HETATM    1  C   UNL     1      29.437  46.065  39.439  1.00  0.00     0.048 C 
HETATM    2  C   UNL     1      29.086  47.497  39.728  1.00  0.00    -0.061 A 
HETATM    3  C   UNL     1      29.760  48.540  39.075  1.00  0.00     0.020 A 
HETATM    4  C   UNL     1      29.424  49.850  39.392  1.00  0.00     0.018 A 
HETATM    5  C   UNL     1      28.422  50.113  40.327  1.00  0.00     0.045 A 
HETATM    6  N   UNL     1      28.238  51.478  40.472  1.00  0.00    -0.323 N 
HETATM    7  C   UNL     1      29.106  52.202  39.651  1.00  0.00     0.266 A 
HETATM    8  O   UNL     1      29.118  53.421  39.575  1.00  0.00    -0.269 OA
HETATM    9  C   UNL     1      29.975  51.156  38.853  1.00  0.00     0.198 A 
HETATM   10  C   UNL     1      27.738  49.112  40.981  1.00  0.00     0.031 A 
HETATM   11  C   UNL     1      28.081  47.792  40.676  1.00  0.00     0.009 A 
HETATM   12  H   UNL     1      27.571  51.925  41.082  1.00  0.00     0.169 HD
ENDROOT
BRANCH   9  13
HETATM   13  C   UNL     1      31.431  51.185  39.251  1.00  0.00     0.018 A 
HETATM   14  C   UNL     1      31.971  51.187  40.590  1.00  0.00     0.002 A 
HETATM   15  C   UNL     1      33.362  51.266  40.487  1.00  0.00     0.043 A 
HETATM   16  C   UNL     1      31.407  51.140  41.882  1.00  0.00     0.014 A 
HETATM   17  C   UNL     1      34.207  51.310  41.603  1.00  0.00     0.030 A 
HETATM   18  N   UNL     1      33.669  51.288  39.150  1.00  0.00    -0.365 N 
HETATM   19  C   UNL     1      33.618  51.265  42.869  1.00  0.00     0.002 A 
HETATM   20  C   UNL     1      32.236  51.179  43.010  1.00  0.00     0.001 A 
HETATM   21  H   UNL     1      34.608  51.336  38.780  1.00  0.00     0.165 HD
HETATM   22  C   UNL     1      32.527  51.246  38.400  1.00  0.00     0.100 A 
ENDBRANCH   9  13
BRANCH   9  23
HETATM   23  O   UNL     1      29.750  51.236  37.454  1.00  0.00    -0.371 OA
HETATM   24  H   UNL     1      30.306  51.962  37.127  1.00  0.00     0.212 HD
ENDBRANCH   9  23
TORSDOF 2
ENDMDL
MODEL 7
REMARK VINA RESULT:      -7.5      3.103      4.948
REMARK  2 active torsions:
REMARK  status: ('A' for Active; 'I' for Inactive)
REMARK    1  A    between atoms: C_9  and  C_11 
REMARK    2  A    between atoms: C_9  and  O_10 
ROOT
HETATM    1  C   UNL     1      26.363  47.822  54.700  1.00  0.00     0.048 C 
HETATM    2  C   UNL     1      26.097  46.580  53.897  1.00  0.00    -0.061 A 
HETATM    3  C   UNL     1      26.156  46.613  52.496  1.00  0.00     0.020 A 
HETATM    4  C   UNL     1      25.876  45.450  51.791  1.00  0.00     0.018 A 
HETATM    5  C   UNL     1      25.564  44.273  52.471  1.00  0.00     0.045 A 
HETATM    6  N   UNL     1      25.344  43.237  51.577  1.00  0.00    -0.323 N 
HETATM    7  C   UNL     1      25.490  43.663  50.255  1.00  0.00     0.266 A 
HETATM    8  O   UNL     1      25.377  42.930  49.284  1.00  0.00    -0.269 OA
HETATM    9  C   UNL     1      25.865  45.194  50.296  1.00  0.00     0.198 A 
HETATM   10  C   UNL     1      25.502  44.206  53.846  1.00  0.00     0.031 A 
HETATM   11  C   UNL     1      25.770  45.377  54.560  1.00  0.00     0.009 A 
HETATM   12  H   UNL     1      25.107  42.287  51.817  1.00  0.00     0.169 HD
ENDROOT
BRANCH   9  13
HETATM   13  C   UNL     1      24.776  46.076  49.735  1.00  0.00     0.018 A 
HETATM   14  C   UNL     1      24.898  47.447  49.302  1.00  0.00     0.002 A 
HETATM   15  C   UNL     1      23.633  47.882  48.901  1.00  0.00     0.043 A 
HETATM   16  C   UNL     1      25.966  48.367  49.223  1.00  0.00     0.014 A 
HETATM   17  C   UNL     1      23.383  49.179  48.439  1.00  0.00     0.030 A 
HETATM   18  N   UNL     1      22.774  46.823  49.057  1.00  0.00    -0.365 N 
HETATM   19  C   UNL     1      24.460  50.067  48.376  1.00  0.00     0.002 A 
HETATM   20  C   UNL     1      25.737  49.668  48.761  1.00  0.00     0.001 A 
HETATM   21  H   UNL     1      21.788  46.850  48.835  1.00  0.00     0.165 HD
HETATM   22  C   UNL     1      23.440  45.740  49.558  1.00  0.00     0.100 A 
ENDBRANCH   9  13
BRANCH   9  23
HETATM   23  O   UNL     1      27.154  45.439  49.753  1.00  0.00    -0.371 OA
HETATM   24  H   UNL     1      27.311  44.744  49.094  1.00  0.00     0.212 HD
ENDBRANCH   9  23
TORSDOF 2
ENDMDL
MODEL 8
REMARK VINA RESULT:      -7.4     12.385     14.261
REMARK  2 active torsions:
REMARK  status: ('A' for Active; 'I' for Inactive)
REMARK    1  A    between atoms: C_9  and  C_11 
REMARK    2  A    between atoms: C_9  and  O_10 
ROOT
HETATM    1  C   UNL     1      26.742  46.928  41.140  1.00  0.00     0.048 C 
HETATM    2  C   UNL     1      28.191  47.215  40.871  1.00  0.00    -0.061 A 
HETATM    3  C   UNL     1      28.859  48.229  41.575  1.00  0.00     0.020 A 
HETATM    4  C   UNL     1      30.191  48.481  41.275  1.00  0.00     0.018 A 
HETATM    5  C   UNL     1      30.849  47.723  40.306  1.00  0.00     0.045 A 
HETATM    6  N   UNL     1      32.169  48.128  40.185  1.00  0.00    -0.323 N 
HETATM    7  C   UNL     1      32.465  49.177  41.058  1.00  0.00     0.266 A 
HETATM    8  O   UNL     1      33.569  49.689  41.163  1.00  0.00    -0.269 OA
HETATM    9  C   UNL     1      31.149  49.497  41.867  1.00  0.00     0.198 A 
HETATM   10  C   UNL     1      30.225  46.718  39.600  1.00  0.00     0.031 A 
HETATM   11  C   UNL     1      28.880  46.469  39.888  1.00  0.00     0.009 A 
HETATM   12  H   UNL     1      32.855  47.736  39.558  1.00  0.00     0.169 HD
ENDROOT
BRANCH   9  13
HETATM   13  C   UNL     1      30.573  50.851  41.531  1.00  0.00     0.018 A 
HETATM   14  C   UNL     1      30.059  51.290  40.256  1.00  0.00     0.002 A 
HETATM   15  C   UNL     1      29.675  52.626  40.389  1.00  0.00     0.043 A 
HETATM   16  C   UNL     1      29.896  50.680  38.994  1.00  0.00     0.014 A 
HETATM   17  C   UNL     1      29.148  53.377  39.331  1.00  0.00     0.030 A 
HETATM   18  N   UNL     1      29.916  52.989  41.690  1.00  0.00    -0.365 N 
HETATM   19  C   UNL     1      29.001  52.745  38.093  1.00  0.00     0.002 A 
HETATM   20  C   UNL     1      29.368  51.413  37.925  1.00  0.00     0.001 A 
HETATM   21  H   UNL     1      29.725  53.905  42.073  1.00  0.00     0.165 HD
HETATM   22  C   UNL     1      30.457  51.942  42.382  1.00  0.00     0.100 A 
ENDBRANCH   9  13
BRANCH   9  23
HETATM   23  O   UNL     1      31.310  49.258  43.257  1.00  0.00    -0.371 OA
HETATM   24  H   UNL     1      30.871  49.993  43.714  1.00  0.00     0.212 HD
ENDBRANCH   9  23
TORSDOF 2
ENDMDL
MODEL 9
REMARK VINA RESULT:      -7.4     13.037     14.569
REMARK  2 active torsions:
REMARK  status: ('A' for Active; 'I' for Inactive)
REMARK    1  A    between atoms: C_9  and  C_11 
REMARK    2  A    between atoms: C_9  and  O_10 
ROOT
HETATM    1  C   UNL     1      36.509  50.536  39.239  1.00  0.00     0.048 C 
HETATM    2  C   UNL     1      35.929  50.943  40.564  1.00  0.00    -0.061 A 
HETATM    3  C   UNL     1      34.608  50.609  40.896  1.00  0.00     0.020 A 
HETATM    4  C   UNL     1      34.102  51.030  42.119  1.00  0.00     0.018 A 
HETATM    5  C   UNL     1      34.906  51.752  43.001  1.00  0.00     0.045 A 
HETATM    6  N   UNL     1      34.210  52.047  44.163  1.00  0.00    -0.323 N 
HETATM    7  C   UNL     1      32.907  51.547  44.121  1.00  0.00     0.266 A 
HETATM    8  O   UNL     1      32.104  51.651  45.036  1.00  0.00    -0.269 OA
HETATM    9  C   UNL     1      32.733  50.815  42.734  1.00  0.00     0.198 A 
HETATM   10  C   UNL     1      36.208  52.092  42.708  1.00  0.00     0.031 A 
HETATM   11  C   UNL     1      36.718  51.683  41.473  1.00  0.00     0.009 A 
HETATM   12  H   UNL     1      34.570  52.556  44.956  1.00  0.00     0.169 HD
ENDROOT
BRANCH   9  13
HETATM   13  C   UNL     1      31.757  51.520  41.823  1.00  0.00     0.018 A 
HETATM   14  C   UNL     1      31.102  50.977  40.656  1.00  0.00     0.002 A 
HETATM   15  C   UNL     1      30.325  51.992  40.093  1.00  0.00     0.043 A 
HETATM   16  C   UNL     1      31.107  49.719  40.017  1.00  0.00     0.014 A 
HETATM   17  C   UNL     1      29.567  51.815  38.930  1.00  0.00     0.030 A 
HETATM   18  N   UNL     1      30.473  53.102  40.887  1.00  0.00    -0.365 N 
HETATM   19  C   UNL     1      29.595  50.559  38.319  1.00  0.00     0.002 A 
HETATM   20  C   UNL     1      30.352  49.522  38.855  1.00  0.00     0.001 A 
HETATM   21  H   UNL     1      30.015  53.988  40.721  1.00  0.00     0.165 HD
HETATM   22  C   UNL     1      31.328  52.838  41.919  1.00  0.00     0.100 A 
ENDBRANCH   9  13
BRANCH   9  23
HETATM   23  O   UNL     1      32.485  49.427  42.895  1.00  0.00    -0.371 OA
HETATM   24  H   UNL     1      31.570  49.345  43.206  1.00  0.00     0.212 HD
ENDBRANCH   9  23
TORSDOF 2
ENDMDL
MODEL 10
REMARK VINA RESULT:      -7.3      2.001      3.085
REMARK  2 active torsions:
REMARK  status: ('A' for Active; 'I' for Inactive)
REMARK    1  A    between atoms: C_9  and  C_11 
REMARK    2  A    between atoms: C_9  and  O_10 
ROOT
HETATM    1  C   UNL     1      31.494  43.393  56.000  1.00  0.00     0.048 C 
HETATM    2  C   UNL     1      30.295  44.247  55.701  1.00  0.00    -0.061 A 
HETATM    3  C   UNL     1      29.144  43.683  55.130  1.00  0.00     0.020 A 
HETATM    4  C   UNL     1      28.068  44.513  54.844  1.00  0.00     0.018 A 
HETATM    5  C   UNL     1      28.133  45.875  55.140  1.00  0.00     0.045 A 
HETATM    6  N   UNL     1      26.948  46.505  54.795  1.00  0.00    -0.323 N 
HETATM    7  C   UNL     1      26.032  45.606  54.245  1.00  0.00     0.266 A 
HETATM    8  O   UNL     1      24.904  45.911  53.888  1.00  0.00    -0.269 OA
HETATM    9  C   UNL     1      26.717  44.186  54.239  1.00  0.00     0.198 A 
HETATM   10  C   UNL     1      29.245  46.459  55.705  1.00  0.00     0.031 A 
HETATM   11  C   UNL     1      30.336  45.631  55.983  1.00  0.00     0.009 A 
HETATM   12  H   UNL     1      26.741  47.485  54.912  1.00  0.00     0.169 HD
ENDROOT
BRANCH   9  13
HETATM   13  C   UNL     1      27.002  43.683  52.844  1.00  0.00     0.018 A 
HETATM   14  C   UNL     1      27.576  42.411  52.474  1.00  0.00     0.002 A 
HETATM   15  C   UNL     1      27.703  42.390  51.083  1.00  0.00     0.043 A 
HETATM   16  C   UNL     1      28.012  41.278  53.193  1.00  0.00     0.014 A 
HETATM   17  C   UNL     1      28.246  41.306  50.384  1.00  0.00     0.030 A 
HETATM   18  N   UNL     1      27.209  43.581  50.614  1.00  0.00    -0.365 N 
HETATM   19  C   UNL     1      28.672  40.200  51.124  1.00  0.00     0.002 A 
HETATM   20  C   UNL     1      28.555  40.183  52.511  1.00  0.00     0.001 A 
HETATM   21  H   UNL     1      27.169  43.838  49.637  1.00  0.00     0.165 HD
HETATM   22  C   UNL     1      26.792  44.365  51.652  1.00  0.00     0.100 A 
ENDBRANCH   9  13
BRANCH   9  23
HETATM   23  O   UNL     1      26.027  43.260  55.065  1.00  0.00    -0.371 OA
HETATM   24  H   UNL     1      25.706  43.762  55.831  1.00  0.00     0.212 HD
ENDBRANCH   9  23
TORSDOF 2
ENDMDL
