MODEL 1
REMARK VINA RESULT:      -8.0      0.000      0.000
REMARK  5 active torsions:
REMARK  status: ('A' for Active; 'I' for Inactive)
REMARK    1  A    between atoms: C_2  and  O_3 
REMARK    2  A    between atoms: O_3  and  C_4 
REMARK    3  A    between atoms: C_8  and  N_9 
REMARK       I    between atoms: N_9  and  C_10 
REMARK       I    between atoms: C_10  and  N_11 
REMARK    4  A    between atoms: N_11  and  C_12 
REMARK    5  A    between atoms: C_12  and  C_13 
ROOT
HETATM    1  N   UNL     1      25.581  44.807  53.463  1.00  0.00    -0.309 N 
HETATM    2  C   UNL     1      25.170  44.950  52.177  1.00  0.00     0.321 C 
HETATM    3  N   UNL     1      25.976  45.595  51.303  1.00  0.00    -0.337 N 
HETATM    4  O   UNL     1      24.065  44.515  51.857  1.00  0.00    -0.247 OA
HETATM    5  H   UNL     1      24.820  44.444  54.025  1.00  0.00     0.170 HD
HETATM    6  H   UNL     1      26.580  46.315  51.674  1.00  0.00     0.164 HD
ENDROOT
BRANCH   1   7
HETATM    7  C   UNL     1      26.801  45.011  54.130  1.00  0.00     0.038 A 
HETATM    8  C   UNL     1      27.841  44.087  54.212  1.00  0.00     0.056 A 
HETATM    9  C   UNL     1      29.021  44.412  54.899  1.00  0.00     0.069 A 
HETATM   10  C   UNL     1      29.177  45.654  55.535  1.00  0.00     0.090 A 
HETATM   11 CL   UNL     1      30.283  43.224  54.940  1.00  0.00    -0.081 Cl
HETATM   12  C   UNL     1      28.117  46.558  55.487  1.00  0.00     0.041 A 
HETATM   13  C   UNL     1      26.944  46.237  54.794  1.00  0.00     0.032 A 
BRANCH  10  14
HETATM   14  O   UNL     1      30.367  45.888  56.173  1.00  0.00    -0.350 OA
BRANCH  14  15
HETATM   15  C   UNL     1      30.359  45.936  57.598  1.00  0.00     0.171 C 
HETATM   16  C   UNL     1      31.149  44.747  58.116  1.00  0.00     0.034 C 
ENDBRANCH  14  15
ENDBRANCH  10  14
ENDBRANCH   1   7
BRANCH   3  17
HETATM   17  C   UNL     1      25.530  45.837  49.948  1.00  0.00     0.183 C 
BRANCH  17  18
HETATM   18  C   UNL     1      25.847  47.240  49.474  1.00  0.00     0.053 A 
HETATM   19  N   UNL     1      27.153  47.594  49.329  1.00  0.00    -0.264 NA
HETATM   20  C   UNL     1      27.419  48.847  48.896  1.00  0.00     0.118 A 
HETATM   21  C   UNL     1      26.445  49.785  48.620  1.00  0.00     0.043 A 
HETATM   22  C   UNL     1      25.121  49.409  48.801  1.00  0.00     0.037 A 
HETATM   23 CL   UNL     1      23.861  50.539  48.488  1.00  0.00    -0.084 Cl
HETATM   24  C   UNL     1      24.805  48.128  49.232  1.00  0.00     0.052 A 
ENDBRANCH  17  18
ENDBRANCH   3  17
TORSDOF 5
ENDMDL
MODEL 2
REMARK VINA RESULT:      -7.9      1.778      2.391
REMARK  5 active torsions:
REMARK  status: ('A' for Active; 'I' for Inactive)
REMARK    1  A    between atoms: C_2  and  O_3 
REMARK    2  A    between atoms: O_3  and  C_4 
REMARK    3  A    between atoms: C_8  and  N_9 
REMARK       I    between atoms: N_9  and  C_10 
REMARK       I    between atoms: C_10  and  N_11 
REMARK    4  A    between atoms: N_11  and  C_12 
REMARK    5  A    between atoms: C_12  and  C_13 
ROOT
HETATM    1  N   UNL     1      26.031  43.474  53.307  1.00  0.00    -0.309 N 
HETATM    2  C   UNL     1      25.539  43.682  52.059  1.00  0.00     0.321 C 
HETATM    3  N   UNL     1      26.285  44.380  51.172  1.00  0.00    -0.337 N 
HETATM    4  O   UNL     1      24.419  43.255  51.786  1.00  0.00    -0.247 OA
HETATM    5  H   UNL     1      25.308  43.075  53.895  1.00  0.00     0.170 HD
HETATM    6  H   UNL     1      26.907  45.084  51.542  1.00  0.00     0.164 HD
ENDROOT
BRANCH   1   7
HETATM    7  C   UNL     1      27.289  43.654  53.907  1.00  0.00     0.038 A 
HETATM    8  C   UNL     1      27.709  44.805  54.572  1.00  0.00     0.056 A 
HETATM    9  C   UNL     1      28.990  44.862  55.144  1.00  0.00     0.069 A 
HETATM   10  C   UNL     1      29.882  43.782  55.045  1.00  0.00     0.090 A 
HETATM   11 CL   UNL     1      29.436  46.315  55.977  1.00  0.00    -0.081 Cl
HETATM   12  C   UNL     1      29.473  42.650  54.342  1.00  0.00     0.041 A 
HETATM   13  C   UNL     1      28.192  42.591  53.779  1.00  0.00     0.032 A 
BRANCH  10  14
HETATM   14  O   UNL     1      31.107  43.923  55.642  1.00  0.00    -0.350 OA
BRANCH  14  15
HETATM   15  C   UNL     1      31.326  43.247  56.878  1.00  0.00     0.171 C 
HETATM   16  C   UNL     1      31.536  44.293  57.959  1.00  0.00     0.034 C 
ENDBRANCH  14  15
ENDBRANCH  10  14
ENDBRANCH   1   7
BRANCH   3  17
HETATM   17  C   UNL     1      25.753  44.690  49.863  1.00  0.00     0.183 C 
BRANCH  17  18
HETATM   18  C   UNL     1      25.576  46.177  49.645  1.00  0.00     0.053 A 
HETATM   19  N   UNL     1      24.311  46.670  49.546  1.00  0.00    -0.264 NA
HETATM   20  C   UNL     1      24.169  48.002  49.361  1.00  0.00     0.118 A 
HETATM   21  C   UNL     1      25.231  48.877  49.245  1.00  0.00     0.043 A 
HETATM   22  C   UNL     1      26.511  48.346  49.323  1.00  0.00     0.037 A 
HETATM   23 CL   UNL     1      27.876  49.384  49.171  1.00  0.00    -0.084 Cl
HETATM   24  C   UNL     1      26.700  46.986  49.525  1.00  0.00     0.052 A 
ENDBRANCH  17  18
ENDBRANCH   3  17
TORSDOF 5
ENDMDL
MODEL 3
REMARK VINA RESULT:      -7.8      2.774      7.864
REMARK  5 active torsions:
REMARK  status: ('A' for Active; 'I' for Inactive)
REMARK    1  A    between atoms: C_2  and  O_3 
REMARK    2  A    between atoms: O_3  and  C_4 
REMARK    3  A    between atoms: C_8  and  N_9 
REMARK       I    between atoms: N_9  and  C_10 
REMARK       I    between atoms: C_10  and  N_11 
REMARK    4  A    between atoms: N_11  and  C_12 
REMARK    5  A    between atoms: C_12  and  C_13 
ROOT
HETATM    1  N   UNL     1      26.551  43.848  49.850  1.00  0.00    -0.309 N 
HETATM    2  C   UNL     1      27.253  43.102  50.741  1.00  0.00     0.321 C 
HETATM    3  N   UNL     1      27.926  43.731  51.731  1.00  0.00    -0.337 N 
HETATM    4  O   UNL     1      27.277  41.880  50.601  1.00  0.00    -0.247 OA
HETATM    5  H   UNL     1      26.230  43.258  49.091  1.00  0.00     0.170 HD
HETATM    6  H   UNL     1      28.273  44.660  51.538  1.00  0.00     0.164 HD
ENDROOT
BRANCH   1   7
HETATM    7  C   UNL     1      26.166  45.199  49.791  1.00  0.00     0.038 A 
HETATM    8  C   UNL     1      27.031  46.279  49.631  1.00  0.00     0.056 A 
HETATM    9  C   UNL     1      26.525  47.587  49.574  1.00  0.00     0.069 A 
HETATM   10  C   UNL     1      25.150  47.843  49.697  1.00  0.00     0.090 A 
HETATM   11 CL   UNL     1      27.657  48.880  49.348  1.00  0.00    -0.081 Cl
HETATM   12  C   UNL     1      24.292  46.762  49.901  1.00  0.00     0.041 A 
HETATM   13  C   UNL     1      24.798  45.457  49.949  1.00  0.00     0.032 A 
BRANCH  10  14
HETATM   14  O   UNL     1      24.745  49.149  49.620  1.00  0.00    -0.350 OA
BRANCH  14  15
HETATM   15  C   UNL     1      24.083  49.571  48.430  1.00  0.00     0.171 C 
HETATM   16  C   UNL     1      23.230  50.782  48.766  1.00  0.00     0.034 C 
ENDBRANCH  14  15
ENDBRANCH  10  14
ENDBRANCH   1   7
BRANCH   3  17
HETATM   17  C   UNL     1      28.750  42.970  52.645  1.00  0.00     0.183 C 
BRANCH  17  18
HETATM   18  C   UNL     1      29.145  43.767  53.871  1.00  0.00     0.053 A 
HETATM   19  N   UNL     1      28.490  44.933  54.123  1.00  0.00    -0.264 NA
HETATM   20  C   UNL     1      28.848  45.627  55.226  1.00  0.00     0.118 A 
HETATM   21  C   UNL     1      29.850  45.232  56.090  1.00  0.00     0.043 A 
HETATM   22  C   UNL     1      30.520  44.053  55.797  1.00  0.00     0.037 A 
HETATM   23 CL   UNL     1      31.789  43.513  56.827  1.00  0.00    -0.084 Cl
HETATM   24  C   UNL     1      30.175  43.302  54.681  1.00  0.00     0.052 A 
ENDBRANCH  17  18
ENDBRANCH   3  17
TORSDOF 5
ENDMDL
MODEL 4
REMARK VINA RESULT:      -7.5      4.611      9.326
REMARK  5 active torsions:
REMARK  status: ('A' for Active; 'I' for Inactive)
REMARK    1  A    between atoms: C_2  and  O_3 
REMARK    2  A    between atoms: O_3  and  C_4 
REMARK    3  A    between atoms: C_8  and  N_9 
REMARK       I    between atoms: N_9  and  C_10 
REMARK       I    between atoms: C_10  and  N_11 
REMARK    4  A    between atoms: N_11  and  C_12 
REMARK    5  A    between atoms: C_12  and  C_13 
ROOT
HETATM    1  N   UNL     1      23.825  50.508  47.660  1.00  0.00    -0.309 N 
HETATM    2  C   UNL     1      25.021  49.956  47.991  1.00  0.00     0.321 C 
HETATM    3  N   UNL     1      25.071  49.076  49.016  1.00  0.00    -0.337 N 
HETATM    4  O   UNL     1      26.024  50.300  47.368  1.00  0.00    -0.247 OA
HETATM    5  H   UNL     1      23.968  51.250  46.984  1.00  0.00     0.170 HD
HETATM    6  H   UNL     1      24.399  49.192  49.760  1.00  0.00     0.164 HD
ENDROOT
BRANCH   1   7
HETATM    7  C   UNL     1      22.492  50.243  48.016  1.00  0.00     0.038 A 
HETATM    8  C   UNL     1      21.617  51.155  48.601  1.00  0.00     0.056 A 
HETATM    9  C   UNL     1      20.298  50.777  48.901  1.00  0.00     0.069 A 
HETATM   10  C   UNL     1      19.836  49.476  48.643  1.00  0.00     0.090 A 
HETATM   11 CL   UNL     1      19.258  51.970  49.606  1.00  0.00    -0.081 Cl
HETATM   12  C   UNL     1      20.729  48.554  48.097  1.00  0.00     0.041 A 
HETATM   13  C   UNL     1      22.040  48.936  47.790  1.00  0.00     0.032 A 
BRANCH  10  14
HETATM   14  O   UNL     1      18.533  49.199  48.959  1.00  0.00    -0.350 OA
BRANCH  14  15
HETATM   15  C   UNL     1      18.282  48.127  49.866  1.00  0.00     0.171 C 
HETATM   16  C   UNL     1      18.582  48.617  51.272  1.00  0.00     0.034 C 
ENDBRANCH  14  15
ENDBRANCH  10  14
ENDBRANCH   1   7
BRANCH   3  17
HETATM   17  C   UNL     1      26.342  48.536  49.447  1.00  0.00     0.183 C 
BRANCH  17  18
HETATM   18  C   UNL     1      26.187  47.295  50.300  1.00  0.00     0.053 A 
HETATM   19  N   UNL     1      25.638  47.425  51.539  1.00  0.00    -0.264 NA
HETATM   20  C   UNL     1      25.497  46.306  52.283  1.00  0.00     0.118 A 
HETATM   21  C   UNL     1      25.899  45.053  51.867  1.00  0.00     0.043 A 
HETATM   22  C   UNL     1      26.479  44.949  50.611  1.00  0.00     0.037 A 
HETATM   23 CL   UNL     1      27.015  43.416  50.041  1.00  0.00    -0.084 Cl
HETATM   24  C   UNL     1      26.631  46.072  49.809  1.00  0.00     0.052 A 
ENDBRANCH  17  18
ENDBRANCH   3  17
TORSDOF 5
ENDMDL
MODEL 5
REMARK VINA RESULT:      -7.4      1.690      2.001
REMARK  5 active torsions:
REMARK  status: ('A' for Active; 'I' for Inactive)
REMARK    1  A    between atoms: C_2  and  O_3 
REMARK    2  A    between atoms: O_3  and  C_4 
REMARK    3  A    between atoms: C_8  and  N_9 
REMARK       I    between atoms: N_9  and  C_10 
REMARK       I    between atoms: C_10  and  N_11 
REMARK    4  A    between atoms: N_11  and  C_12 
REMARK    5  A    between atoms: C_12  and  C_13 
ROOT
HETATM    1  N   UNL     1      25.212  43.384  52.472  1.00  0.00    -0.309 N 
HETATM    2  C   UNL     1      24.513  43.900  51.429  1.00  0.00     0.321 C 
HETATM    3  N   UNL     1      24.841  45.128  50.968  1.00  0.00    -0.337 N 
HETATM    4  O   UNL     1      23.585  43.245  50.957  1.00  0.00    -0.247 OA
HETATM    5  H   UNL     1      24.760  42.537  52.798  1.00  0.00     0.170 HD
HETATM    6  H   UNL     1      25.223  45.786  51.632  1.00  0.00     0.164 HD
ENDROOT
BRANCH   1   7
HETATM    7  C   UNL     1      26.398  43.748  53.133  1.00  0.00     0.038 A 
HETATM    8  C   UNL     1      27.661  43.219  52.872  1.00  0.00     0.056 A 
HETATM    9  C   UNL     1      28.778  43.672  53.592  1.00  0.00     0.069 A 
HETATM   10  C   UNL     1      28.652  44.643  54.598  1.00  0.00     0.090 A 
HETATM   11 CL   UNL     1      30.321  42.989  53.199  1.00  0.00    -0.081 Cl
HETATM   12  C   UNL     1      27.380  45.138  54.884  1.00  0.00     0.041 A 
HETATM   13  C   UNL     1      26.268  44.691  54.160  1.00  0.00     0.032 A 
BRANCH  10  14
HETATM   14  O   UNL     1      29.798  45.033  55.241  1.00  0.00    -0.350 OA
BRANCH  14  15
HETATM   15  C   UNL     1      29.701  46.095  56.187  1.00  0.00     0.171 C 
HETATM   16  C   UNL     1      30.165  45.573  57.535  1.00  0.00     0.034 C 
ENDBRANCH  14  15
ENDBRANCH  10  14
ENDBRANCH   1   7
BRANCH   3  17
HETATM   17  C   UNL     1      24.062  45.740  49.913  1.00  0.00     0.183 C 
BRANCH  17  18
HETATM   18  C   UNL     1      24.582  47.107  49.525  1.00  0.00     0.053 A 
HETATM   19  N   UNL     1      23.692  48.036  49.081  1.00  0.00    -0.264 NA
HETATM   20  C   UNL     1      24.171  49.256  48.748  1.00  0.00     0.118 A 
HETATM   21  C   UNL     1      25.508  49.597  48.809  1.00  0.00     0.043 A 
HETATM   22  C   UNL     1      26.399  48.624  49.240  1.00  0.00     0.037 A 
HETATM   23 CL   UNL     1      28.080  48.984  49.325  1.00  0.00    -0.084 Cl
HETATM   24  C   UNL     1      25.947  47.364  49.604  1.00  0.00     0.052 A 
ENDBRANCH  17  18
ENDBRANCH   3  17
TORSDOF 5
ENDMDL
MODEL 6
REMARK VINA RESULT:      -7.2      4.584      9.236
REMARK  5 active torsions:
REMARK  status: ('A' for Active; 'I' for Inactive)
REMARK    1  A    between atoms: C_2  and  O_3 
REMARK    2  A    between atoms: O_3  and  C_4 
REMARK    3  A    between atoms: C_8  and  N_9 
REMARK       I    between atoms: N_9  and  C_10 
REMARK       I    between atoms: C_10  and  N_11 
REMARK    4  A    between atoms: N_11  and  C_12 
REMARK    5  A    between atoms: C_12  and  C_13 
ROOT
HETATM    1  N   UNL     1      23.900  50.386  47.811  1.00  0.00    -0.309 N 
HETATM    2  C   UNL     1      25.131  49.863  48.043  1.00  0.00     0.321 C 
HETATM    3  N   UNL     1      25.294  49.017  49.085  1.00  0.00    -0.337 N 
HETATM    4  O   UNL     1      26.064  50.200  47.316  1.00  0.00    -0.247 OA
HETATM    5  H   UNL     1      23.965  51.108  47.102  1.00  0.00     0.170 HD
HETATM    6  H   UNL     1      24.693  49.147  49.886  1.00  0.00     0.164 HD
ENDROOT
BRANCH   1   7
HETATM    7  C   UNL     1      22.611  50.114  48.301  1.00  0.00     0.038 A 
HETATM    8  C   UNL     1      21.984  48.870  48.276  1.00  0.00     0.056 A 
HETATM    9  C   UNL     1      20.695  48.717  48.809  1.00  0.00     0.069 A 
HETATM   10  C   UNL     1      19.999  49.807  49.356  1.00  0.00     0.090 A 
HETATM   11 CL   UNL     1      19.986  47.137  48.766  1.00  0.00    -0.081 Cl
HETATM   12  C   UNL     1      20.613  51.059  49.339  1.00  0.00     0.041 A 
HETATM   13  C   UNL     1      21.902  51.208  48.815  1.00  0.00     0.032 A 
BRANCH  10  14
HETATM   14  O   UNL     1      18.749  49.564  49.862  1.00  0.00    -0.350 OA
BRANCH  14  15
HETATM   15  C   UNL     1      17.792  50.619  49.807  1.00  0.00     0.171 C 
HETATM   16  C   UNL     1      16.895  50.382  48.605  1.00  0.00     0.034 C 
ENDBRANCH  14  15
ENDBRANCH  10  14
ENDBRANCH   1   7
BRANCH   3  17
HETATM   17  C   UNL     1      26.609  48.508  49.408  1.00  0.00     0.183 C 
BRANCH  17  18
HETATM   18  C   UNL     1      26.557  47.170  50.113  1.00  0.00     0.053 A 
HETATM   19  N   UNL     1      26.906  46.056  49.414  1.00  0.00    -0.264 NA
HETATM   20  C   UNL     1      26.864  44.869  50.061  1.00  0.00     0.118 A 
HETATM   21  C   UNL     1      26.465  44.727  51.375  1.00  0.00     0.043 A 
HETATM   22  C   UNL     1      26.089  45.874  52.059  1.00  0.00     0.037 A 
HETATM   23 CL   UNL     1      25.569  45.761  53.696  1.00  0.00    -0.084 Cl
HETATM   24  C   UNL     1      26.131  47.114  51.436  1.00  0.00     0.052 A 
ENDBRANCH  17  18
ENDBRANCH   3  17
TORSDOF 5
ENDMDL
MODEL 7
REMARK VINA RESULT:      -7.2      4.455      6.388
REMARK  5 active torsions:
REMARK  status: ('A' for Active; 'I' for Inactive)
REMARK    1  A    between atoms: C_2  and  O_3 
REMARK    2  A    between atoms: O_3  and  C_4 
REMARK    3  A    between atoms: C_8  and  N_9 
REMARK       I    between atoms: N_9  and  C_10 
REMARK       I    between atoms: C_10  and  N_11 
REMARK    4  A    between atoms: N_11  and  C_12 
REMARK    5  A    between atoms: C_12  and  C_13 
ROOT
HETATM    1  N   UNL     1      25.993  42.997  52.208  1.00  0.00    -0.309 N 
HETATM    2  C   UNL     1      25.972  42.437  50.972  1.00  0.00     0.321 C 
HETATM    3  N   UNL     1      27.116  42.405  50.252  1.00  0.00    -0.337 N 
HETATM    4  O   UNL     1      24.907  42.006  50.535  1.00  0.00    -0.247 OA
HETATM    5  H   UNL     1      25.045  43.084  52.558  1.00  0.00     0.170 HD
HETATM    6  H   UNL     1      27.784  43.147  50.407  1.00  0.00     0.164 HD
ENDROOT
BRANCH   1   7
HETATM    7  C   UNL     1      27.015  43.422  53.075  1.00  0.00     0.038 A 
HETATM    8  C   UNL     1      27.191  44.724  53.538  1.00  0.00     0.056 A 
HETATM    9  C   UNL     1      28.246  45.026  54.414  1.00  0.00     0.069 A 
HETATM   10  C   UNL     1      29.156  44.039  54.826  1.00  0.00     0.090 A 
HETATM   11 CL   UNL     1      28.390  46.661  54.969  1.00  0.00    -0.081 Cl
HETATM   12  C   UNL     1      29.001  42.747  54.326  1.00  0.00     0.041 A 
HETATM   13  C   UNL     1      27.944  42.446  53.460  1.00  0.00     0.032 A 
BRANCH  10  14
HETATM   14  O   UNL     1      30.148  44.422  55.690  1.00  0.00    -0.350 OA
BRANCH  14  15
HETATM   15  C   UNL     1      31.286  43.573  55.814  1.00  0.00     0.171 C 
HETATM   16  C   UNL     1      31.538  43.331  57.292  1.00  0.00     0.034 C 
ENDBRANCH  14  15
ENDBRANCH  10  14
ENDBRANCH   1   7
BRANCH   3  17
HETATM   17  C   UNL     1      27.108  41.891  48.899  1.00  0.00     0.183 C 
BRANCH  17  18
HETATM   18  C   UNL     1      27.762  40.529  48.792  1.00  0.00     0.053 A 
HETATM   19  N   UNL     1      27.624  39.835  47.628  1.00  0.00    -0.264 NA
HETATM   20  C   UNL     1      28.221  38.626  47.545  1.00  0.00     0.118 A 
HETATM   21  C   UNL     1      28.937  38.051  48.577  1.00  0.00     0.043 A 
HETATM   22  C   UNL     1      29.041  38.767  49.761  1.00  0.00     0.037 A 
HETATM   23 CL   UNL     1      29.908  38.098  51.089  1.00  0.00    -0.084 Cl
HETATM   24  C   UNL     1      28.454  40.018  49.884  1.00  0.00     0.052 A 
ENDBRANCH  17  18
ENDBRANCH   3  17
TORSDOF 5
ENDMDL
MODEL 8
REMARK VINA RESULT:      -7.1      3.434      8.944
REMARK  5 active torsions:
REMARK  status: ('A' for Active; 'I' for Inactive)
REMARK    1  A    between atoms: C_2  and  O_3 
REMARK    2  A    between atoms: O_3  and  C_4 
REMARK    3  A    between atoms: C_8  and  N_9 
REMARK       I    between atoms: N_9  and  C_10 
REMARK       I    between atoms: C_10  and  N_11 
REMARK    4  A    between atoms: N_11  and  C_12 
REMARK    5  A    between atoms: C_12  and  C_13 
ROOT
HETATM    1  N   UNL     1      25.282  48.208  49.277  1.00  0.00    -0.309 N 
HETATM    2  C   UNL     1      25.649  47.236  50.149  1.00  0.00     0.321 C 
HETATM    3  N   UNL     1      24.780  46.864  51.115  1.00  0.00    -0.337 N 
HETATM    4  O   UNL     1      26.774  46.747  50.052  1.00  0.00    -0.247 OA
HETATM    5  H   UNL     1      26.080  48.482  48.716  1.00  0.00     0.170 HD
HETATM    6  H   UNL     1      24.136  47.564  51.455  1.00  0.00     0.164 HD
ENDROOT
BRANCH   1   7
HETATM    7  C   UNL     1      24.067  48.852  48.981  1.00  0.00     0.038 A 
HETATM    8  C   UNL     1      22.815  48.242  48.964  1.00  0.00     0.056 A 
HETATM    9  C   UNL     1      21.667  48.994  48.666  1.00  0.00     0.069 A 
HETATM   10  C   UNL     1      21.752  50.362  48.357  1.00  0.00     0.090 A 
HETATM   11 CL   UNL     1      20.140  48.177  48.687  1.00  0.00    -0.081 Cl
HETATM   12  C   UNL     1      23.012  50.957  48.333  1.00  0.00     0.041 A 
HETATM   13  C   UNL     1      24.155  50.208  48.639  1.00  0.00     0.032 A 
BRANCH  10  14
HETATM   14  O   UNL     1      20.580  51.018  48.088  1.00  0.00    -0.350 OA
BRANCH  14  15
HETATM   15  C   UNL     1      19.912  51.658  49.172  1.00  0.00     0.171 C 
HETATM   16  C   UNL     1      18.767  52.479  48.605  1.00  0.00     0.034 C 
ENDBRANCH  14  15
ENDBRANCH  10  14
ENDBRANCH   1   7
BRANCH   3  17
HETATM   17  C   UNL     1      25.173  45.890  52.111  1.00  0.00     0.183 C 
BRANCH  17  18
HETATM   18  C   UNL     1      25.915  46.515  53.273  1.00  0.00     0.053 A 
HETATM   19  N   UNL     1      25.462  47.700  53.767  1.00  0.00    -0.264 NA
HETATM   20  C   UNL     1      26.130  48.241  54.811  1.00  0.00     0.118 A 
HETATM   21  C   UNL     1      27.251  47.672  55.381  1.00  0.00     0.043 A 
HETATM   22  C   UNL     1      27.709  46.477  54.843  1.00  0.00     0.037 A 
HETATM   23 CL   UNL     1      29.110  45.725  55.501  1.00  0.00    -0.084 Cl
HETATM   24  C   UNL     1      27.045  45.882  53.779  1.00  0.00     0.052 A 
ENDBRANCH  17  18
ENDBRANCH   3  17
TORSDOF 5
ENDMDL
MODEL 9
REMARK VINA RESULT:      -7.1      3.504      5.450
REMARK  5 active torsions:
REMARK  status: ('A' for Active; 'I' for Inactive)
REMARK    1  A    between atoms: C_2  and  O_3 
REMARK    2  A    between atoms: O_3  and  C_4 
REMARK    3  A    between atoms: C_8  and  N_9 
REMARK       I    between atoms: N_9  and  C_10 
REMARK       I    between atoms: C_10  and  N_11 
REMARK    4  A    between atoms: N_11  and  C_12 
REMARK    5  A    between atoms: C_12  and  C_13 
ROOT
HETATM    1  N   UNL     1      26.823  48.278  49.175  1.00  0.00    -0.309 N 
HETATM    2  C   UNL     1      26.084  49.287  48.647  1.00  0.00     0.321 C 
HETATM    3  N   UNL     1      24.735  49.205  48.702  1.00  0.00    -0.337 N 
HETATM    4  O   UNL     1      26.665  50.227  48.107  1.00  0.00    -0.247 OA
HETATM    5  H   UNL     1      27.798  48.405  48.928  1.00  0.00     0.170 HD
HETATM    6  H   UNL     1      24.326  48.282  48.689  1.00  0.00     0.164 HD
ENDROOT
BRANCH   1   7
HETATM    7  C   UNL     1      26.529  47.171  49.990  1.00  0.00     0.038 A 
HETATM    8  C   UNL     1      26.675  45.836  49.620  1.00  0.00     0.056 A 
HETATM    9  C   UNL     1      26.360  44.813  50.529  1.00  0.00     0.069 A 
HETATM   10  C   UNL     1      25.874  45.103  51.814  1.00  0.00     0.090 A 
HETATM   11 CL   UNL     1      26.588  43.176  50.009  1.00  0.00    -0.081 Cl
HETATM   12  C   UNL     1      25.689  46.440  52.164  1.00  0.00     0.041 A 
HETATM   13  C   UNL     1      26.012  47.459  51.260  1.00  0.00     0.032 A 
BRANCH  10  14
HETATM   14  O   UNL     1      25.602  44.042  52.637  1.00  0.00    -0.350 OA
BRANCH  14  15
HETATM   15  C   UNL     1      25.441  44.304  54.029  1.00  0.00     0.171 C 
HETATM   16  C   UNL     1      26.718  43.891  54.739  1.00  0.00     0.034 C 
ENDBRANCH  14  15
ENDBRANCH  10  14
ENDBRANCH   1   7
BRANCH   3  17
HETATM   17  C   UNL     1      23.920  50.222  48.073  1.00  0.00     0.183 C 
BRANCH  17  18
HETATM   18  C   UNL     1      22.459  50.113  48.455  1.00  0.00     0.053 A 
HETATM   19  N   UNL     1      21.993  48.912  48.893  1.00  0.00    -0.264 NA
HETATM   20  C   UNL     1      20.688  48.834  49.240  1.00  0.00     0.118 A 
HETATM   21  C   UNL     1      19.807  49.893  49.150  1.00  0.00     0.043 A 
HETATM   22  C   UNL     1      20.300  51.100  48.676  1.00  0.00     0.037 A 
HETATM   23 CL   UNL     1      19.248  52.454  48.527  1.00  0.00    -0.084 Cl
HETATM   24  C   UNL     1      21.636  51.226  48.322  1.00  0.00     0.052 A 
ENDBRANCH  17  18
ENDBRANCH   3  17
TORSDOF 5
ENDMDL
MODEL 10
REMARK VINA RESULT:      -7.0      4.618      7.912
REMARK  5 active torsions:
REMARK  status: ('A' for Active; 'I' for Inactive)
REMARK    1  A    between atoms: C_2  and  O_3 
REMARK    2  A    between atoms: O_3  and  C_4 
REMARK    3  A    between atoms: C_8  and  N_9 
REMARK       I    between atoms: N_9  and  C_10 
REMARK       I    between atoms: C_10  and  N_11 
REMARK    4  A    between atoms: N_11  and  C_12 
REMARK    5  A    between atoms: C_12  and  C_13 
ROOT
HETATM    1  N   UNL     1      25.598  42.926  51.991  1.00  0.00    -0.309 N 
HETATM    2  C   UNL     1      25.869  43.930  52.863  1.00  0.00     0.321 C 
HETATM    3  N   UNL     1      27.159  44.256  53.103  1.00  0.00    -0.337 N 
HETATM    4  O   UNL     1      24.932  44.490  53.431  1.00  0.00    -0.247 OA
HETATM    5  H   UNL     1      24.611  42.699  52.030  1.00  0.00     0.170 HD
HETATM    6  H   UNL     1      27.846  43.519  53.026  1.00  0.00     0.164 HD
ENDROOT
BRANCH   1   7
HETATM    7  C   UNL     1      26.365  42.201  51.062  1.00  0.00     0.038 A 
HETATM    8  C   UNL     1      27.246  41.167  51.375  1.00  0.00     0.056 A 
HETATM    9  C   UNL     1      27.949  40.507  50.356  1.00  0.00     0.069 A 
HETATM   10  C   UNL     1      27.805  40.880  49.010  1.00  0.00     0.090 A 
HETATM   11 CL   UNL     1      29.009  39.215  50.814  1.00  0.00    -0.081 Cl
HETATM   12  C   UNL     1      26.955  41.944  48.706  1.00  0.00     0.041 A 
HETATM   13  C   UNL     1      26.247  42.595  49.723  1.00  0.00     0.032 A 
BRANCH  10  14
HETATM   14  O   UNL     1      28.523  40.174  48.081  1.00  0.00    -0.350 OA
BRANCH  14  15
HETATM   15  C   UNL     1      27.805  39.326  47.188  1.00  0.00     0.171 C 
HETATM   16  C   UNL     1      27.935  39.896  45.787  1.00  0.00     0.034 C 
ENDBRANCH  14  15
ENDBRANCH  10  14
ENDBRANCH   1   7
BRANCH   3  17
HETATM   17  C   UNL     1      27.483  45.264  54.089  1.00  0.00     0.183 C 
BRANCH  17  18
HETATM   18  C   UNL     1      28.709  44.908  54.902  1.00  0.00     0.053 A 
HETATM   19  N   UNL     1      29.449  43.832  54.520  1.00  0.00    -0.264 NA
HETATM   20  C   UNL     1      30.547  43.534  55.251  1.00  0.00     0.118 A 
HETATM   21  C   UNL     1      30.939  44.242  56.369  1.00  0.00     0.043 A 
HETATM   22  C   UNL     1      30.154  45.319  56.754  1.00  0.00     0.037 A 
HETATM   23 CL   UNL     1      30.582  46.234  58.148  1.00  0.00    -0.084 Cl
HETATM   24  C   UNL     1      29.026  45.668  56.023  1.00  0.00     0.052 A 
ENDBRANCH  17  18
ENDBRANCH   3  17
TORSDOF 5
ENDMDL
