MODEL 1
REMARK VINA RESULT:     -10.4      0.000      0.000
REMARK  5 active torsions:
REMARK  status: ('A' for Active; 'I' for Inactive)
REMARK    1  A    between atoms: C_5  and  C_6 
REMARK    2  A    between atoms: C_10  and  C_11 
REMARK       I    between atoms: C_11  and  N_12 
REMARK    3  A    between atoms: N_12  and  N_13 
REMARK       I    between atoms: N_13  and  C_14 
REMARK       I    between atoms: C_14  and  N_15 
REMARK    4  A    between atoms: N_15  and  C_16 
REMARK    5  A    between atoms: C_16  and  C_17 
ROOT
HETATM    1  C   UNL     1      24.858  45.628  51.724  1.00  0.00     0.288 C 
HETATM    2  N   UNL     1      24.741  46.738  50.918  1.00  0.00    -0.261 N 
HETATM    3  O   UNL     1      24.113  44.655  51.616  1.00  0.00    -0.264 OA
HETATM    4  H   UNL     1      25.323  47.567  51.004  1.00  0.00     0.190 HD
ENDROOT
BRANCH   2   5
HETATM    5  N   UNL     1      23.724  46.800  49.955  1.00  0.00    -0.249 N 
HETATM    6  C   UNL     1      23.424  48.055  49.470  1.00  0.00     0.334 C 
HETATM    7  N   UNL     1      22.534  48.013  48.428  1.00  0.00    -0.341 N 
HETATM    8  O   UNL     1      23.905  49.082  49.942  1.00  0.00    -0.246 OA
HETATM    9  H   UNL     1      21.927  47.205  48.416  1.00  0.00     0.164 HD
HETATM   10  H   UNL     1      23.675  46.004  49.326  1.00  0.00     0.192 HD
BRANCH   7  11
HETATM   11  C   UNL     1      22.011  49.235  47.847  1.00  0.00     0.129 C 
BRANCH  11  12
HETATM   12  C   UNL     1      20.488  49.193  47.609  1.00  0.00     0.004 C 
HETATM   13  C   UNL     1      19.710  48.640  48.817  1.00  0.00     0.010 C 
HETATM   14  C   UNL     1      19.670  49.611  50.007  1.00  0.00    -0.018 C 
HETATM   15  C   UNL     1      18.819  49.035  51.139  1.00  0.00     0.010 C 
HETATM   16  C   UNL     1      19.135  50.983  49.577  1.00  0.00     0.004 C 
HETATM   17  C   UNL     1      19.915  51.555  48.397  1.00  0.00     0.001 C 
HETATM   18  C   UNL     1      19.952  50.581  47.221  1.00  0.00     0.006 C 
ENDBRANCH  11  12
ENDBRANCH   7  11
ENDBRANCH   2   5
BRANCH   1  19
HETATM   19  C   UNL     1      25.912  45.695  52.699  1.00  0.00     0.121 A 
HETATM   20  N   UNL     1      26.141  46.815  53.447  1.00  0.00    -0.272 N 
HETATM   21  N   UNL     1      27.185  46.714  54.283  1.00  0.00    -0.174 NA
HETATM   22  H   UNL     1      25.622  47.687  53.413  1.00  0.00     0.189 HD
HETATM   23  C   UNL     1      27.637  45.462  54.112  1.00  0.00     0.089 A 
HETATM   24  C   UNL     1      26.867  44.792  53.120  1.00  0.00     0.071 A 
BRANCH  23  25
HETATM   25  C   UNL     1      28.778  44.936  54.864  1.00  0.00    -0.006 A 
HETATM   26  C   UNL     1      29.289  45.627  55.972  1.00  0.00     0.014 A 
HETATM   27  C   UNL     1      30.365  45.110  56.701  1.00  0.00     0.007 A 
HETATM   28  C   UNL     1      30.955  43.897  56.331  1.00  0.00    -0.062 A 
HETATM   29  C   UNL     1      32.084  43.319  57.132  1.00  0.00     0.048 C 
HETATM   30  C   UNL     1      30.444  43.202  55.230  1.00  0.00     0.007 A 
HETATM   31  C   UNL     1      29.372  43.721  54.498  1.00  0.00     0.014 A 
ENDBRANCH  23  25
ENDBRANCH   1  19
TORSDOF 5
ENDMDL
MODEL 2
REMARK VINA RESULT:      -9.8      1.400      2.229
REMARK  5 active torsions:
REMARK  status: ('A' for Active; 'I' for Inactive)
REMARK    1  A    between atoms: C_5  and  C_6 
REMARK    2  A    between atoms: C_10  and  C_11 
REMARK       I    between atoms: C_11  and  N_12 
REMARK    3  A    between atoms: N_12  and  N_13 
REMARK       I    between atoms: N_13  and  C_14 
REMARK       I    between atoms: C_14  and  N_15 
REMARK    4  A    between atoms: N_15  and  C_16 
REMARK    5  A    between atoms: C_16  and  C_17 
ROOT
HETATM    1  C   UNL     1      24.679  44.859  50.983  1.00  0.00     0.288 C 
HETATM    2  N   UNL     1      24.680  45.971  50.171  1.00  0.00    -0.261 N 
HETATM    3  O   UNL     1      23.665  44.194  51.185  1.00  0.00    -0.264 OA
HETATM    4  H   UNL     1      25.496  46.556  50.008  1.00  0.00     0.190 HD
ENDROOT
BRANCH   2   5
HETATM    5  N   UNL     1      23.489  46.398  49.567  1.00  0.00    -0.249 N 
HETATM    6  C   UNL     1      23.315  47.762  49.469  1.00  0.00     0.334 C 
HETATM    7  N   UNL     1      22.207  48.095  48.734  1.00  0.00    -0.341 N 
HETATM    8  O   UNL     1      24.075  48.569  49.999  1.00  0.00    -0.246 OA
HETATM    9  H   UNL     1      21.478  47.395  48.717  1.00  0.00     0.164 HD
HETATM   10  H   UNL     1      23.145  45.803  48.820  1.00  0.00     0.192 HD
BRANCH   7  11
HETATM   11  C   UNL     1      21.790  49.478  48.601  1.00  0.00     0.129 C 
BRANCH  11  12
HETATM   12  C   UNL     1      20.766  49.911  49.670  1.00  0.00     0.004 C 
HETATM   13  C   UNL     1      20.203  51.322  49.420  1.00  0.00     0.010 C 
HETATM   14  C   UNL     1      19.239  51.387  48.225  1.00  0.00    -0.018 C 
HETATM   15  C   UNL     1      18.658  52.794  48.083  1.00  0.00     0.010 C 
HETATM   16  C   UNL     1      18.115  50.353  48.373  1.00  0.00     0.004 C 
HETATM   17  C   UNL     1      18.659  48.945  48.593  1.00  0.00     0.001 C 
HETATM   18  C   UNL     1      19.620  48.892  49.780  1.00  0.00     0.006 C 
ENDBRANCH  11  12
ENDBRANCH   7  11
ENDBRANCH   2   5
BRANCH   1  19
HETATM   19  C   UNL     1      25.949  44.541  51.576  1.00  0.00     0.121 A 
HETATM   20  N   UNL     1      26.962  43.966  50.863  1.00  0.00    -0.272 N 
HETATM   21  N   UNL     1      28.064  43.707  51.583  1.00  0.00    -0.174 NA
HETATM   22  H   UNL     1      26.948  43.712  49.880  1.00  0.00     0.189 HD
HETATM   23  C   UNL     1      27.783  44.170  52.812  1.00  0.00     0.089 A 
HETATM   24  C   UNL     1      26.461  44.696  52.849  1.00  0.00     0.071 A 
BRANCH  23  25
HETATM   25  C   UNL     1      28.747  44.094  53.911  1.00  0.00    -0.006 A 
HETATM   26  C   UNL     1      29.658  43.032  53.997  1.00  0.00     0.014 A 
HETATM   27  C   UNL     1      30.591  42.976  55.037  1.00  0.00     0.007 A 
HETATM   28  C   UNL     1      30.626  43.975  56.015  1.00  0.00    -0.062 A 
HETATM   29  C   UNL     1      31.650  43.940  57.111  1.00  0.00     0.048 C 
HETATM   30  C   UNL     1      29.722  45.040  55.929  1.00  0.00     0.007 A 
HETATM   31  C   UNL     1      28.786  45.093  54.892  1.00  0.00     0.014 A 
ENDBRANCH  23  25
ENDBRANCH   1  19
TORSDOF 5
ENDMDL
MODEL 3
REMARK VINA RESULT:      -9.8      1.468      1.724
REMARK  5 active torsions:
REMARK  status: ('A' for Active; 'I' for Inactive)
REMARK    1  A    between atoms: C_5  and  C_6 
REMARK    2  A    between atoms: C_10  and  C_11 
REMARK       I    between atoms: C_11  and  N_12 
REMARK    3  A    between atoms: N_12  and  N_13 
REMARK       I    between atoms: N_13  and  C_14 
REMARK       I    between atoms: C_14  and  N_15 
REMARK    4  A    between atoms: N_15  and  C_16 
REMARK    5  A    between atoms: C_16  and  C_17 
ROOT
HETATM    1  C   UNL     1      24.336  44.860  50.750  1.00  0.00     0.288 C 
HETATM    2  N   UNL     1      24.457  46.098  50.159  1.00  0.00    -0.261 N 
HETATM    3  O   UNL     1      23.285  44.223  50.731  1.00  0.00    -0.264 OA
HETATM    4  H   UNL     1      25.304  46.660  50.184  1.00  0.00     0.190 HD
ENDROOT
BRANCH   2   5
HETATM    5  N   UNL     1      23.348  46.687  49.535  1.00  0.00    -0.249 N 
HETATM    6  C   UNL     1      23.345  48.065  49.482  1.00  0.00     0.334 C 
HETATM    7  N   UNL     1      22.311  48.554  48.725  1.00  0.00    -0.341 N 
HETATM    8  O   UNL     1      24.177  48.754  50.064  1.00  0.00    -0.246 OA
HETATM    9  H   UNL     1      21.504  47.949  48.660  1.00  0.00     0.164 HD
HETATM   10  H   UNL     1      22.961  46.163  48.756  1.00  0.00     0.192 HD
BRANCH   7  11
HETATM   11  C   UNL     1      22.071  49.982  48.630  1.00  0.00     0.129 C 
BRANCH  11  12
HETATM   12  C   UNL     1      20.744  50.330  47.926  1.00  0.00     0.004 C 
HETATM   13  C   UNL     1      19.686  49.219  48.059  1.00  0.00     0.010 C 
HETATM   14  C   UNL     1      19.103  49.105  49.475  1.00  0.00    -0.018 C 
HETATM   15  C   UNL     1      18.007  48.039  49.517  1.00  0.00     0.010 C 
HETATM   16  C   UNL     1      18.556  50.457  49.951  1.00  0.00     0.004 C 
HETATM   17  C   UNL     1      19.602  51.563  49.851  1.00  0.00     0.001 C 
HETATM   18  C   UNL     1      20.180  51.665  48.441  1.00  0.00     0.006 C 
ENDBRANCH  11  12
ENDBRANCH   7  11
ENDBRANCH   2   5
BRANCH   1  19
HETATM   19  C   UNL     1      25.527  44.376  51.392  1.00  0.00     0.121 A 
HETATM   20  N   UNL     1      26.178  43.254  50.966  1.00  0.00    -0.272 N 
HETATM   21  N   UNL     1      27.252  42.928  51.701  1.00  0.00    -0.174 NA
HETATM   22  H   UNL     1      25.921  42.659  50.184  1.00  0.00     0.189 HD
HETATM   23  C   UNL     1      27.339  43.899  52.624  1.00  0.00     0.089 A 
HETATM   24  C   UNL     1      26.269  44.824  52.467  1.00  0.00     0.071 A 
BRANCH  23  25
HETATM   25  C   UNL     1      28.404  43.926  53.628  1.00  0.00    -0.006 A 
HETATM   26  C   UNL     1      28.449  44.933  54.602  1.00  0.00     0.014 A 
HETATM   27  C   UNL     1      29.456  44.942  55.573  1.00  0.00     0.007 A 
HETATM   28  C   UNL     1      30.439  43.948  55.584  1.00  0.00    -0.062 A 
HETATM   29  C   UNL     1      31.499  43.930  56.647  1.00  0.00     0.048 C 
HETATM   30  C   UNL     1      30.394  42.937  54.618  1.00  0.00     0.007 A 
HETATM   31  C   UNL     1      29.391  42.932  53.644  1.00  0.00     0.014 A 
ENDBRANCH  23  25
ENDBRANCH   1  19
TORSDOF 5
ENDMDL
MODEL 4
REMARK VINA RESULT:      -9.5      1.767      2.029
REMARK  5 active torsions:
REMARK  status: ('A' for Active; 'I' for Inactive)
REMARK    1  A    between atoms: C_5  and  C_6 
REMARK    2  A    between atoms: C_10  and  C_11 
REMARK       I    between atoms: C_11  and  N_12 
REMARK    3  A    between atoms: N_12  and  N_13 
REMARK       I    between atoms: N_13  and  C_14 
REMARK       I    between atoms: C_14  and  N_15 
REMARK    4  A    between atoms: N_15  and  C_16 
REMARK    5  A    between atoms: C_16  and  C_17 
ROOT
HETATM    1  C   UNL     1      26.401  44.641  50.443  1.00  0.00     0.288 C 
HETATM    2  N   UNL     1      25.301  45.354  50.862  1.00  0.00    -0.261 N 
HETATM    3  O   UNL     1      26.604  44.382  49.258  1.00  0.00    -0.264 OA
HETATM    4  H   UNL     1      25.092  45.558  51.836  1.00  0.00     0.190 HD
ENDROOT
BRANCH   2   5
HETATM    5  N   UNL     1      24.347  45.783  49.928  1.00  0.00    -0.249 N 
HETATM    6  C   UNL     1      24.090  47.137  49.904  1.00  0.00     0.334 C 
HETATM    7  N   UNL     1      23.266  47.493  48.867  1.00  0.00    -0.341 N 
HETATM    8  O   UNL     1      24.549  47.916  50.734  1.00  0.00    -0.246 OA
HETATM    9  H   UNL     1      22.654  46.760  48.535  1.00  0.00     0.164 HD
HETATM   10  H   UNL     1      24.330  45.263  49.056  1.00  0.00     0.192 HD
BRANCH   7  11
HETATM   11  C   UNL     1      22.792  48.857  48.727  1.00  0.00     0.129 C 
BRANCH  11  12
HETATM   12  C   UNL     1      21.423  48.957  48.025  1.00  0.00     0.004 C 
HETATM   13  C   UNL     1      20.255  48.515  48.925  1.00  0.00     0.010 C 
HETATM   14  C   UNL     1      19.944  49.516  50.047  1.00  0.00    -0.018 C 
HETATM   15  C   UNL     1      18.728  49.056  50.852  1.00  0.00     0.010 C 
HETATM   16  C   UNL     1      19.710  50.921  49.477  1.00  0.00     0.004 C 
HETATM   17  C   UNL     1      20.873  51.384  48.605  1.00  0.00     0.001 C 
HETATM   18  C   UNL     1      21.178  50.380  47.495  1.00  0.00     0.006 C 
ENDBRANCH  11  12
ENDBRANCH   7  11
ENDBRANCH   2   5
BRANCH   1  19
HETATM   19  C   UNL     1      27.288  44.222  51.493  1.00  0.00     0.121 A 
HETATM   20  N   UNL     1      27.856  42.980  51.514  1.00  0.00    -0.272 N 
HETATM   21  N   UNL     1      28.630  42.746  52.584  1.00  0.00    -0.174 NA
HETATM   22  H   UNL     1      27.735  42.242  50.826  1.00  0.00     0.189 HD
HETATM   23  C   UNL     1      28.607  43.896  53.277  1.00  0.00     0.089 A 
HETATM   24  C   UNL     1      27.769  44.845  52.627  1.00  0.00     0.071 A 
BRANCH  23  25
HETATM   25  C   UNL     1      29.351  44.068  54.526  1.00  0.00    -0.006 A 
HETATM   26  C   UNL     1      30.308  43.125  54.928  1.00  0.00     0.014 A 
HETATM   27  C   UNL     1      31.032  43.305  56.111  1.00  0.00     0.007 A 
HETATM   28  C   UNL     1      30.807  44.424  56.918  1.00  0.00    -0.062 A 
HETATM   29  C   UNL     1      31.608  44.642  58.168  1.00  0.00     0.048 C 
HETATM   30  C   UNL     1      29.857  45.370  56.517  1.00  0.00     0.007 A 
HETATM   31  C   UNL     1      29.130  45.188  55.337  1.00  0.00     0.014 A 
ENDBRANCH  23  25
ENDBRANCH   1  19
TORSDOF 5
ENDMDL
MODEL 5
REMARK VINA RESULT:      -9.1      1.809     11.014
REMARK  5 active torsions:
REMARK  status: ('A' for Active; 'I' for Inactive)
REMARK    1  A    between atoms: C_5  and  C_6 
REMARK    2  A    between atoms: C_10  and  C_11 
REMARK       I    between atoms: C_11  and  N_12 
REMARK    3  A    between atoms: N_12  and  N_13 
REMARK       I    between atoms: N_13  and  C_14 
REMARK       I    between atoms: C_14  and  N_15 
REMARK    4  A    between atoms: N_15  and  C_16 
REMARK    5  A    between atoms: C_16  and  C_17 
ROOT
HETATM    1  C   UNL     1      25.101  46.271  50.068  1.00  0.00     0.288 C 
HETATM    2  N   UNL     1      25.195  46.134  51.434  1.00  0.00    -0.261 N 
HETATM    3  O   UNL     1      25.612  45.467  49.290  1.00  0.00    -0.264 OA
HETATM    4  H   UNL     1      24.807  46.797  52.101  1.00  0.00     0.190 HD
ENDROOT
BRANCH   2   5
HETATM    5  N   UNL     1      25.920  45.067  51.983  1.00  0.00    -0.249 N 
HETATM    6  C   UNL     1      26.559  45.320  53.179  1.00  0.00     0.334 C 
HETATM    7  N   UNL     1      27.113  44.190  53.722  1.00  0.00    -0.341 N 
HETATM    8  O   UNL     1      26.620  46.441  53.675  1.00  0.00    -0.246 OA
HETATM    9  H   UNL     1      27.350  43.466  53.057  1.00  0.00     0.164 HD
HETATM   10  H   UNL     1      25.524  44.146  51.821  1.00  0.00     0.192 HD
BRANCH   7  11
HETATM   11  C   UNL     1      27.919  44.262  54.926  1.00  0.00     0.129 C 
BRANCH  11  12
HETATM   12  C   UNL     1      29.319  44.863  54.688  1.00  0.00     0.004 C 
HETATM   13  C   UNL     1      29.749  45.836  55.800  1.00  0.00     0.010 C 
HETATM   14  C   UNL     1      30.090  45.131  57.122  1.00  0.00    -0.018 C 
HETATM   15  C   UNL     1      30.583  46.144  58.156  1.00  0.00     0.010 C 
HETATM   16  C   UNL     1      31.139  44.033  56.902  1.00  0.00     0.004 C 
HETATM   17  C   UNL     1      30.712  43.045  55.821  1.00  0.00     0.001 C 
HETATM   18  C   UNL     1      30.371  43.756  54.512  1.00  0.00     0.006 C 
ENDBRANCH  11  12
ENDBRANCH   7  11
ENDBRANCH   2   5
BRANCH   1  19
HETATM   19  C   UNL     1      24.366  47.423  49.623  1.00  0.00     0.121 A 
HETATM   20  N   UNL     1      24.962  48.637  49.431  1.00  0.00    -0.272 N 
HETATM   21  N   UNL     1      24.121  49.609  49.047  1.00  0.00    -0.174 NA
HETATM   22  H   UNL     1      25.944  48.863  49.564  1.00  0.00     0.189 HD
HETATM   23  C   UNL     1      22.928  49.002  48.940  1.00  0.00     0.089 A 
HETATM   24  C   UNL     1      23.040  47.630  49.300  1.00  0.00     0.071 A 
BRANCH  23  25
HETATM   25  C   UNL     1      21.724  49.722  48.522  1.00  0.00    -0.006 A 
HETATM   26  C   UNL     1      21.511  51.053  48.907  1.00  0.00     0.014 A 
HETATM   27  C   UNL     1      20.369  51.743  48.487  1.00  0.00     0.007 A 
HETATM   28  C   UNL     1      19.416  51.114  47.681  1.00  0.00    -0.062 A 
HETATM   29  C   UNL     1      18.209  51.860  47.195  1.00  0.00     0.048 C 
HETATM   30  C   UNL     1      19.627  49.787  47.289  1.00  0.00     0.007 A 
HETATM   31  C   UNL     1      20.766  49.096  47.714  1.00  0.00     0.014 A 
ENDBRANCH  23  25
ENDBRANCH   1  19
TORSDOF 5
ENDMDL
MODEL 6
REMARK VINA RESULT:      -9.0      2.160      3.553
REMARK  5 active torsions:
REMARK  status: ('A' for Active; 'I' for Inactive)
REMARK    1  A    between atoms: C_5  and  C_6 
REMARK    2  A    between atoms: C_10  and  C_11 
REMARK       I    between atoms: C_11  and  N_12 
REMARK    3  A    between atoms: N_12  and  N_13 
REMARK       I    between atoms: N_13  and  C_14 
REMARK       I    between atoms: C_14  and  N_15 
REMARK    4  A    between atoms: N_15  and  C_16 
REMARK    5  A    between atoms: C_16  and  C_17 
ROOT
HETATM    1  C   UNL     1      24.308  48.132  49.759  1.00  0.00     0.288 C 
HETATM    2  N   UNL     1      22.947  48.062  49.562  1.00  0.00    -0.261 N 
HETATM    3  O   UNL     1      24.996  49.035  49.287  1.00  0.00    -0.264 OA
HETATM    4  H   UNL     1      22.359  47.313  49.917  1.00  0.00     0.190 HD
ENDROOT
BRANCH   2   5
HETATM    5  N   UNL     1      22.304  49.025  48.772  1.00  0.00    -0.249 N 
HETATM    6  C   UNL     1      20.939  49.126  48.932  1.00  0.00     0.334 C 
HETATM    7  N   UNL     1      20.411  50.187  48.243  1.00  0.00    -0.341 N 
HETATM    8  O   UNL     1      20.289  48.336  49.611  1.00  0.00    -0.246 OA
HETATM    9  H   UNL     1      20.943  50.482  47.436  1.00  0.00     0.164 HD
HETATM   10  H   UNL     1      22.843  49.867  48.592  1.00  0.00     0.192 HD
BRANCH   7  11
HETATM   11  C   UNL     1      18.977  50.405  48.197  1.00  0.00     0.129 C 
BRANCH  11  12
HETATM   12  C   UNL     1      18.591  51.890  48.039  1.00  0.00     0.004 C 
HETATM   13  C   UNL     1      17.529  52.119  46.949  1.00  0.00     0.010 C 
HETATM   14  C   UNL     1      16.132  51.621  47.351  1.00  0.00    -0.018 C 
HETATM   15  C   UNL     1      15.113  51.949  46.259  1.00  0.00     0.010 C 
HETATM   16  C   UNL     1      15.699  52.231  48.691  1.00  0.00     0.004 C 
HETATM   17  C   UNL     1      16.730  51.988  49.788  1.00  0.00     0.001 C 
HETATM   18  C   UNL     1      18.116  52.481  49.377  1.00  0.00     0.006 C 
ENDBRANCH  11  12
ENDBRANCH   7  11
ENDBRANCH   2   5
BRANCH   1  19
HETATM   19  C   UNL     1      24.860  47.069  50.554  1.00  0.00     0.121 A 
HETATM   20  N   UNL     1      24.160  45.931  50.835  1.00  0.00    -0.272 N 
HETATM   21  N   UNL     1      24.816  45.060  51.617  1.00  0.00    -0.174 NA
HETATM   22  H   UNL     1      23.218  45.703  50.530  1.00  0.00     0.189 HD
HETATM   23  C   UNL     1      26.014  45.627  51.826  1.00  0.00     0.089 A 
HETATM   24  C   UNL     1      26.078  46.893  51.180  1.00  0.00     0.071 A 
BRANCH  23  25
HETATM   25  C   UNL     1      27.052  44.981  52.631  1.00  0.00    -0.006 A 
HETATM   26  C   UNL     1      27.267  45.356  53.964  1.00  0.00     0.014 A 
HETATM   27  C   UNL     1      28.245  44.720  54.736  1.00  0.00     0.007 A 
HETATM   28  C   UNL     1      29.031  43.702  54.187  1.00  0.00    -0.062 A 
HETATM   29  C   UNL     1      30.055  42.990  55.021  1.00  0.00     0.048 C 
HETATM   30  C   UNL     1      28.816  43.321  52.858  1.00  0.00     0.007 A 
HETATM   31  C   UNL     1      27.842  43.960  52.086  1.00  0.00     0.014 A 
ENDBRANCH  23  25
ENDBRANCH   1  19
TORSDOF 5
ENDMDL
MODEL 7
REMARK VINA RESULT:      -9.0      2.018      3.322
REMARK  5 active torsions:
REMARK  status: ('A' for Active; 'I' for Inactive)
REMARK    1  A    between atoms: C_5  and  C_6 
REMARK    2  A    between atoms: C_10  and  C_11 
REMARK       I    between atoms: C_11  and  N_12 
REMARK    3  A    between atoms: N_12  and  N_13 
REMARK       I    between atoms: N_13  and  C_14 
REMARK       I    between atoms: C_14  and  N_15 
REMARK    4  A    between atoms: N_15  and  C_16 
REMARK    5  A    between atoms: C_16  and  C_17 
ROOT
HETATM    1  C   UNL     1      24.098  47.681  49.983  1.00  0.00     0.288 C 
HETATM    2  N   UNL     1      22.808  47.371  49.616  1.00  0.00    -0.261 N 
HETATM    3  O   UNL     1      24.629  48.749  49.682  1.00  0.00    -0.264 OA
HETATM    4  H   UNL     1      22.354  46.486  49.826  1.00  0.00     0.190 HD
ENDROOT
BRANCH   2   5
HETATM    5  N   UNL     1      22.063  48.274  48.844  1.00  0.00    -0.249 N 
HETATM    6  C   UNL     1      20.747  47.933  48.615  1.00  0.00     0.334 C 
HETATM    7  N   UNL     1      20.052  48.935  47.988  1.00  0.00    -0.341 N 
HETATM    8  O   UNL     1      20.277  46.845  48.935  1.00  0.00    -0.246 OA
HETATM    9  H   UNL     1      20.614  49.563  47.431  1.00  0.00     0.164 HD
HETATM   10  H   UNL     1      22.304  49.253  48.970  1.00  0.00     0.192 HD
BRANCH   7  11
HETATM   11  C   UNL     1      18.679  48.734  47.565  1.00  0.00     0.129 C 
BRANCH  11  12
HETATM   12  C   UNL     1      17.664  48.833  48.722  1.00  0.00     0.004 C 
HETATM   13  C   UNL     1      17.826  50.119  49.551  1.00  0.00     0.010 C 
HETATM   14  C   UNL     1      17.361  51.381  48.808  1.00  0.00    -0.018 C 
HETATM   15  C   UNL     1      17.477  52.607  49.714  1.00  0.00     0.010 C 
HETATM   16  C   UNL     1      15.922  51.219  48.304  1.00  0.00     0.004 C 
HETATM   17  C   UNL     1      15.752  49.962  47.457  1.00  0.00     0.001 C 
HETATM   18  C   UNL     1      16.221  48.714  48.202  1.00  0.00     0.006 C 
ENDBRANCH  11  12
ENDBRANCH   7  11
ENDBRANCH   2   5
BRANCH   1  19
HETATM   19  C   UNL     1      24.774  46.663  50.739  1.00  0.00     0.121 A 
HETATM   20  N   UNL     1      24.227  45.430  50.952  1.00  0.00    -0.272 N 
HETATM   21  N   UNL     1      24.980  44.616  51.706  1.00  0.00    -0.174 NA
HETATM   22  H   UNL     1      23.328  45.095  50.616  1.00  0.00     0.189 HD
HETATM   23  C   UNL     1      26.090  45.325  51.966  1.00  0.00     0.089 A 
HETATM   24  C   UNL     1      25.996  46.619  51.381  1.00  0.00     0.071 A 
BRANCH  23  25
HETATM   25  C   UNL     1      27.193  44.782  52.762  1.00  0.00    -0.006 A 
HETATM   26  C   UNL     1      28.044  43.800  52.235  1.00  0.00     0.014 A 
HETATM   27  C   UNL     1      29.110  43.300  52.991  1.00  0.00     0.007 A 
HETATM   28  C   UNL     1      29.338  43.766  54.290  1.00  0.00    -0.062 A 
HETATM   29  C   UNL     1      30.502  43.261  55.091  1.00  0.00     0.048 C 
HETATM   30  C   UNL     1      28.494  44.749  54.817  1.00  0.00     0.007 A 
HETATM   31  C   UNL     1      27.426  45.245  54.063  1.00  0.00     0.014 A 
ENDBRANCH  23  25
ENDBRANCH   1  19
TORSDOF 5
ENDMDL
MODEL 8
REMARK VINA RESULT:      -8.8      2.170     11.275
REMARK  5 active torsions:
REMARK  status: ('A' for Active; 'I' for Inactive)
REMARK    1  A    between atoms: C_5  and  C_6 
REMARK    2  A    between atoms: C_10  and  C_11 
REMARK       I    between atoms: C_11  and  N_12 
REMARK    3  A    between atoms: N_12  and  N_13 
REMARK       I    between atoms: N_13  and  C_14 
REMARK       I    between atoms: C_14  and  N_15 
REMARK    4  A    between atoms: N_15  and  C_16 
REMARK    5  A    between atoms: C_16  and  C_17 
ROOT
HETATM    1  C   UNL     1      21.706  47.202  48.749  1.00  0.00     0.288 C 
HETATM    2  N   UNL     1      22.799  47.342  49.574  1.00  0.00    -0.261 N 
HETATM    3  O   UNL     1      21.461  46.154  48.153  1.00  0.00    -0.264 OA
HETATM    4  H   UNL     1      23.041  48.204  50.056  1.00  0.00     0.190 HD
ENDROOT
BRANCH   2   5
HETATM    5  N   UNL     1      23.697  46.277  49.732  1.00  0.00    -0.249 N 
HETATM    6  C   UNL     1      24.674  46.446  50.691  1.00  0.00     0.334 C 
HETATM    7  N   UNL     1      25.411  45.308  50.890  1.00  0.00    -0.341 N 
HETATM    8  O   UNL     1      24.851  47.510  51.278  1.00  0.00    -0.246 OA
HETATM    9  H   UNL     1      25.449  44.678  50.100  1.00  0.00     0.164 HD
HETATM   10  H   UNL     1      23.302  45.353  49.590  1.00  0.00     0.192 HD
BRANCH   7  11
HETATM   11  C   UNL     1      26.555  45.309  51.782  1.00  0.00     0.129 C 
BRANCH  11  12
HETATM   12  C   UNL     1      26.229  44.773  53.191  1.00  0.00     0.004 C 
HETATM   13  C   UNL     1      27.275  43.768  53.705  1.00  0.00     0.010 C 
HETATM   14  C   UNL     1      28.613  44.425  54.078  1.00  0.00    -0.018 C 
HETATM   15  C   UNL     1      29.576  43.386  54.653  1.00  0.00     0.010 C 
HETATM   16  C   UNL     1      28.401  45.570  55.076  1.00  0.00     0.004 C 
HETATM   17  C   UNL     1      27.386  46.589  54.567  1.00  0.00     0.001 C 
HETATM   18  C   UNL     1      26.061  45.927  54.195  1.00  0.00     0.006 C 
ENDBRANCH  11  12
ENDBRANCH   7  11
ENDBRANCH   2   5
BRANCH   1  19
HETATM   19  C   UNL     1      20.879  48.372  48.635  1.00  0.00     0.121 A 
HETATM   20  N   UNL     1      21.264  49.469  47.918  1.00  0.00    -0.272 N 
HETATM   21  N   UNL     1      20.386  50.482  47.947  1.00  0.00    -0.174 NA
HETATM   22  H   UNL     1      22.131  49.586  47.401  1.00  0.00     0.189 HD
HETATM   23  C   UNL     1      19.358  50.019  48.676  1.00  0.00     0.089 A 
HETATM   24  C   UNL     1      19.633  48.699  49.131  1.00  0.00     0.071 A 
BRANCH  23  25
HETATM   25  C   UNL     1      18.164  50.824  48.937  1.00  0.00    -0.006 A 
HETATM   26  C   UNL     1      16.906  50.418  48.471  1.00  0.00     0.014 A 
HETATM   27  C   UNL     1      15.764  51.179  48.742  1.00  0.00     0.007 A 
HETATM   28  C   UNL     1      15.860  52.365  49.476  1.00  0.00    -0.062 A 
HETATM   29  C   UNL     1      14.634  53.165  49.803  1.00  0.00     0.048 C 
HETATM   30  C   UNL     1      17.112  52.771  49.949  1.00  0.00     0.007 A 
HETATM   31  C   UNL     1      18.254  52.012  49.674  1.00  0.00     0.014 A 
ENDBRANCH  23  25
ENDBRANCH   1  19
TORSDOF 5
ENDMDL
MODEL 9
REMARK VINA RESULT:      -8.7      2.438      4.172
REMARK  5 active torsions:
REMARK  status: ('A' for Active; 'I' for Inactive)
REMARK    1  A    between atoms: C_5  and  C_6 
REMARK    2  A    between atoms: C_10  and  C_11 
REMARK       I    between atoms: C_11  and  N_12 
REMARK    3  A    between atoms: N_12  and  N_13 
REMARK       I    between atoms: N_13  and  C_14 
REMARK       I    between atoms: C_14  and  N_15 
REMARK    4  A    between atoms: N_15  and  C_16 
REMARK    5  A    between atoms: C_16  and  C_17 
ROOT
HETATM    1  C   UNL     1      22.715  47.121  48.704  1.00  0.00     0.288 C 
HETATM    2  N   UNL     1      21.631  47.800  49.213  1.00  0.00    -0.261 N 
HETATM    3  O   UNL     1      22.738  46.684  47.556  1.00  0.00    -0.264 OA
HETATM    4  H   UNL     1      21.574  48.147  50.167  1.00  0.00     0.190 HD
ENDROOT
BRANCH   2   5
HETATM    5  N   UNL     1      20.487  47.984  48.424  1.00  0.00    -0.249 N 
HETATM    6  C   UNL     1      19.446  48.666  49.016  1.00  0.00     0.334 C 
HETATM    7  N   UNL     1      18.432  48.937  48.134  1.00  0.00    -0.341 N 
HETATM    8  O   UNL     1      19.445  48.974  50.205  1.00  0.00    -0.246 OA
HETATM    9  H   UNL     1      18.364  48.302  47.351  1.00  0.00     0.164 HD
HETATM   10  H   UNL     1      20.662  48.117  47.432  1.00  0.00     0.192 HD
BRANCH   7  11
HETATM   11  C   UNL     1      17.200  49.556  48.586  1.00  0.00     0.129 C 
BRANCH  11  12
HETATM   12  C   UNL     1      16.897  50.894  47.882  1.00  0.00     0.004 C 
HETATM   13  C   UNL     1      15.618  51.570  48.408  1.00  0.00     0.010 C 
HETATM   14  C   UNL     1      15.778  52.153  49.820  1.00  0.00    -0.018 C 
HETATM   15  C   UNL     1      14.501  52.875  50.248  1.00  0.00     0.010 C 
HETATM   16  C   UNL     1      16.981  53.103  49.886  1.00  0.00     0.004 C 
HETATM   17  C   UNL     1      18.262  52.438  49.393  1.00  0.00     0.001 C 
HETATM   18  C   UNL     1      18.091  51.857  47.991  1.00  0.00     0.006 C 
ENDBRANCH  11  12
ENDBRANCH   7  11
ENDBRANCH   2   5
BRANCH   1  19
HETATM   19  C   UNL     1      23.813  46.960  49.618  1.00  0.00     0.121 A 
HETATM   20  N   UNL     1      24.559  48.019  50.053  1.00  0.00    -0.272 N 
HETATM   21  N   UNL     1      25.564  47.683  50.876  1.00  0.00    -0.174 NA
HETATM   22  H   UNL     1      24.434  48.996  49.805  1.00  0.00     0.189 HD
HETATM   23  C   UNL     1      25.451  46.354  51.024  1.00  0.00     0.089 A 
HETATM   24  C   UNL     1      24.367  45.862  50.245  1.00  0.00     0.071 A 
BRANCH  23  25
HETATM   25  C   UNL     1      26.364  45.585  51.873  1.00  0.00    -0.006 A 
HETATM   26  C   UNL     1      27.095  44.508  51.352  1.00  0.00     0.014 A 
HETATM   27  C   UNL     1      27.982  43.791  52.162  1.00  0.00     0.007 A 
HETATM   28  C   UNL     1      28.149  44.131  53.507  1.00  0.00    -0.062 A 
HETATM   29  C   UNL     1      29.127  43.390  54.370  1.00  0.00     0.048 C 
HETATM   30  C   UNL     1      27.425  45.209  54.029  1.00  0.00     0.007 A 
HETATM   31  C   UNL     1      26.535  45.923  53.221  1.00  0.00     0.014 A 
ENDBRANCH  23  25
ENDBRANCH   1  19
TORSDOF 5
ENDMDL
MODEL 10
REMARK VINA RESULT:      -8.5      7.066      9.487
REMARK  5 active torsions:
REMARK  status: ('A' for Active; 'I' for Inactive)
REMARK    1  A    between atoms: C_5  and  C_6 
REMARK    2  A    between atoms: C_10  and  C_11 
REMARK       I    between atoms: C_11  and  N_12 
REMARK    3  A    between atoms: N_12  and  N_13 
REMARK       I    between atoms: N_13  and  C_14 
REMARK       I    between atoms: C_14  and  N_15 
REMARK    4  A    between atoms: N_15  and  C_16 
REMARK    5  A    between atoms: C_16  and  C_17 
ROOT
HETATM    1  C   UNL     1      27.156  40.804  51.109  1.00  0.00     0.288 C 
HETATM    2  N   UNL     1      28.125  39.828  51.050  1.00  0.00    -0.261 N 
HETATM    3  O   UNL     1      26.102  40.724  50.482  1.00  0.00    -0.264 OA
HETATM    4  H   UNL     1      29.017  39.881  51.534  1.00  0.00     0.190 HD
ENDROOT
BRANCH   2   5
HETATM    5  N   UNL     1      27.939  38.706  50.228  1.00  0.00    -0.249 N 
HETATM    6  C   UNL     1      28.584  38.735  49.010  1.00  0.00     0.334 C 
HETATM    7  N   UNL     1      28.479  37.546  48.336  1.00  0.00    -0.341 N 
HETATM    8  O   UNL     1      29.172  39.729  48.592  1.00  0.00    -0.246 OA
HETATM    9  H   UNL     1      27.668  36.990  48.572  1.00  0.00     0.164 HD
HETATM   10  H   UNL     1      27.849  37.821  50.717  1.00  0.00     0.192 HD
BRANCH   7  11
HETATM   11  C   UNL     1      29.001  37.405  46.990  1.00  0.00     0.129 C 
BRANCH  11  12
HETATM   12  C   UNL     1      27.901  37.380  45.910  1.00  0.00     0.004 C 
HETATM   13  C   UNL     1      27.279  38.765  45.658  1.00  0.00     0.010 C 
HETATM   14  C   UNL     1      28.222  39.727  44.919  1.00  0.00    -0.018 C 
HETATM   15  C   UNL     1      27.516  41.053  44.633  1.00  0.00     0.010 C 
HETATM   16  C   UNL     1      28.733  39.098  43.616  1.00  0.00     0.004 C 
HETATM   17  C   UNL     1      29.377  37.736  43.854  1.00  0.00     0.001 C 
HETATM   18  C   UNL     1      28.433  36.789  44.594  1.00  0.00     0.006 C 
ENDBRANCH  11  12
ENDBRANCH   7  11
ENDBRANCH   2   5
BRANCH   1  19
HETATM   19  C   UNL     1      27.475  41.923  51.953  1.00  0.00     0.121 A 
HETATM   20  N   UNL     1      27.005  43.181  51.704  1.00  0.00    -0.272 N 
HETATM   21  N   UNL     1      27.428  44.110  52.574  1.00  0.00    -0.174 NA
HETATM   22  H   UNL     1      26.402  43.466  50.937  1.00  0.00     0.189 HD
HETATM   23  C   UNL     1      28.173  43.429  53.460  1.00  0.00     0.089 A 
HETATM   24  C   UNL     1      28.231  42.054  53.101  1.00  0.00     0.071 A 
BRANCH  23  25
HETATM   25  C   UNL     1      28.816  44.084  54.601  1.00  0.00    -0.006 A 
HETATM   26  C   UNL     1      30.070  43.657  55.062  1.00  0.00     0.014 A 
HETATM   27  C   UNL     1      30.691  44.300  56.138  1.00  0.00     0.007 A 
HETATM   28  C   UNL     1      30.067  45.375  56.778  1.00  0.00    -0.062 A 
HETATM   29  C   UNL     1      30.744  46.093  57.908  1.00  0.00     0.048 C 
HETATM   30  C   UNL     1      28.818  45.808  56.318  1.00  0.00     0.007 A 
HETATM   31  C   UNL     1      28.196  45.162  55.245  1.00  0.00     0.014 A 
ENDBRANCH  23  25
ENDBRANCH   1  19
TORSDOF 5
ENDMDL
