MODEL 1
REMARK VINA RESULT:      -9.3      0.000      0.000
REMARK  10 active torsions:
REMARK  status: ('A' for Active; 'I' for Inactive)
REMARK    1  A    between atoms: C_9  and  S_10 
REMARK    2  A    between atoms: S_10  and  C_11 
REMARK    3  A    between atoms: C_11  and  C_12 
REMARK       I    between atoms: C_12  and  N_13 
REMARK    4  A    between atoms: N_13  and  C_14 
REMARK    5  A    between atoms: C_14  and  C_15 
REMARK    6  A    between atoms: C_15  and  C_16 
REMARK    7  A    between atoms: C_19  and  S_20 
REMARK    8  A    between atoms: S_20  and  N_21 
REMARK    9  A    between atoms: N_27  and  C_28 
REMARK   10  A    between atoms: C_35  and  N_36 
ROOT
HETATM    1  C   UNL     1      31.685  43.658  56.364  1.00  0.00     0.073 C 
HETATM    2  C   UNL     1      30.488  44.529  56.229  1.00  0.00     0.068 A 
HETATM    3  N   UNL     1      30.247  45.455  57.165  1.00  0.00    -0.177 NA
HETATM    4  N   UNL     1      29.101  46.030  56.776  1.00  0.00    -0.260 N 
HETATM    5  H   UNL     1      28.705  46.771  57.344  1.00  0.00     0.191 HD
HETATM    6  C   UNL     1      28.597  45.495  55.625  1.00  0.00     0.162 A 
HETATM    7  C   UNL     1      29.485  44.523  55.212  1.00  0.00     0.081 A 
HETATM    8  N   UNL     1      27.455  45.839  55.032  1.00  0.00    -0.204 NA
HETATM    9  C   UNL     1      27.220  45.106  53.920  1.00  0.00     0.177 A 
HETATM   10  N   UNL     1      28.045  44.137  53.432  1.00  0.00    -0.276 N 
HETATM   11  C   UNL     1      29.227  43.812  54.028  1.00  0.00     0.124 A 
ENDROOT
BRANCH   9  12
HETATM   12  S   UNL     1      25.587  45.408  53.219  1.00  0.00    -0.082 SA
BRANCH  12  13
HETATM   13  C   UNL     1      25.828  47.117  52.630  1.00  0.00     0.185 C 
BRANCH  13  14
HETATM   14  C   UNL     1      25.567  47.212  51.132  1.00  0.00     0.227 C 
HETATM   15  N   UNL     1      24.232  47.215  50.793  1.00  0.00    -0.360 N 
HETATM   16  H   UNL     1      23.550  47.389  51.524  1.00  0.00     0.162 HD
HETATM   17  O   UNL     1      26.480  47.268  50.308  1.00  0.00    -0.273 OA
BRANCH  15  18
HETATM   18  C   UNL     1      23.782  47.417  49.424  1.00  0.00     0.127 C 
BRANCH  18  19
HETATM   19  C   UNL     1      23.758  48.903  49.055  1.00  0.00     0.058 C 
BRANCH  19  20
HETATM   20  C   UNL     1      22.358  49.463  49.034  1.00  0.00    -0.057 A 
HETATM   21  C   UNL     1      21.247  48.610  49.114  1.00  0.00     0.009 A 
HETATM   22  C   UNL     1      19.952  49.131  49.074  1.00  0.00     0.025 A 
HETATM   23  C   UNL     1      19.766  50.511  48.961  1.00  0.00     0.074 A 
HETATM   24  C   UNL     1      20.863  51.371  48.867  1.00  0.00     0.025 A 
HETATM   25  C   UNL     1      22.155  50.846  48.908  1.00  0.00     0.009 A 
BRANCH  23  26
HETATM   26  S   UNL     1      18.127  51.170  48.853  1.00  0.00     0.239 S 
HETATM   27  O   UNL     1      17.415  50.489  47.798  1.00  0.00    -0.206 OA
HETATM   28  O   UNL     1      17.590  51.311  50.187  1.00  0.00    -0.206 OA
BRANCH  26  29
HETATM   29  N   UNL     1      18.413  52.727  48.297  1.00  0.00    -0.225 NA
HETATM   30  H   UNL     1      18.049  53.407  48.967  1.00  0.00     0.136 HD
HETATM   31  H   UNL     1      19.407  52.849  48.098  1.00  0.00     0.136 HD
ENDBRANCH  26  29
ENDBRANCH  23  26
ENDBRANCH  19  20
ENDBRANCH  18  19
ENDBRANCH  15  18
ENDBRANCH  13  14
ENDBRANCH  12  13
ENDBRANCH   9  12
BRANCH  10  32
HETATM   32  C   UNL     1      27.644  43.393  52.273  1.00  0.00     0.043 A 
HETATM   33  C   UNL     1      27.261  42.059  52.419  1.00  0.00     0.031 A 
HETATM   34  C   UNL     1      26.844  41.355  51.288  1.00  0.00     0.021 A 
HETATM   35  C   UNL     1      26.803  41.994  50.046  1.00  0.00     0.011 A 
HETATM   36 BR   UNL     1      26.234  41.033  48.522  1.00  0.00    -0.051 Br
HETATM   37  C   UNL     1      27.170  43.337  49.918  1.00  0.00     0.021 A 
HETATM   38  C   UNL     1      27.592  44.050  51.040  1.00  0.00     0.031 A 
ENDBRANCH  10  32
BRANCH  11  39
HETATM   39  N   UNL     1      30.087  42.837  53.529  1.00  0.00    -0.384 N 
HETATM   40  H   UNL     1      31.088  42.919  53.662  1.00  0.00     0.157 HD
HETATM   41  H   UNL     1      29.755  41.877  53.524  1.00  0.00     0.157 HD
ENDBRANCH  11  39
TORSDOF 10
ENDMDL
MODEL 2
REMARK VINA RESULT:      -9.0      1.798      2.385
REMARK  10 active torsions:
REMARK  status: ('A' for Active; 'I' for Inactive)
REMARK    1  A    between atoms: C_9  and  S_10 
REMARK    2  A    between atoms: S_10  and  C_11 
REMARK    3  A    between atoms: C_11  and  C_12 
REMARK       I    between atoms: C_12  and  N_13 
REMARK    4  A    between atoms: N_13  and  C_14 
REMARK    5  A    between atoms: C_14  and  C_15 
REMARK    6  A    between atoms: C_15  and  C_16 
REMARK    7  A    between atoms: C_19  and  S_20 
REMARK    8  A    between atoms: S_20  and  N_21 
REMARK    9  A    between atoms: N_27  and  C_28 
REMARK   10  A    between atoms: C_35  and  N_36 
ROOT
HETATM    1  C   UNL     1      30.535  43.156  55.178  1.00  0.00     0.073 C 
HETATM    2  C   UNL     1      29.415  43.965  54.630  1.00  0.00     0.068 A 
HETATM    3  N   UNL     1      29.078  45.107  55.241  1.00  0.00    -0.177 NA
HETATM    4  N   UNL     1      28.034  45.565  54.536  1.00  0.00    -0.260 N 
HETATM    5  H   UNL     1      27.590  46.432  54.821  1.00  0.00     0.191 HD
HETATM    6  C   UNL     1      27.688  44.747  53.499  1.00  0.00     0.162 A 
HETATM    7  C   UNL     1      28.582  43.696  53.502  1.00  0.00     0.081 A 
HETATM    8  N   UNL     1      26.668  44.928  52.661  1.00  0.00    -0.204 NA
HETATM    9  C   UNL     1      26.573  43.928  51.756  1.00  0.00     0.177 A 
HETATM   10  N   UNL     1      27.417  42.860  51.676  1.00  0.00    -0.276 N 
HETATM   11  C   UNL     1      28.476  42.698  52.518  1.00  0.00     0.124 A 
ENDROOT
BRANCH   9  12
HETATM   12  S   UNL     1      25.084  44.042  50.747  1.00  0.00    -0.082 SA
BRANCH  12  13
HETATM   13  C   UNL     1      24.642  45.783  51.063  1.00  0.00     0.185 C 
BRANCH  13  14
HETATM   14  C   UNL     1      25.244  46.693  50.001  1.00  0.00     0.227 C 
HETATM   15  N   UNL     1      24.731  47.972  50.000  1.00  0.00    -0.360 N 
HETATM   16  H   UNL     1      24.198  48.277  50.808  1.00  0.00     0.162 HD
HETATM   17  O   UNL     1      26.106  46.303  49.212  1.00  0.00    -0.273 OA
BRANCH  15  18
HETATM   18  C   UNL     1      25.262  49.018  49.139  1.00  0.00     0.127 C 
BRANCH  18  19
HETATM   19  C   UNL     1      24.220  49.490  48.122  1.00  0.00     0.058 C 
BRANCH  19  20
HETATM   20  C   UNL     1      22.821  49.463  48.684  1.00  0.00    -0.057 A 
HETATM   21  C   UNL     1      21.960  48.393  48.401  1.00  0.00     0.009 A 
HETATM   22  C   UNL     1      20.658  48.380  48.907  1.00  0.00     0.025 A 
HETATM   23  C   UNL     1      20.217  49.439  49.704  1.00  0.00     0.074 A 
HETATM   24  C   UNL     1      21.059  50.518  49.982  1.00  0.00     0.025 A 
HETATM   25  C   UNL     1      22.359  50.525  49.475  1.00  0.00     0.009 A 
BRANCH  23  26
HETATM   26  S   UNL     1      18.551  49.455  50.299  1.00  0.00     0.239 S 
HETATM   27  O   UNL     1      18.104  50.824  50.409  1.00  0.00    -0.206 OA
HETATM   28  O   UNL     1      17.793  48.445  49.598  1.00  0.00    -0.206 OA
BRANCH  26  29
HETATM   29  N   UNL     1      18.736  48.894  51.870  1.00  0.00    -0.225 NA
HETATM   30  H   UNL     1      17.821  48.695  52.277  1.00  0.00     0.136 HD
HETATM   31  H   UNL     1      19.367  48.091  51.880  1.00  0.00     0.136 HD
ENDBRANCH  26  29
ENDBRANCH  23  26
ENDBRANCH  19  20
ENDBRANCH  18  19
ENDBRANCH  15  18
ENDBRANCH  13  14
ENDBRANCH  12  13
ENDBRANCH   9  12
BRANCH  10  32
HETATM   32  C   UNL     1      27.164  41.838  50.702  1.00  0.00     0.043 A 
HETATM   33  C   UNL     1      27.689  41.977  49.416  1.00  0.00     0.031 A 
HETATM   34  C   UNL     1      27.461  40.961  48.486  1.00  0.00     0.021 A 
HETATM   35  C   UNL     1      26.733  39.828  48.858  1.00  0.00     0.011 A 
HETATM   36 BR   UNL     1      26.432  38.457  47.593  1.00  0.00    -0.051 Br
HETATM   37  C   UNL     1      26.231  39.692  50.156  1.00  0.00     0.021 A 
HETATM   38  C   UNL     1      26.448  40.702  51.093  1.00  0.00     0.031 A 
ENDBRANCH  10  32
BRANCH  11  39
HETATM   39  N   UNL     1      29.355  41.622  52.436  1.00  0.00    -0.384 N 
HETATM   40  H   UNL     1      29.823  41.276  53.266  1.00  0.00     0.157 HD
HETATM   41  H   UNL     1      29.147  40.896  51.756  1.00  0.00     0.157 HD
ENDBRANCH  11  39
TORSDOF 10
ENDMDL
MODEL 3
REMARK VINA RESULT:      -8.7      2.992      5.080
REMARK  10 active torsions:
REMARK  status: ('A' for Active; 'I' for Inactive)
REMARK    1  A    between atoms: C_9  and  S_10 
REMARK    2  A    between atoms: S_10  and  C_11 
REMARK    3  A    between atoms: C_11  and  C_12 
REMARK       I    between atoms: C_12  and  N_13 
REMARK    4  A    between atoms: N_13  and  C_14 
REMARK    5  A    between atoms: C_14  and  C_15 
REMARK    6  A    between atoms: C_15  and  C_16 
REMARK    7  A    between atoms: C_19  and  S_20 
REMARK    8  A    between atoms: S_20  and  N_21 
REMARK    9  A    between atoms: N_27  and  C_28 
REMARK   10  A    between atoms: C_35  and  N_36 
ROOT
HETATM    1  C   UNL     1      26.586  39.125  49.708  1.00  0.00     0.073 C 
HETATM    2  C   UNL     1      26.126  40.484  49.318  1.00  0.00     0.068 A 
HETATM    3  N   UNL     1      25.568  40.661  48.115  1.00  0.00    -0.177 NA
HETATM    4  N   UNL     1      25.304  41.975  48.063  1.00  0.00    -0.260 N 
HETATM    5  H   UNL     1      24.878  42.358  47.225  1.00  0.00     0.191 HD
HETATM    6  C   UNL     1      25.685  42.643  49.191  1.00  0.00     0.162 A 
HETATM    7  C   UNL     1      26.207  41.704  50.057  1.00  0.00     0.081 A 
HETATM    8  N   UNL     1      25.585  43.955  49.400  1.00  0.00    -0.204 NA
HETATM    9  C   UNL     1      26.074  44.314  50.608  1.00  0.00     0.177 A 
HETATM   10  N   UNL     1      26.595  43.455  51.530  1.00  0.00    -0.276 N 
HETATM   11  C   UNL     1      26.665  42.110  51.321  1.00  0.00     0.124 A 
ENDROOT
BRANCH   9  12
HETATM   12  S   UNL     1      26.141  46.102  50.828  1.00  0.00    -0.082 SA
BRANCH  12  13
HETATM   13  C   UNL     1      24.433  46.525  50.349  1.00  0.00     0.185 C 
BRANCH  13  14
HETATM   14  C   UNL     1      24.371  47.930  49.765  1.00  0.00     0.227 C 
HETATM   15  N   UNL     1      23.095  48.362  49.476  1.00  0.00    -0.360 N 
HETATM   16  H   UNL     1      22.313  47.850  49.869  1.00  0.00     0.162 HD
HETATM   17  O   UNL     1      25.381  48.605  49.565  1.00  0.00    -0.273 OA
BRANCH  15  18
HETATM   18  C   UNL     1      22.821  49.718  49.022  1.00  0.00     0.127 C 
BRANCH  18  19
HETATM   19  C   UNL     1      22.058  50.520  50.079  1.00  0.00     0.058 C 
BRANCH  19  20
HETATM   20  C   UNL     1      20.661  50.871  49.631  1.00  0.00    -0.057 A 
HETATM   21  C   UNL     1      20.456  51.655  48.487  1.00  0.00     0.009 A 
HETATM   22  C   UNL     1      19.162  51.995  48.085  1.00  0.00     0.025 A 
HETATM   23  C   UNL     1      18.068  51.544  48.828  1.00  0.00     0.074 A 
HETATM   24  C   UNL     1      18.258  50.774  49.977  1.00  0.00     0.025 A 
HETATM   25  C   UNL     1      19.553  50.436  50.373  1.00  0.00     0.009 A 
BRANCH  23  26
HETATM   26  S   UNL     1      16.430  52.019  48.356  1.00  0.00     0.239 S 
HETATM   27  O   UNL     1      16.436  52.407  46.964  1.00  0.00    -0.206 OA
HETATM   28  O   UNL     1      15.492  51.061  48.890  1.00  0.00    -0.206 OA
BRANCH  26  29
HETATM   29  N   UNL     1      16.209  53.431  49.235  1.00  0.00    -0.225 NA
HETATM   30  H   UNL     1      15.237  53.503  49.536  1.00  0.00     0.136 HD
HETATM   31  H   UNL     1      16.876  53.468  50.007  1.00  0.00     0.136 HD
ENDBRANCH  26  29
ENDBRANCH  23  26
ENDBRANCH  19  20
ENDBRANCH  18  19
ENDBRANCH  15  18
ENDBRANCH  13  14
ENDBRANCH  12  13
ENDBRANCH   9  12
BRANCH  10  32
HETATM   32  C   UNL     1      27.134  43.980  52.751  1.00  0.00     0.043 A 
HETATM   33  C   UNL     1      28.515  43.953  52.954  1.00  0.00     0.031 A 
HETATM   34  C   UNL     1      29.030  44.494  54.133  1.00  0.00     0.021 A 
HETATM   35  C   UNL     1      28.166  45.060  55.073  1.00  0.00     0.011 A 
HETATM   36 BR   UNL     1      28.872  45.792  56.666  1.00  0.00    -0.051 Br
HETATM   37  C   UNL     1      26.786  45.100  54.848  1.00  0.00     0.021 A 
HETATM   38  C   UNL     1      26.259  44.558  53.676  1.00  0.00     0.031 A 
ENDBRANCH  10  32
BRANCH  11  39
HETATM   39  N   UNL     1      27.178  41.221  52.261  1.00  0.00    -0.384 N 
HETATM   40  H   UNL     1      26.686  41.052  53.131  1.00  0.00     0.157 HD
HETATM   41  H   UNL     1      27.679  40.408  51.915  1.00  0.00     0.157 HD
ENDBRANCH  11  39
TORSDOF 10
ENDMDL
MODEL 4
REMARK VINA RESULT:      -8.6      6.494     11.196
REMARK  10 active torsions:
REMARK  status: ('A' for Active; 'I' for Inactive)
REMARK    1  A    between atoms: C_9  and  S_10 
REMARK    2  A    between atoms: S_10  and  C_11 
REMARK    3  A    between atoms: C_11  and  C_12 
REMARK       I    between atoms: C_12  and  N_13 
REMARK    4  A    between atoms: N_13  and  C_14 
REMARK    5  A    between atoms: C_14  and  C_15 
REMARK    6  A    between atoms: C_15  and  C_16 
REMARK    7  A    between atoms: C_19  and  S_20 
REMARK    8  A    between atoms: S_20  and  N_21 
REMARK    9  A    between atoms: N_27  and  C_28 
REMARK   10  A    between atoms: C_35  and  N_36 
ROOT
HETATM    1  C   UNL     1      18.360  44.349  45.671  1.00  0.00     0.073 C 
HETATM    2  C   UNL     1      18.611  45.127  46.913  1.00  0.00     0.068 A 
HETATM    3  N   UNL     1      19.096  44.495  47.989  1.00  0.00    -0.177 NA
HETATM    4  N   UNL     1      19.171  45.450  48.927  1.00  0.00    -0.260 N 
HETATM    5  H   UNL     1      19.509  45.205  49.852  1.00  0.00     0.191 HD
HETATM    6  C   UNL     1      18.741  46.669  48.487  1.00  0.00     0.162 A 
HETATM    7  C   UNL     1      18.387  46.515  47.162  1.00  0.00     0.081 A 
HETATM    8  N   UNL     1      18.663  47.784  49.211  1.00  0.00    -0.204 NA
HETATM    9  C   UNL     1      18.172  48.821  48.495  1.00  0.00     0.177 A 
HETATM   10  N   UNL     1      17.811  48.763  47.182  1.00  0.00    -0.276 N 
HETATM   11  C   UNL     1      17.922  47.626  46.439  1.00  0.00     0.124 A 
ENDROOT
BRANCH   9  12
HETATM   12  S   UNL     1      17.864  50.281  49.505  1.00  0.00    -0.082 SA
BRANCH  12  13
HETATM   13  C   UNL     1      19.423  50.325  50.450  1.00  0.00     0.185 C 
BRANCH  13  14
HETATM   14  C   UNL     1      20.530  50.977  49.632  1.00  0.00     0.227 C 
HETATM   15  N   UNL     1      21.803  50.653  50.050  1.00  0.00    -0.360 N 
HETATM   16  H   UNL     1      21.917  49.864  50.677  1.00  0.00     0.162 HD
HETATM   17  O   UNL     1      20.294  51.733  48.690  1.00  0.00    -0.273 OA
BRANCH  15  18
HETATM   18  C   UNL     1      22.988  51.083  49.323  1.00  0.00     0.127 C 
BRANCH  18  19
HETATM   19  C   UNL     1      23.253  50.192  48.107  1.00  0.00     0.058 C 
BRANCH  19  20
HETATM   20  C   UNL     1      23.279  48.728  48.466  1.00  0.00    -0.057 A 
HETATM   21  C   UNL     1      24.229  48.233  49.371  1.00  0.00     0.009 A 
HETATM   22  C   UNL     1      24.263  46.872  49.687  1.00  0.00     0.025 A 
HETATM   23  C   UNL     1      23.340  46.004  49.099  1.00  0.00     0.074 A 
HETATM   24  C   UNL     1      22.397  46.481  48.186  1.00  0.00     0.025 A 
HETATM   25  C   UNL     1      22.367  47.841  47.875  1.00  0.00     0.009 A 
BRANCH  23  26
HETATM   26  S   UNL     1      23.416  44.272  49.452  1.00  0.00     0.239 S 
HETATM   27  O   UNL     1      24.407  43.661  48.598  1.00  0.00    -0.206 OA
HETATM   28  O   UNL     1      23.405  44.085  50.885  1.00  0.00    -0.206 OA
BRANCH  26  29
HETATM   29  N   UNL     1      21.925  43.737  48.899  1.00  0.00    -0.225 NA
HETATM   30  H   UNL     1      21.203  43.948  49.590  1.00  0.00     0.136 HD
HETATM   31  H   UNL     1      21.733  44.134  47.979  1.00  0.00     0.136 HD
ENDBRANCH  26  29
ENDBRANCH  23  26
ENDBRANCH  19  20
ENDBRANCH  18  19
ENDBRANCH  15  18
ENDBRANCH  13  14
ENDBRANCH  12  13
ENDBRANCH   9  12
BRANCH  10  32
HETATM   32  C   UNL     1      17.247  49.926  46.558  1.00  0.00     0.043 A 
HETATM   33  C   UNL     1      15.866  50.126  46.611  1.00  0.00     0.031 A 
HETATM   34  C   UNL     1      15.334  51.276  46.028  1.00  0.00     0.021 A 
HETATM   35  C   UNL     1      16.183  52.206  45.420  1.00  0.00     0.011 A 
HETATM   36 BR   UNL     1      15.452  53.761  44.635  1.00  0.00    -0.051 Br
HETATM   37  C   UNL     1      17.566  52.003  45.394  1.00  0.00     0.021 A 
HETATM   38  C   UNL     1      18.110  50.855  45.969  1.00  0.00     0.031 A 
ENDBRANCH  10  32
BRANCH  11  39
HETATM   39  N   UNL     1      17.572  47.560  45.093  1.00  0.00    -0.384 N 
HETATM   40  H   UNL     1      18.286  47.453  44.382  1.00  0.00     0.157 HD
HETATM   41  H   UNL     1      16.694  47.107  44.858  1.00  0.00     0.157 HD
ENDBRANCH  11  39
TORSDOF 10
ENDMDL
MODEL 5
REMARK VINA RESULT:      -8.6      3.084      4.716
REMARK  10 active torsions:
REMARK  status: ('A' for Active; 'I' for Inactive)
REMARK    1  A    between atoms: C_9  and  S_10 
REMARK    2  A    between atoms: S_10  and  C_11 
REMARK    3  A    between atoms: C_11  and  C_12 
REMARK       I    between atoms: C_12  and  N_13 
REMARK    4  A    between atoms: N_13  and  C_14 
REMARK    5  A    between atoms: C_14  and  C_15 
REMARK    6  A    between atoms: C_15  and  C_16 
REMARK    7  A    between atoms: C_19  and  S_20 
REMARK    8  A    between atoms: S_20  and  N_21 
REMARK    9  A    between atoms: N_27  and  C_28 
REMARK   10  A    between atoms: C_35  and  N_36 
ROOT
HETATM    1  C   UNL     1      28.137  45.274  55.390  1.00  0.00     0.073 C 
HETATM    2  C   UNL     1      27.609  44.369  54.336  1.00  0.00     0.068 A 
HETATM    3  N   UNL     1      27.792  43.049  54.460  1.00  0.00    -0.177 NA
HETATM    4  N   UNL     1      27.243  42.533  53.352  1.00  0.00    -0.260 N 
HETATM    5  H   UNL     1      27.267  41.528  53.213  1.00  0.00     0.191 HD
HETATM    6  C   UNL     1      26.723  43.482  52.519  1.00  0.00     0.162 A 
HETATM    7  C   UNL     1      26.915  44.702  53.133  1.00  0.00     0.081 A 
HETATM    8  N   UNL     1      26.156  43.262  51.333  1.00  0.00    -0.204 NA
HETATM    9  C   UNL     1      25.764  44.412  50.739  1.00  0.00     0.177 A 
HETATM   10  N   UNL     1      25.901  45.658  51.276  1.00  0.00    -0.276 N 
HETATM   11  C   UNL     1      26.454  45.870  52.504  1.00  0.00     0.124 A 
ENDROOT
BRANCH   9  12
HETATM   12  S   UNL     1      25.186  44.161  49.051  1.00  0.00    -0.082 SA
BRANCH  12  13
HETATM   13  C   UNL     1      24.149  42.683  49.307  1.00  0.00     0.185 C 
BRANCH  13  14
HETATM   14  C   UNL     1      22.893  42.751  48.449  1.00  0.00     0.227 C 
HETATM   15  N   UNL     1      22.481  44.033  48.157  1.00  0.00    -0.360 N 
HETATM   16  H   UNL     1      23.132  44.796  48.315  1.00  0.00     0.162 HD
HETATM   17  O   UNL     1      22.302  41.741  48.065  1.00  0.00    -0.273 OA
BRANCH  15  18
HETATM   18  C   UNL     1      21.372  44.303  47.253  1.00  0.00     0.127 C 
BRANCH  18  19
HETATM   19  C   UNL     1      21.470  45.705  46.648  1.00  0.00     0.058 C 
BRANCH  19  20
HETATM   20  C   UNL     1      20.820  46.750  47.520  1.00  0.00    -0.057 A 
HETATM   21  C   UNL     1      19.947  46.375  48.551  1.00  0.00     0.009 A 
HETATM   22  C   UNL     1      19.331  47.347  49.344  1.00  0.00     0.025 A 
HETATM   23  C   UNL     1      19.595  48.698  49.109  1.00  0.00     0.074 A 
HETATM   24  C   UNL     1      20.453  49.086  48.077  1.00  0.00     0.025 A 
HETATM   25  C   UNL     1      21.065  48.112  47.288  1.00  0.00     0.009 A 
BRANCH  23  26
HETATM   26  S   UNL     1      18.774  49.934  50.074  1.00  0.00     0.239 S 
HETATM   27  O   UNL     1      17.634  50.425  49.337  1.00  0.00    -0.206 OA
HETATM   28  O   UNL     1      18.676  49.473  51.440  1.00  0.00    -0.206 OA
BRANCH  26  29
HETATM   29  N   UNL     1      19.901  51.177  50.081  1.00  0.00    -0.225 NA
HETATM   30  H   UNL     1      20.094  51.475  49.124  1.00  0.00     0.136 HD
HETATM   31  H   UNL     1      19.578  51.935  50.684  1.00  0.00     0.136 HD
ENDBRANCH  26  29
ENDBRANCH  23  26
ENDBRANCH  19  20
ENDBRANCH  18  19
ENDBRANCH  15  18
ENDBRANCH  13  14
ENDBRANCH  12  13
ENDBRANCH   9  12
BRANCH  10  32
HETATM   32  C   UNL     1      25.494  46.800  50.509  1.00  0.00     0.043 A 
HETATM   33  C   UNL     1      26.466  47.585  49.886  1.00  0.00     0.031 A 
HETATM   34  C   UNL     1      26.055  48.675  49.118  1.00  0.00     0.021 A 
HETATM   35  C   UNL     1      24.693  48.952  48.975  1.00  0.00     0.011 A 
HETATM   36 BR   UNL     1      24.146  50.429  47.932  1.00  0.00    -0.051 Br
HETATM   37  C   UNL     1      23.729  48.145  49.588  1.00  0.00     0.021 A 
HETATM   38  C   UNL     1      24.127  47.055  50.362  1.00  0.00     0.031 A 
ENDBRANCH  10  32
BRANCH  11  39
HETATM   39  N   UNL     1      26.584  47.136  53.069  1.00  0.00    -0.384 N 
HETATM   40  H   UNL     1      25.892  47.854  52.886  1.00  0.00     0.157 HD
HETATM   41  H   UNL     1      26.996  47.197  53.995  1.00  0.00     0.157 HD
ENDBRANCH  11  39
TORSDOF 10
ENDMDL
MODEL 6
REMARK VINA RESULT:      -8.5      1.844      2.687
REMARK  10 active torsions:
REMARK  status: ('A' for Active; 'I' for Inactive)
REMARK    1  A    between atoms: C_9  and  S_10 
REMARK    2  A    between atoms: S_10  and  C_11 
REMARK    3  A    between atoms: C_11  and  C_12 
REMARK       I    between atoms: C_12  and  N_13 
REMARK    4  A    between atoms: N_13  and  C_14 
REMARK    5  A    between atoms: C_14  and  C_15 
REMARK    6  A    between atoms: C_15  and  C_16 
REMARK    7  A    between atoms: C_19  and  S_20 
REMARK    8  A    between atoms: S_20  and  N_21 
REMARK    9  A    between atoms: N_27  and  C_28 
REMARK   10  A    between atoms: C_35  and  N_36 
ROOT
HETATM    1  C   UNL     1      30.262  43.299  54.961  1.00  0.00     0.073 C 
HETATM    2  C   UNL     1      29.121  44.051  54.375  1.00  0.00     0.068 A 
HETATM    3  N   UNL     1      28.730  45.193  54.952  1.00  0.00    -0.177 NA
HETATM    4  N   UNL     1      27.681  45.593  54.219  1.00  0.00    -0.260 N 
HETATM    5  H   UNL     1      27.200  46.449  54.475  1.00  0.00     0.191 HD
HETATM    6  C   UNL     1      27.384  44.736  53.198  1.00  0.00     0.162 A 
HETATM    7  C   UNL     1      28.317  43.721  53.241  1.00  0.00     0.081 A 
HETATM    8  N   UNL     1      26.372  44.858  52.340  1.00  0.00    -0.204 NA
HETATM    9  C   UNL     1      26.330  43.833  51.459  1.00  0.00     0.177 A 
HETATM   10  N   UNL     1      27.216  42.797  51.419  1.00  0.00    -0.276 N 
HETATM   11  C   UNL     1      28.266  42.697  52.282  1.00  0.00     0.124 A 
ENDROOT
BRANCH   9  12
HETATM   12  S   UNL     1      24.855  43.864  50.424  1.00  0.00    -0.082 SA
BRANCH  12  13
HETATM   13  C   UNL     1      25.037  45.527  49.697  1.00  0.00     0.185 C 
BRANCH  13  14
HETATM   14  C   UNL     1      23.680  46.089  49.294  1.00  0.00     0.227 C 
HETATM   15  N   UNL     1      23.649  47.463  49.190  1.00  0.00    -0.360 N 
HETATM   16  H   UNL     1      24.532  47.962  49.152  1.00  0.00     0.162 HD
HETATM   17  O   UNL     1      22.703  45.368  49.092  1.00  0.00    -0.273 OA
BRANCH  15  18
HETATM   18  C   UNL     1      22.478  48.176  48.703  1.00  0.00     0.127 C 
BRANCH  18  19
HETATM   19  C   UNL     1      22.402  49.591  49.281  1.00  0.00     0.058 C 
BRANCH  19  20
HETATM   20  C   UNL     1      21.012  50.168  49.199  1.00  0.00    -0.057 A 
HETATM   21  C   UNL     1      20.793  51.420  48.605  1.00  0.00     0.009 A 
HETATM   22  C   UNL     1      19.506  51.961  48.548  1.00  0.00     0.025 A 
HETATM   23  C   UNL     1      18.433  51.244  49.081  1.00  0.00     0.074 A 
HETATM   24  C   UNL     1      18.637  50.003  49.688  1.00  0.00     0.025 A 
HETATM   25  C   UNL     1      19.924  49.467  49.741  1.00  0.00     0.009 A 
BRANCH  23  26
HETATM   26  S   UNL     1      16.810  51.950  49.062  1.00  0.00     0.239 S 
HETATM   27  O   UNL     1      15.836  50.888  48.972  1.00  0.00    -0.206 OA
HETATM   28  O   UNL     1      16.738  52.986  50.066  1.00  0.00    -0.206 OA
BRANCH  26  29
HETATM   29  N   UNL     1      16.787  52.734  47.579  1.00  0.00    -0.225 NA
HETATM   30  H   UNL     1      17.702  53.145  47.390  1.00  0.00     0.136 HD
HETATM   31  H   UNL     1      16.475  52.091  46.850  1.00  0.00     0.136 HD
ENDBRANCH  26  29
ENDBRANCH  23  26
ENDBRANCH  19  20
ENDBRANCH  18  19
ENDBRANCH  15  18
ENDBRANCH  13  14
ENDBRANCH  12  13
ENDBRANCH   9  12
BRANCH  10  32
HETATM   32  C   UNL     1      27.018  41.741  50.467  1.00  0.00     0.043 A 
HETATM   33  C   UNL     1      27.519  41.889  49.172  1.00  0.00     0.031 A 
HETATM   34  C   UNL     1      27.346  40.843  48.265  1.00  0.00     0.021 A 
HETATM   35  C   UNL     1      26.697  39.673  48.667  1.00  0.00     0.011 A 
HETATM   36 BR   UNL     1      26.470  38.261  47.432  1.00  0.00    -0.051 Br
HETATM   37  C   UNL     1      26.219  39.530  49.973  1.00  0.00     0.021 A 
HETATM   38  C   UNL     1      26.381  40.570  50.888  1.00  0.00     0.031 A 
ENDBRANCH  10  32
BRANCH  11  39
HETATM   39  N   UNL     1      29.187  41.653  52.240  1.00  0.00    -0.384 N 
HETATM   40  H   UNL     1      30.175  41.844  52.120  1.00  0.00     0.157 HD
HETATM   41  H   UNL     1      28.998  40.837  52.815  1.00  0.00     0.157 HD
ENDBRANCH  11  39
TORSDOF 10
ENDMDL
MODEL 7
REMARK VINA RESULT:      -8.4      2.066      2.995
REMARK  10 active torsions:
REMARK  status: ('A' for Active; 'I' for Inactive)
REMARK    1  A    between atoms: C_9  and  S_10 
REMARK    2  A    between atoms: S_10  and  C_11 
REMARK    3  A    between atoms: C_11  and  C_12 
REMARK       I    between atoms: C_12  and  N_13 
REMARK    4  A    between atoms: N_13  and  C_14 
REMARK    5  A    between atoms: C_14  and  C_15 
REMARK    6  A    between atoms: C_15  and  C_16 
REMARK    7  A    between atoms: C_19  and  S_20 
REMARK    8  A    between atoms: S_20  and  N_21 
REMARK    9  A    between atoms: N_27  and  C_28 
REMARK   10  A    between atoms: C_35  and  N_36 
ROOT
HETATM    1  C   UNL     1      29.622  43.578  54.811  1.00  0.00     0.073 C 
HETATM    2  C   UNL     1      28.339  43.983  54.179  1.00  0.00     0.068 A 
HETATM    3  N   UNL     1      27.619  44.963  54.739  1.00  0.00    -0.177 NA
HETATM    4  N   UNL     1      26.529  45.057  53.965  1.00  0.00    -0.260 N 
HETATM    5  H   UNL     1      25.816  45.740  54.200  1.00  0.00     0.191 HD
HETATM    6  C   UNL     1      26.525  44.162  52.934  1.00  0.00     0.162 A 
HETATM    7  C   UNL     1      27.705  43.451  53.015  1.00  0.00     0.081 A 
HETATM    8  N   UNL     1      25.554  44.001  52.036  1.00  0.00    -0.204 NA
HETATM    9  C   UNL     1      25.837  43.015  51.156  1.00  0.00     0.177 A 
HETATM   10  N   UNL     1      26.980  42.271  51.153  1.00  0.00    -0.276 N 
HETATM   11  C   UNL     1      27.982  42.464  52.056  1.00  0.00     0.124 A 
ENDROOT
BRANCH   9  12
HETATM   12  S   UNL     1      24.453  42.639  50.063  1.00  0.00    -0.082 SA
BRANCH  12  13
HETATM   13  C   UNL     1      24.657  43.986  48.851  1.00  0.00     0.185 C 
BRANCH  13  14
HETATM   14  C   UNL     1      23.909  45.233  49.302  1.00  0.00     0.227 C 
HETATM   15  N   UNL     1      24.728  46.254  49.732  1.00  0.00    -0.360 N 
HETATM   16  H   UNL     1      25.716  46.206  49.507  1.00  0.00     0.162 HD
HETATM   17  O   UNL     1      22.680  45.305  49.288  1.00  0.00    -0.273 OA
BRANCH  15  18
HETATM   18  C   UNL     1      24.207  47.565  50.090  1.00  0.00     0.127 C 
BRANCH  18  19
HETATM   19  C   UNL     1      24.025  48.452  48.856  1.00  0.00     0.058 C 
BRANCH  19  20
HETATM   20  C   UNL     1      22.704  49.179  48.865  1.00  0.00    -0.057 A 
HETATM   21  C   UNL     1      22.660  50.580  48.800  1.00  0.00     0.009 A 
HETATM   22  C   UNL     1      21.436  51.251  48.828  1.00  0.00     0.025 A 
HETATM   23  C   UNL     1      20.249  50.520  48.915  1.00  0.00     0.074 A 
HETATM   24  C   UNL     1      20.278  49.125  48.995  1.00  0.00     0.025 A 
HETATM   25  C   UNL     1      21.504  48.459  48.965  1.00  0.00     0.009 A 
BRANCH  23  26
HETATM   26  S   UNL     1      18.699  51.368  49.008  1.00  0.00     0.239 S 
HETATM   27  O   UNL     1      18.098  51.109  50.295  1.00  0.00    -0.206 OA
HETATM   28  O   UNL     1      18.864  52.704  48.483  1.00  0.00    -0.206 OA
BRANCH  26  29
HETATM   29  N   UNL     1      17.776  50.534  47.883  1.00  0.00    -0.225 NA
HETATM   30  H   UNL     1      16.857  50.970  47.796  1.00  0.00     0.136 HD
HETATM   31  H   UNL     1      18.280  50.472  46.997  1.00  0.00     0.136 HD
ENDBRANCH  26  29
ENDBRANCH  23  26
ENDBRANCH  19  20
ENDBRANCH  18  19
ENDBRANCH  15  18
ENDBRANCH  13  14
ENDBRANCH  12  13
ENDBRANCH   9  12
BRANCH  10  32
HETATM   32  C   UNL     1      27.125  41.213  50.195  1.00  0.00     0.043 A 
HETATM   33  C   UNL     1      26.701  39.926  50.532  1.00  0.00     0.031 A 
HETATM   34  C   UNL     1      26.820  38.912  49.581  1.00  0.00     0.021 A 
HETATM   35  C   UNL     1      27.341  39.201  48.316  1.00  0.00     0.011 A 
HETATM   36 BR   UNL     1      27.496  37.821  47.034  1.00  0.00    -0.051 Br
HETATM   37  C   UNL     1      27.742  40.499  47.985  1.00  0.00     0.021 A 
HETATM   38  C   UNL     1      27.632  41.520  48.929  1.00  0.00     0.031 A 
ENDBRANCH  10  32
BRANCH  11  39
HETATM   39  N   UNL     1      29.161  41.723  52.052  1.00  0.00    -0.384 N 
HETATM   40  H   UNL     1      29.138  40.722  51.889  1.00  0.00     0.157 HD
HETATM   41  H   UNL     1      29.997  42.172  51.694  1.00  0.00     0.157 HD
ENDBRANCH  11  39
TORSDOF 10
ENDMDL
MODEL 8
REMARK VINA RESULT:      -8.2      4.145     10.332
REMARK  10 active torsions:
REMARK  status: ('A' for Active; 'I' for Inactive)
REMARK    1  A    between atoms: C_9  and  S_10 
REMARK    2  A    between atoms: S_10  and  C_11 
REMARK    3  A    between atoms: C_11  and  C_12 
REMARK       I    between atoms: C_12  and  N_13 
REMARK    4  A    between atoms: N_13  and  C_14 
REMARK    5  A    between atoms: C_14  and  C_15 
REMARK    6  A    between atoms: C_15  and  C_16 
REMARK    7  A    between atoms: C_19  and  S_20 
REMARK    8  A    between atoms: S_20  and  N_21 
REMARK    9  A    between atoms: N_27  and  C_28 
REMARK   10  A    between atoms: C_35  and  N_36 
ROOT
HETATM    1  C   UNL     1      17.542  51.681  49.946  1.00  0.00     0.073 C 
HETATM    2  C   UNL     1      17.723  50.501  49.060  1.00  0.00     0.068 A 
HETATM    3  N   UNL     1      16.641  49.872  48.586  1.00  0.00    -0.177 NA
HETATM    4  N   UNL     1      17.137  48.854  47.868  1.00  0.00    -0.260 N 
HETATM    5  H   UNL     1      16.495  48.217  47.409  1.00  0.00     0.191 HD
HETATM    6  C   UNL     1      18.502  48.810  47.875  1.00  0.00     0.162 A 
HETATM    7  C   UNL     1      18.935  49.885  48.622  1.00  0.00     0.081 A 
HETATM    8  N   UNL     1      19.261  47.887  47.285  1.00  0.00    -0.204 NA
HETATM    9  C   UNL     1      20.579  48.105  47.498  1.00  0.00     0.177 A 
HETATM   10  N   UNL     1      21.096  49.146  48.210  1.00  0.00    -0.276 N 
HETATM   11  C   UNL     1      20.313  50.102  48.784  1.00  0.00     0.124 A 
ENDROOT
BRANCH   9  12
HETATM   12  S   UNL     1      21.614  46.761  46.888  1.00  0.00    -0.082 SA
BRANCH  12  13
HETATM   13  C   UNL     1      21.511  45.633  48.317  1.00  0.00     0.185 C 
BRANCH  13  14
HETATM   14  C   UNL     1      22.787  44.814  48.449  1.00  0.00     0.227 C 
HETATM   15  N   UNL     1      23.376  44.887  49.693  1.00  0.00    -0.360 N 
HETATM   16  H   UNL     1      22.830  45.260  50.462  1.00  0.00     0.162 HD
HETATM   17  O   UNL     1      23.247  44.156  47.515  1.00  0.00    -0.273 OA
BRANCH  15  18
HETATM   18  C   UNL     1      24.536  44.083  50.048  1.00  0.00     0.127 C 
BRANCH  18  19
HETATM   19  C   UNL     1      24.468  43.613  51.503  1.00  0.00     0.058 C 
BRANCH  19  20
HETATM   20  C   UNL     1      25.224  44.527  52.434  1.00  0.00    -0.057 A 
HETATM   21  C   UNL     1      25.524  44.121  53.743  1.00  0.00     0.009 A 
HETATM   22  C   UNL     1      26.208  44.977  54.610  1.00  0.00     0.025 A 
HETATM   23  C   UNL     1      26.599  46.242  54.164  1.00  0.00     0.074 A 
HETATM   24  C   UNL     1      26.295  46.665  52.867  1.00  0.00     0.025 A 
HETATM   25  C   UNL     1      25.613  45.805  52.006  1.00  0.00     0.009 A 
BRANCH  23  26
HETATM   26  S   UNL     1      27.415  47.351  55.275  1.00  0.00     0.239 S 
HETATM   27  O   UNL     1      27.888  46.607  56.419  1.00  0.00    -0.206 OA
HETATM   28  O   UNL     1      28.270  48.232  54.514  1.00  0.00    -0.206 OA
BRANCH  26  29
HETATM   29  N   UNL     1      26.141  48.296  55.824  1.00  0.00    -0.225 NA
HETATM   30  H   UNL     1      25.908  49.003  55.126  1.00  0.00     0.136 HD
HETATM   31  H   UNL     1      25.351  47.701  56.078  1.00  0.00     0.136 HD
ENDBRANCH  26  29
ENDBRANCH  23  26
ENDBRANCH  19  20
ENDBRANCH  18  19
ENDBRANCH  15  18
ENDBRANCH  13  14
ENDBRANCH  12  13
ENDBRANCH   9  12
BRANCH  10  32
HETATM   32  C   UNL     1      22.515  49.224  48.408  1.00  0.00     0.043 A 
HETATM   33  C   UNL     1      23.119  48.388  49.349  1.00  0.00     0.031 A 
HETATM   34  C   UNL     1      24.503  48.451  49.511  1.00  0.00     0.021 A 
HETATM   35  C   UNL     1      25.256  49.330  48.727  1.00  0.00     0.011 A 
HETATM   36 BR   UNL     1      27.130  49.408  48.952  1.00  0.00    -0.051 Br
HETATM   37  C   UNL     1      24.640  50.147  47.773  1.00  0.00     0.021 A 
HETATM   38  C   UNL     1      23.257  50.095  47.605  1.00  0.00     0.031 A 
ENDBRANCH  10  32
BRANCH  11  39
HETATM   39  N   UNL     1      20.830  51.179  49.499  1.00  0.00    -0.384 N 
HETATM   40  H   UNL     1      21.251  51.963  49.014  1.00  0.00     0.157 HD
HETATM   41  H   UNL     1      20.360  51.441  50.361  1.00  0.00     0.157 HD
ENDBRANCH  11  39
TORSDOF 10
ENDMDL
MODEL 9
REMARK VINA RESULT:      -8.1      2.673      3.633
REMARK  10 active torsions:
REMARK  status: ('A' for Active; 'I' for Inactive)
REMARK    1  A    between atoms: C_9  and  S_10 
REMARK    2  A    between atoms: S_10  and  C_11 
REMARK    3  A    between atoms: C_11  and  C_12 
REMARK       I    between atoms: C_12  and  N_13 
REMARK    4  A    between atoms: N_13  and  C_14 
REMARK    5  A    between atoms: C_14  and  C_15 
REMARK    6  A    between atoms: C_15  and  C_16 
REMARK    7  A    between atoms: C_19  and  S_20 
REMARK    8  A    between atoms: S_20  and  N_21 
REMARK    9  A    between atoms: N_27  and  C_28 
REMARK   10  A    between atoms: C_35  and  N_36 
ROOT
HETATM    1  C   UNL     1      28.901  44.852  54.887  1.00  0.00     0.073 C 
HETATM    2  C   UNL     1      27.556  45.100  54.303  1.00  0.00     0.068 A 
HETATM    3  N   UNL     1      26.759  46.014  54.869  1.00  0.00    -0.177 NA
HETATM    4  N   UNL     1      25.634  45.970  54.142  1.00  0.00    -0.260 N 
HETATM    5  H   UNL     1      24.863  46.580  54.391  1.00  0.00     0.191 HD
HETATM    6  C   UNL     1      25.685  45.050  53.134  1.00  0.00     0.162 A 
HETATM    7  C   UNL     1      26.936  44.471  53.181  1.00  0.00     0.081 A 
HETATM    8  N   UNL     1      24.700  44.761  52.284  1.00  0.00    -0.204 NA
HETATM    9  C   UNL     1      25.051  43.785  51.416  1.00  0.00     0.177 A 
HETATM   10  N   UNL     1      26.266  43.167  51.381  1.00  0.00    -0.276 N 
HETATM   11  C   UNL     1      27.278  43.491  52.234  1.00  0.00     0.124 A 
ENDROOT
BRANCH   9  12
HETATM   12  S   UNL     1      23.673  43.232  50.395  1.00  0.00    -0.082 SA
BRANCH  12  13
HETATM   13  C   UNL     1      23.519  44.678  49.294  1.00  0.00     0.185 C 
BRANCH  13  14
HETATM   14  C   UNL     1      22.193  44.647  48.547  1.00  0.00     0.227 C 
HETATM   15  N   UNL     1      22.283  45.027  47.225  1.00  0.00    -0.360 N 
HETATM   16  H   UNL     1      23.202  45.064  46.797  1.00  0.00     0.162 HD
HETATM   17  O   UNL     1      21.138  44.321  49.092  1.00  0.00    -0.273 OA
BRANCH  15  18
HETATM   18  C   UNL     1      21.147  44.949  46.319  1.00  0.00     0.127 C 
BRANCH  18  19
HETATM   19  C   UNL     1      20.625  46.341  45.953  1.00  0.00     0.058 C 
BRANCH  19  20
HETATM   20  C   UNL     1      20.191  47.125  47.166  1.00  0.00    -0.057 A 
HETATM   21  C   UNL     1      18.986  46.821  47.816  1.00  0.00     0.009 A 
HETATM   22  C   UNL     1      18.577  47.562  48.928  1.00  0.00     0.025 A 
HETATM   23  C   UNL     1      19.378  48.606  49.394  1.00  0.00     0.074 A 
HETATM   24  C   UNL     1      20.574  48.928  48.748  1.00  0.00     0.025 A 
HETATM   25  C   UNL     1      20.979  48.185  47.639  1.00  0.00     0.009 A 
BRANCH  23  26
HETATM   26  S   UNL     1      18.837  49.583  50.767  1.00  0.00     0.239 S 
HETATM   27  O   UNL     1      17.917  50.591  50.293  1.00  0.00    -0.206 OA
HETATM   28  O   UNL     1      18.526  48.707  51.872  1.00  0.00    -0.206 OA
BRANCH  26  29
HETATM   29  N   UNL     1      20.241  50.395  51.194  1.00  0.00    -0.225 NA
HETATM   30  H   UNL     1      20.830  50.528  50.371  1.00  0.00     0.136 HD
HETATM   31  H   UNL     1      20.008  51.268  51.670  1.00  0.00     0.136 HD
ENDBRANCH  26  29
ENDBRANCH  23  26
ENDBRANCH  19  20
ENDBRANCH  18  19
ENDBRANCH  15  18
ENDBRANCH  13  14
ENDBRANCH  12  13
ENDBRANCH   9  12
BRANCH  10  32
HETATM   32  C   UNL     1      26.485  42.103  50.444  1.00  0.00     0.043 A 
HETATM   33  C   UNL     1      26.939  42.408  49.159  1.00  0.00     0.031 A 
HETATM   34  C   UNL     1      27.177  41.361  48.267  1.00  0.00     0.021 A 
HETATM   35  C   UNL     1      26.973  40.040  48.674  1.00  0.00     0.011 A 
HETATM   36 BR   UNL     1      27.300  38.630  47.460  1.00  0.00    -0.051 Br
HETATM   37  C   UNL     1      26.538  39.748  49.971  1.00  0.00     0.021 A 
HETATM   38  C   UNL     1      26.293  40.785  50.870  1.00  0.00     0.031 A 
ENDBRANCH  10  32
BRANCH  11  39
HETATM   39  N   UNL     1      28.528  42.879  52.197  1.00  0.00    -0.384 N 
HETATM   40  H   UNL     1      28.643  41.925  52.518  1.00  0.00     0.157 HD
HETATM   41  H   UNL     1      29.150  43.128  51.434  1.00  0.00     0.157 HD
ENDBRANCH  11  39
TORSDOF 10
ENDMDL
MODEL 10
REMARK VINA RESULT:      -8.0      1.504      1.822
REMARK  10 active torsions:
REMARK  status: ('A' for Active; 'I' for Inactive)
REMARK    1  A    between atoms: C_9  and  S_10 
REMARK    2  A    between atoms: S_10  and  C_11 
REMARK    3  A    between atoms: C_11  and  C_12 
REMARK       I    between atoms: C_12  and  N_13 
REMARK    4  A    between atoms: N_13  and  C_14 
REMARK    5  A    between atoms: C_14  and  C_15 
REMARK    6  A    between atoms: C_15  and  C_16 
REMARK    7  A    between atoms: C_19  and  S_20 
REMARK    8  A    between atoms: S_20  and  N_21 
REMARK    9  A    between atoms: N_27  and  C_28 
REMARK   10  A    between atoms: C_35  and  N_36 
ROOT
HETATM    1  C   UNL     1      31.396  43.779  55.999  1.00  0.00     0.073 C 
HETATM    2  C   UNL     1      30.151  44.575  55.841  1.00  0.00     0.068 A 
HETATM    3  N   UNL     1      29.853  45.505  56.756  1.00  0.00    -0.177 NA
HETATM    4  N   UNL     1      28.677  46.005  56.351  1.00  0.00    -0.260 N 
HETATM    5  H   UNL     1      28.236  46.734  56.902  1.00  0.00     0.191 HD
HETATM    6  C   UNL     1      28.210  45.417  55.210  1.00  0.00     0.162 A 
HETATM    7  C   UNL     1      29.155  44.490  54.821  1.00  0.00     0.081 A 
HETATM    8  N   UNL     1      27.053  45.683  54.606  1.00  0.00    -0.204 NA
HETATM    9  C   UNL     1      26.866  44.914  53.509  1.00  0.00     0.177 A 
HETATM   10  N   UNL     1      27.749  43.984  53.045  1.00  0.00    -0.276 N 
HETATM   11  C   UNL     1      28.945  43.741  53.651  1.00  0.00     0.124 A 
ENDROOT
BRANCH   9  12
HETATM   12  S   UNL     1      25.222  45.106  52.796  1.00  0.00    -0.082 SA
BRANCH  12  13
HETATM   13  C   UNL     1      25.354  46.825  52.201  1.00  0.00     0.185 C 
BRANCH  13  14
HETATM   14  C   UNL     1      24.871  46.935  50.762  1.00  0.00     0.227 C 
HETATM   15  N   UNL     1      24.486  45.735  50.205  1.00  0.00    -0.360 N 
HETATM   16  H   UNL     1      24.328  44.946  50.823  1.00  0.00     0.162 HD
HETATM   17  O   UNL     1      24.841  48.008  50.158  1.00  0.00    -0.273 OA
BRANCH  15  18
HETATM   18  C   UNL     1      23.885  45.654  48.881  1.00  0.00     0.127 C 
BRANCH  18  19
HETATM   19  C   UNL     1      22.455  45.114  48.947  1.00  0.00     0.058 C 
BRANCH  19  20
HETATM   20  C   UNL     1      21.434  46.153  48.557  1.00  0.00    -0.057 A 
HETATM   21  C   UNL     1      20.066  45.840  48.546  1.00  0.00     0.009 A 
HETATM   22  C   UNL     1      19.125  46.799  48.165  1.00  0.00     0.025 A 
HETATM   23  C   UNL     1      19.551  48.077  47.800  1.00  0.00     0.074 A 
HETATM   24  C   UNL     1      20.910  48.399  47.793  1.00  0.00     0.025 A 
HETATM   25  C   UNL     1      21.847  47.438  48.175  1.00  0.00     0.009 A 
BRANCH  23  26
HETATM   26  S   UNL     1      18.367  49.277  47.262  1.00  0.00     0.239 S 
HETATM   27  O   UNL     1      17.521  48.684  46.253  1.00  0.00    -0.206 OA
HETATM   28  O   UNL     1      17.833  49.960  48.418  1.00  0.00    -0.206 OA
BRANCH  26  29
HETATM   29  N   UNL     1      19.335  50.393  46.467  1.00  0.00    -0.225 NA
HETATM   30  H   UNL     1      18.845  51.284  46.388  1.00  0.00     0.136 HD
HETATM   31  H   UNL     1      20.238  50.467  46.938  1.00  0.00     0.136 HD
ENDBRANCH  26  29
ENDBRANCH  23  26
ENDBRANCH  19  20
ENDBRANCH  18  19
ENDBRANCH  15  18
ENDBRANCH  13  14
ENDBRANCH  12  13
ENDBRANCH   9  12
BRANCH  10  32
HETATM   32  C   UNL     1      27.397  43.194  51.900  1.00  0.00     0.043 A 
HETATM   33  C   UNL     1      27.034  41.858  52.080  1.00  0.00     0.031 A 
HETATM   34  C   UNL     1      26.664  41.108  50.962  1.00  0.00     0.021 A 
HETATM   35  C   UNL     1      26.649  41.704  49.698  1.00  0.00     0.011 A 
HETATM   36 BR   UNL     1      26.145  40.682  48.192  1.00  0.00    -0.051 Br
HETATM   37  C   UNL     1      26.995  43.049  49.536  1.00  0.00     0.021 A 
HETATM   38  C   UNL     1      27.370  43.808  50.644  1.00  0.00     0.031 A 
ENDBRANCH  10  32
BRANCH  11  39
HETATM   39  N   UNL     1      29.861  42.807  53.176  1.00  0.00    -0.384 N 
HETATM   40  H   UNL     1      30.856  42.947  53.314  1.00  0.00     0.157 HD
HETATM   41  H   UNL     1      29.585  41.829  53.187  1.00  0.00     0.157 HD
ENDBRANCH  11  39
TORSDOF 10
ENDMDL
