MODEL 1
REMARK VINA RESULT:      -9.1      0.000      0.000
REMARK  6 active torsions:
REMARK  status: ('A' for Active; 'I' for Inactive)
REMARK    1  A    between atoms: C_3  and  N_4 
REMARK       I    between atoms: N_4  and  C_5 
REMARK       I    between atoms: C_5  and  N_6 
REMARK    2  A    between atoms: N_6  and  C_7 
REMARK    3  A    between atoms: C_7  and  C_8 
REMARK    4  A    between atoms: C_16  and  N_17 
REMARK       I    between atoms: N_17  and  C_18 
REMARK    5  A    between atoms: C_18  and  C_19 
REMARK    6  A    between atoms: C_19  and  C_20 
ROOT
HETATM    1  C   UNL     1      27.264  49.453  48.764  1.00  0.00     0.004 A 
HETATM    2  C   UNL     1      27.328  48.365  49.634  1.00  0.00     0.029 A 
HETATM    3  C   UNL     1      26.163  47.707  50.026  1.00  0.00     0.038 A 
HETATM    4  C   UNL     1      24.929  48.152  49.525  1.00  0.00     0.059 A 
HETATM    5  C   UNL     1      24.852  49.239  48.649  1.00  0.00     0.036 A 
HETATM    6  C   UNL     1      26.033  49.888  48.273  1.00  0.00     0.029 A 
ENDROOT
BRANCH   3   7
HETATM    7  N   UNL     1      26.142  46.594  50.893  1.00  0.00    -0.309 N 
HETATM    8  C   UNL     1      26.144  46.604  52.270  1.00  0.00     0.320 C 
HETATM    9  N   UNL     1      26.211  45.322  52.775  1.00  0.00    -0.339 N 
HETATM   10  O   UNL     1      26.087  47.589  52.993  1.00  0.00    -0.247 OA
HETATM   11  H   UNL     1      26.583  44.597  52.181  1.00  0.00     0.164 HD
HETATM   12  H   UNL     1      25.992  45.695  50.460  1.00  0.00     0.170 HD
BRANCH   9  13
HETATM   13  C   UNL     1      26.238  45.081  54.202  1.00  0.00     0.163 C 
BRANCH  13  14
HETATM   14  C   UNL     1      27.629  44.949  54.772  1.00  0.00    -0.038 A 
HETATM   15  C   UNL     1      28.481  43.887  54.450  1.00  0.00     0.028 A 
HETATM   16  C   UNL     1      29.760  43.868  54.986  1.00  0.00     0.116 A 
HETATM   17  N   UNL     1      30.250  44.828  55.799  1.00  0.00    -0.273 NA
HETATM   18  C   UNL     1      29.428  45.860  56.076  1.00  0.00     0.116 A 
HETATM   19  C   UNL     1      28.132  45.964  55.594  1.00  0.00     0.028 A 
ENDBRANCH  13  14
ENDBRANCH   9  13
ENDBRANCH   3   7
BRANCH   5  20
HETATM   20  N   UNL     1      23.647  49.735  48.107  1.00  0.00    -0.327 N 
HETATM   21  C   UNL     1      22.709  50.540  48.730  1.00  0.00     0.227 C 
HETATM   22  O   UNL     1      22.760  50.955  49.888  1.00  0.00    -0.273 OA
HETATM   23  H   UNL     1      23.430  49.429  47.166  1.00  0.00     0.169 HD
BRANCH  21  24
HETATM   24  C   UNL     1      21.509  50.869  47.844  1.00  0.00     0.159 C 
BRANCH  24  25
HETATM   25  C   UNL     1      20.283  51.080  48.674  1.00  0.00     0.017 A 
HETATM   26  N   UNL     1      19.873  50.158  49.613  1.00  0.00    -0.369 N 
HETATM   27  H   UNL     1      20.337  49.273  49.797  1.00  0.00     0.165 HD
HETATM   28  C   UNL     1      18.731  50.602  50.226  1.00  0.00     0.088 A 
HETATM   29  C   UNL     1      18.413  51.831  49.693  1.00  0.00     0.019 A 
HETATM   30  C   UNL     1      19.393  52.136  48.717  1.00  0.00     0.027 A 
ENDBRANCH  24  25
ENDBRANCH  21  24
ENDBRANCH   5  20
TORSDOF 6
ENDMDL
MODEL 2
REMARK VINA RESULT:      -8.6      1.494      1.671
REMARK  6 active torsions:
REMARK  status: ('A' for Active; 'I' for Inactive)
REMARK    1  A    between atoms: C_3  and  N_4 
REMARK       I    between atoms: N_4  and  C_5 
REMARK       I    between atoms: C_5  and  N_6 
REMARK    2  A    between atoms: N_6  and  C_7 
REMARK    3  A    between atoms: C_7  and  C_8 
REMARK    4  A    between atoms: C_16  and  N_17 
REMARK       I    between atoms: N_17  and  C_18 
REMARK    5  A    between atoms: C_18  and  C_19 
REMARK    6  A    between atoms: C_19  and  C_20 
ROOT
HETATM    1  C   UNL     1      25.993  49.154  49.004  1.00  0.00     0.004 A 
HETATM    2  C   UNL     1      26.642  48.091  49.632  1.00  0.00     0.029 A 
HETATM    3  C   UNL     1      25.903  47.074  50.236  1.00  0.00     0.038 A 
HETATM    4  C   UNL     1      24.501  47.135  50.194  1.00  0.00     0.059 A 
HETATM    5  C   UNL     1      23.839  48.194  49.564  1.00  0.00     0.036 A 
HETATM    6  C   UNL     1      24.600  49.205  48.969  1.00  0.00     0.029 A 
ENDROOT
BRANCH   3   7
HETATM    7  N   UNL     1      26.480  45.960  50.882  1.00  0.00    -0.309 N 
HETATM    8  C   UNL     1      26.305  45.566  52.190  1.00  0.00     0.320 C 
HETATM    9  N   UNL     1      27.100  44.480  52.491  1.00  0.00    -0.339 N 
HETATM   10  O   UNL     1      25.553  46.073  53.010  1.00  0.00    -0.247 OA
HETATM   11  H   UNL     1      27.915  44.316  51.921  1.00  0.00     0.164 HD
HETATM   12  H   UNL     1      26.984  45.315  50.292  1.00  0.00     0.170 HD
BRANCH   9  13
HETATM   13  C   UNL     1      27.097  43.894  53.815  1.00  0.00     0.163 C 
BRANCH  13  14
HETATM   14  C   UNL     1      28.378  44.114  54.582  1.00  0.00    -0.038 A 
HETATM   15  C   UNL     1      29.437  43.201  54.562  1.00  0.00     0.028 A 
HETATM   16  C   UNL     1      30.596  43.504  55.263  1.00  0.00     0.116 A 
HETATM   17  N   UNL     1      30.777  44.644  55.961  1.00  0.00    -0.273 NA
HETATM   18  C   UNL     1      29.758  45.528  55.946  1.00  0.00     0.116 A 
HETATM   19  C   UNL     1      28.561  45.313  55.282  1.00  0.00     0.028 A 
ENDBRANCH  13  14
ENDBRANCH   9  13
ENDBRANCH   3   7
BRANCH   5  20
HETATM   20  N   UNL     1      22.436  48.314  49.483  1.00  0.00    -0.327 N 
HETATM   21  C   UNL     1      21.630  48.075  48.383  1.00  0.00     0.227 C 
HETATM   22  O   UNL     1      22.009  47.726  47.265  1.00  0.00    -0.273 OA
HETATM   23  H   UNL     1      21.975  48.654  50.319  1.00  0.00     0.169 HD
BRANCH  21  24
HETATM   24  C   UNL     1      20.147  48.328  48.652  1.00  0.00     0.159 C 
BRANCH  24  25
HETATM   25  C   UNL     1      19.881  49.792  48.799  1.00  0.00     0.017 A 
HETATM   26  N   UNL     1      19.265  50.311  49.917  1.00  0.00    -0.369 N 
HETATM   27  H   UNL     1      18.927  49.759  50.700  1.00  0.00     0.165 HD
HETATM   28  C   UNL     1      19.150  51.670  49.790  1.00  0.00     0.088 A 
HETATM   29  C   UNL     1      19.714  52.034  48.588  1.00  0.00     0.019 A 
HETATM   30  C   UNL     1      20.179  50.851  47.964  1.00  0.00     0.027 A 
ENDBRANCH  24  25
ENDBRANCH  21  24
ENDBRANCH   5  20
TORSDOF 6
ENDMDL
MODEL 3
REMARK VINA RESULT:      -8.4      1.941     10.147
REMARK  6 active torsions:
REMARK  status: ('A' for Active; 'I' for Inactive)
REMARK    1  A    between atoms: C_3  and  N_4 
REMARK       I    between atoms: N_4  and  C_5 
REMARK       I    between atoms: C_5  and  N_6 
REMARK    2  A    between atoms: N_6  and  C_7 
REMARK    3  A    between atoms: C_7  and  C_8 
REMARK    4  A    between atoms: C_16  and  N_17 
REMARK       I    between atoms: N_17  and  C_18 
REMARK    5  A    between atoms: C_18  and  C_19 
REMARK    6  A    between atoms: C_19  and  C_20 
ROOT
HETATM    1  C   UNL     1      26.179  44.793  49.785  1.00  0.00     0.004 A 
HETATM    2  C   UNL     1      25.064  45.542  49.412  1.00  0.00     0.029 A 
HETATM    3  C   UNL     1      24.543  46.505  50.276  1.00  0.00     0.038 A 
HETATM    4  C   UNL     1      25.162  46.713  51.519  1.00  0.00     0.059 A 
HETATM    5  C   UNL     1      26.284  45.970  51.902  1.00  0.00     0.036 A 
HETATM    6  C   UNL     1      26.786  45.005  51.023  1.00  0.00     0.029 A 
ENDROOT
BRANCH   3   7
HETATM    7  N   UNL     1      23.426  47.312  49.972  1.00  0.00    -0.309 N 
HETATM    8  C   UNL     1      23.429  48.622  49.545  1.00  0.00     0.320 C 
HETATM    9  N   UNL     1      22.144  49.111  49.434  1.00  0.00    -0.339 N 
HETATM   10  O   UNL     1      24.411  49.300  49.278  1.00  0.00    -0.247 OA
HETATM   11  H   UNL     1      21.416  48.656  49.964  1.00  0.00     0.164 HD
HETATM   12  H   UNL     1      22.531  46.846  49.953  1.00  0.00     0.170 HD
BRANCH   9  13
HETATM   13  C   UNL     1      21.896  50.473  49.012  1.00  0.00     0.163 C 
BRANCH  13  14
HETATM   14  C   UNL     1      20.467  50.921  49.207  1.00  0.00    -0.038 A 
HETATM   15  C   UNL     1      19.934  52.046  48.570  1.00  0.00     0.028 A 
HETATM   16  C   UNL     1      18.598  52.360  48.772  1.00  0.00     0.116 A 
HETATM   17  N   UNL     1      17.762  51.633  49.543  1.00  0.00    -0.273 NA
HETATM   18  C   UNL     1      18.283  50.535  50.126  1.00  0.00     0.116 A 
HETATM   19  C   UNL     1      19.606  50.143  49.990  1.00  0.00     0.028 A 
ENDBRANCH  13  14
ENDBRANCH   9  13
ENDBRANCH   3   7
BRANCH   5  20
HETATM   20  N   UNL     1      26.955  46.129  53.133  1.00  0.00    -0.327 N 
HETATM   21  C   UNL     1      26.965  45.257  54.208  1.00  0.00     0.227 C 
HETATM   22  O   UNL     1      26.367  44.183  54.281  1.00  0.00    -0.273 OA
HETATM   23  H   UNL     1      27.453  47.003  53.251  1.00  0.00     0.169 HD
BRANCH  21  24
HETATM   24  C   UNL     1      27.787  45.765  55.392  1.00  0.00     0.159 C 
BRANCH  24  25
HETATM   25  C   UNL     1      29.065  44.997  55.514  1.00  0.00     0.017 A 
HETATM   26  N   UNL     1      29.341  43.913  54.709  1.00  0.00    -0.369 N 
HETATM   27  H   UNL     1      28.711  43.538  54.006  1.00  0.00     0.165 HD
HETATM   28  C   UNL     1      30.571  43.403  55.030  1.00  0.00     0.088 A 
HETATM   29  C   UNL     1      31.103  44.178  56.036  1.00  0.00     0.019 A 
HETATM   30  C   UNL     1      30.156  45.186  56.340  1.00  0.00     0.027 A 
ENDBRANCH  24  25
ENDBRANCH  21  24
ENDBRANCH   5  20
TORSDOF 6
ENDMDL
MODEL 4
REMARK VINA RESULT:      -8.3      1.983      2.557
REMARK  6 active torsions:
REMARK  status: ('A' for Active; 'I' for Inactive)
REMARK    1  A    between atoms: C_3  and  N_4 
REMARK       I    between atoms: N_4  and  C_5 
REMARK       I    between atoms: C_5  and  N_6 
REMARK    2  A    between atoms: N_6  and  C_7 
REMARK    3  A    between atoms: C_7  and  C_8 
REMARK    4  A    between atoms: C_16  and  N_17 
REMARK       I    between atoms: N_17  and  C_18 
REMARK    5  A    between atoms: C_18  and  C_19 
REMARK    6  A    between atoms: C_19  and  C_20 
ROOT
HETATM    1  C   UNL     1      23.431  45.055  48.611  1.00  0.00     0.004 A 
HETATM    2  C   UNL     1      24.596  44.554  49.192  1.00  0.00     0.029 A 
HETATM    3  C   UNL     1      25.402  45.379  49.976  1.00  0.00     0.038 A 
HETATM    4  C   UNL     1      25.018  46.715  50.177  1.00  0.00     0.059 A 
HETATM    5  C   UNL     1      23.850  47.227  49.602  1.00  0.00     0.036 A 
HETATM    6  C   UNL     1      23.060  46.384  48.815  1.00  0.00     0.029 A 
ENDROOT
BRANCH   3   7
HETATM    7  N   UNL     1      26.588  44.949  50.608  1.00  0.00    -0.309 N 
HETATM    8  C   UNL     1      26.705  44.069  51.660  1.00  0.00     0.320 C 
HETATM    9  N   UNL     1      28.018  43.958  52.071  1.00  0.00    -0.339 N 
HETATM   10  O   UNL     1      25.801  43.439  52.190  1.00  0.00    -0.247 OA
HETATM   11  H   UNL     1      28.650  44.712  51.848  1.00  0.00     0.164 HD
HETATM   12  H   UNL     1      27.453  45.226  50.168  1.00  0.00     0.170 HD
BRANCH   9  13
HETATM   13  C   UNL     1      28.387  43.096  53.173  1.00  0.00     0.163 C 
BRANCH  13  14
HETATM   14  C   UNL     1      29.114  43.809  54.287  1.00  0.00    -0.038 A 
HETATM   15  C   UNL     1      30.285  43.310  54.867  1.00  0.00     0.028 A 
HETATM   16  C   UNL     1      30.913  44.053  55.856  1.00  0.00     0.116 A 
HETATM   17  N   UNL     1      30.469  45.250  56.294  1.00  0.00    -0.273 NA
HETATM   18  C   UNL     1      29.357  45.732  55.705  1.00  0.00     0.116 A 
HETATM   19  C   UNL     1      28.657  45.062  54.714  1.00  0.00     0.028 A 
ENDBRANCH  13  14
ENDBRANCH   9  13
ENDBRANCH   3   7
BRANCH   5  20
HETATM   20  N   UNL     1      23.405  48.557  49.765  1.00  0.00    -0.327 N 
HETATM   21  C   UNL     1      23.213  49.509  48.779  1.00  0.00     0.227 C 
HETATM   22  O   UNL     1      23.415  49.361  47.574  1.00  0.00    -0.273 OA
HETATM   23  H   UNL     1      23.250  48.853  50.721  1.00  0.00     0.169 HD
BRANCH  21  24
HETATM   24  C   UNL     1      22.741  50.857  49.323  1.00  0.00     0.159 C 
BRANCH  24  25
HETATM   25  C   UNL     1      21.247  50.908  49.379  1.00  0.00     0.017 A 
HETATM   26  N   UNL     1      20.531  50.220  50.334  1.00  0.00    -0.369 N 
HETATM   27  H   UNL     1      20.941  49.617  51.043  1.00  0.00     0.165 HD
HETATM   28  C   UNL     1      19.192  50.445  50.156  1.00  0.00     0.088 A 
HETATM   29  C   UNL     1      19.043  51.302  49.089  1.00  0.00     0.019 A 
HETATM   30  C   UNL     1      20.338  51.598  48.601  1.00  0.00     0.027 A 
ENDBRANCH  24  25
ENDBRANCH  21  24
ENDBRANCH   5  20
TORSDOF 6
ENDMDL
MODEL 5
REMARK VINA RESULT:      -8.3      1.589      9.935
REMARK  6 active torsions:
REMARK  status: ('A' for Active; 'I' for Inactive)
REMARK    1  A    between atoms: C_3  and  N_4 
REMARK       I    between atoms: N_4  and  C_5 
REMARK       I    between atoms: C_5  and  N_6 
REMARK    2  A    between atoms: N_6  and  C_7 
REMARK    3  A    between atoms: C_7  and  C_8 
REMARK    4  A    between atoms: C_16  and  N_17 
REMARK       I    between atoms: N_17  and  C_18 
REMARK    5  A    between atoms: C_18  and  C_19 
REMARK    6  A    between atoms: C_19  and  C_20 
ROOT
HETATM    1  C   UNL     1      27.310  49.363  48.768  1.00  0.00     0.004 A 
HETATM    2  C   UNL     1      26.132  49.909  48.259  1.00  0.00     0.029 A 
HETATM    3  C   UNL     1      24.895  49.377  48.623  1.00  0.00     0.038 A 
HETATM    4  C   UNL     1      24.856  48.292  49.513  1.00  0.00     0.059 A 
HETATM    5  C   UNL     1      26.031  47.738  50.033  1.00  0.00     0.036 A 
HETATM    6  C   UNL     1      27.260  48.284  49.650  1.00  0.00     0.029 A 
ENDROOT
BRANCH   3   7
HETATM    7  N   UNL     1      23.658  49.877  48.163  1.00  0.00    -0.309 N 
HETATM    8  C   UNL     1      22.744  50.628  48.867  1.00  0.00     0.320 C 
HETATM    9  N   UNL     1      21.608  50.857  48.118  1.00  0.00    -0.339 N 
HETATM   10  O   UNL     1      22.876  51.063  50.002  1.00  0.00    -0.247 OA
HETATM   11  H   UNL     1      21.406  50.226  47.358  1.00  0.00     0.164 HD
HETATM   12  H   UNL     1      23.474  49.772  47.176  1.00  0.00     0.170 HD
BRANCH   9  13
HETATM   13  C   UNL     1      20.499  51.616  48.654  1.00  0.00     0.163 C 
BRANCH  13  14
HETATM   14  C   UNL     1      19.205  51.421  47.900  1.00  0.00    -0.038 A 
HETATM   15  C   UNL     1      18.058  52.178  48.158  1.00  0.00     0.028 A 
HETATM   16  C   UNL     1      16.925  51.962  47.387  1.00  0.00     0.116 A 
HETATM   17  N   UNL     1      16.860  51.067  46.379  1.00  0.00    -0.273 NA
HETATM   18  C   UNL     1      17.983  50.367  46.122  1.00  0.00     0.116 A 
HETATM   19  C   UNL     1      19.161  50.507  46.841  1.00  0.00     0.028 A 
ENDBRANCH  13  14
ENDBRANCH   9  13
ENDBRANCH   3   7
BRANCH   5  20
HETATM   20  N   UNL     1      26.063  46.651  50.932  1.00  0.00    -0.327 N 
HETATM   21  C   UNL     1      25.768  46.666  52.285  1.00  0.00     0.227 C 
HETATM   22  O   UNL     1      25.437  47.650  52.948  1.00  0.00    -0.273 OA
HETATM   23  H   UNL     1      26.377  45.770  50.544  1.00  0.00     0.169 HD
BRANCH  21  24
HETATM   24  C   UNL     1      25.929  45.302  52.954  1.00  0.00     0.159 C 
BRANCH  24  25
HETATM   25  C   UNL     1      27.135  45.288  53.838  1.00  0.00     0.017 A 
HETATM   26  N   UNL     1      27.356  46.268  54.782  1.00  0.00    -0.369 N 
HETATM   27  H   UNL     1      26.752  47.071  54.935  1.00  0.00     0.165 HD
HETATM   28  C   UNL     1      28.524  46.010  55.448  1.00  0.00     0.088 A 
HETATM   29  C   UNL     1      29.052  44.842  54.945  1.00  0.00     0.019 A 
HETATM   30  C   UNL     1      28.175  44.384  53.932  1.00  0.00     0.027 A 
ENDBRANCH  24  25
ENDBRANCH  21  24
ENDBRANCH   5  20
TORSDOF 6
ENDMDL
MODEL 6
REMARK VINA RESULT:      -7.9      2.170      3.325
REMARK  6 active torsions:
REMARK  status: ('A' for Active; 'I' for Inactive)
REMARK    1  A    between atoms: C_3  and  N_4 
REMARK       I    between atoms: N_4  and  C_5 
REMARK       I    between atoms: C_5  and  N_6 
REMARK    2  A    between atoms: N_6  and  C_7 
REMARK    3  A    between atoms: C_7  and  C_8 
REMARK    4  A    between atoms: C_16  and  N_17 
REMARK       I    between atoms: N_17  and  C_18 
REMARK    5  A    between atoms: C_18  and  C_19 
REMARK    6  A    between atoms: C_19  and  C_20 
ROOT
HETATM    1  C   UNL     1      24.526  43.372  50.924  1.00  0.00     0.004 A 
HETATM    2  C   UNL     1      25.529  43.822  51.781  1.00  0.00     0.029 A 
HETATM    3  C   UNL     1      25.825  45.183  51.864  1.00  0.00     0.038 A 
HETATM    4  C   UNL     1      25.092  46.088  51.081  1.00  0.00     0.059 A 
HETATM    5  C   UNL     1      24.080  45.649  50.220  1.00  0.00     0.036 A 
HETATM    6  C   UNL     1      23.805  44.279  50.148  1.00  0.00     0.029 A 
ENDROOT
BRANCH   3   7
HETATM    7  N   UNL     1      26.815  45.721  52.712  1.00  0.00    -0.309 N 
HETATM    8  C   UNL     1      26.828  45.726  54.090  1.00  0.00     0.320 C 
HETATM    9  N   UNL     1      27.916  46.423  54.573  1.00  0.00    -0.339 N 
HETATM   10  O   UNL     1      26.013  45.192  54.829  1.00  0.00    -0.247 OA
HETATM   11  H   UNL     1      28.351  47.102  53.969  1.00  0.00     0.164 HD
HETATM   12  H   UNL     1      27.663  46.035  52.264  1.00  0.00     0.170 HD
BRANCH   9  13
HETATM   13  C   UNL     1      28.135  46.573  55.996  1.00  0.00     0.163 C 
BRANCH  13  14
HETATM   14  C   UNL     1      29.299  45.769  56.522  1.00  0.00    -0.038 A 
HETATM   15  C   UNL     1      29.783  45.904  57.827  1.00  0.00     0.028 A 
HETATM   16  C   UNL     1      30.830  45.092  58.241  1.00  0.00     0.116 A 
HETATM   17  N   UNL     1      31.410  44.157  57.461  1.00  0.00    -0.273 NA
HETATM   18  C   UNL     1      30.912  44.017  56.216  1.00  0.00     0.116 A 
HETATM   19  C   UNL     1      29.875  44.785  55.710  1.00  0.00     0.028 A 
ENDBRANCH  13  14
ENDBRANCH   9  13
ENDBRANCH   3   7
BRANCH   5  20
HETATM   20  N   UNL     1      23.305  46.504  49.409  1.00  0.00    -0.327 N 
HETATM   21  C   UNL     1      23.357  47.886  49.347  1.00  0.00     0.227 C 
HETATM   22  O   UNL     1      24.090  48.617  50.013  1.00  0.00    -0.273 OA
HETATM   23  H   UNL     1      22.604  46.049  48.837  1.00  0.00     0.169 HD
BRANCH  21  24
HETATM   24  C   UNL     1      22.352  48.486  48.365  1.00  0.00     0.159 C 
BRANCH  24  25
HETATM   25  C   UNL     1      21.403  49.399  49.075  1.00  0.00     0.017 A 
HETATM   26  N   UNL     1      20.398  48.915  49.885  1.00  0.00    -0.369 N 
HETATM   27  H   UNL     1      20.206  47.930  50.044  1.00  0.00     0.165 HD
HETATM   28  C   UNL     1      19.685  49.961  50.407  1.00  0.00     0.088 A 
HETATM   29  C   UNL     1      20.247  51.131  49.947  1.00  0.00     0.019 A 
HETATM   30  C   UNL     1      21.333  50.778  49.110  1.00  0.00     0.027 A 
ENDBRANCH  24  25
ENDBRANCH  21  24
ENDBRANCH   5  20
TORSDOF 6
ENDMDL
MODEL 7
REMARK VINA RESULT:      -7.8      5.502      8.898
REMARK  6 active torsions:
REMARK  status: ('A' for Active; 'I' for Inactive)
REMARK    1  A    between atoms: C_3  and  N_4 
REMARK       I    between atoms: N_4  and  C_5 
REMARK       I    between atoms: C_5  and  N_6 
REMARK    2  A    between atoms: N_6  and  C_7 
REMARK    3  A    between atoms: C_7  and  C_8 
REMARK    4  A    between atoms: C_16  and  N_17 
REMARK       I    between atoms: N_17  and  C_18 
REMARK    5  A    between atoms: C_18  and  C_19 
REMARK    6  A    between atoms: C_19  and  C_20 
ROOT
HETATM    1  C   UNL     1      24.218  44.621  50.829  1.00  0.00     0.004 A 
HETATM    2  C   UNL     1      25.090  45.314  51.668  1.00  0.00     0.029 A 
HETATM    3  C   UNL     1      26.280  44.722  52.090  1.00  0.00     0.038 A 
HETATM    4  C   UNL     1      26.588  43.424  51.652  1.00  0.00     0.059 A 
HETATM    5  C   UNL     1      25.723  42.720  50.808  1.00  0.00     0.036 A 
HETATM    6  C   UNL     1      24.532  43.331  50.401  1.00  0.00     0.029 A 
ENDROOT
BRANCH   3   7
HETATM    7  N   UNL     1      27.221  45.358  52.928  1.00  0.00    -0.309 N 
HETATM    8  C   UNL     1      27.270  45.331  54.304  1.00  0.00     0.320 C 
HETATM    9  N   UNL     1      28.278  46.144  54.780  1.00  0.00    -0.339 N 
HETATM   10  O   UNL     1      26.547  44.684  55.048  1.00  0.00    -0.247 OA
HETATM   11  H   UNL     1      28.610  46.886  54.184  1.00  0.00     0.164 HD
HETATM   12  H   UNL     1      28.012  45.784  52.468  1.00  0.00     0.170 HD
BRANCH   9  13
HETATM   13  C   UNL     1      28.516  46.287  56.200  1.00  0.00     0.163 C 
BRANCH  13  14
HETATM   14  C   UNL     1      29.690  45.484  56.706  1.00  0.00    -0.038 A 
HETATM   15  C   UNL     1      30.192  45.614  58.004  1.00  0.00     0.028 A 
HETATM   16  C   UNL     1      31.247  44.804  58.400  1.00  0.00     0.116 A 
HETATM   17  N   UNL     1      31.819  43.874  57.607  1.00  0.00    -0.273 NA
HETATM   18  C   UNL     1      31.304  43.739  56.368  1.00  0.00     0.116 A 
HETATM   19  C   UNL     1      30.257  44.506  55.881  1.00  0.00     0.028 A 
ENDBRANCH  13  14
ENDBRANCH   9  13
ENDBRANCH   3   7
BRANCH   5  20
HETATM   20  N   UNL     1      25.972  41.416  50.329  1.00  0.00    -0.327 N 
HETATM   21  C   UNL     1      26.797  41.045  49.281  1.00  0.00     0.227 C 
HETATM   22  O   UNL     1      27.453  41.805  48.567  1.00  0.00    -0.273 OA
HETATM   23  H   UNL     1      25.452  40.675  50.783  1.00  0.00     0.169 HD
BRANCH  21  24
HETATM   24  C   UNL     1      26.811  39.540  49.025  1.00  0.00     0.159 C 
BRANCH  24  25
HETATM   25  C   UNL     1      28.136  38.954  49.399  1.00  0.00     0.017 A 
HETATM   26  N   UNL     1      28.483  38.721  50.712  1.00  0.00    -0.369 N 
HETATM   27  H   UNL     1      27.900  38.944  51.513  1.00  0.00     0.165 HD
HETATM   28  C   UNL     1      29.741  38.181  50.766  1.00  0.00     0.088 A 
HETATM   29  C   UNL     1      30.201  38.045  49.476  1.00  0.00     0.019 A 
HETATM   30  C   UNL     1      29.188  38.529  48.612  1.00  0.00     0.027 A 
ENDBRANCH  24  25
ENDBRANCH  21  24
ENDBRANCH   5  20
TORSDOF 6
ENDMDL
MODEL 8
REMARK VINA RESULT:      -7.8      2.577     10.084
REMARK  6 active torsions:
REMARK  status: ('A' for Active; 'I' for Inactive)
REMARK    1  A    between atoms: C_3  and  N_4 
REMARK       I    between atoms: N_4  and  C_5 
REMARK       I    between atoms: C_5  and  N_6 
REMARK    2  A    between atoms: N_6  and  C_7 
REMARK    3  A    between atoms: C_7  and  C_8 
REMARK    4  A    between atoms: C_16  and  N_17 
REMARK       I    between atoms: N_17  and  C_18 
REMARK    5  A    between atoms: C_18  and  C_19 
REMARK    6  A    between atoms: C_19  and  C_20 
ROOT
HETATM    1  C   UNL     1      24.992  42.989  48.789  1.00  0.00     0.004 A 
HETATM    2  C   UNL     1      24.084  44.019  48.549  1.00  0.00     0.029 A 
HETATM    3  C   UNL     1      23.648  44.831  49.596  1.00  0.00     0.038 A 
HETATM    4  C   UNL     1      24.144  44.599  50.889  1.00  0.00     0.059 A 
HETATM    5  C   UNL     1      25.058  43.571  51.141  1.00  0.00     0.036 A 
HETATM    6  C   UNL     1      25.477  42.765  50.077  1.00  0.00     0.029 A 
ENDROOT
BRANCH   3   7
HETATM    7  N   UNL     1      22.741  45.900  49.437  1.00  0.00    -0.309 N 
HETATM    8  C   UNL     1      23.039  47.231  49.251  1.00  0.00     0.320 C 
HETATM    9  N   UNL     1      21.892  47.997  49.226  1.00  0.00    -0.339 N 
HETATM   10  O   UNL     1      24.152  47.718  49.113  1.00  0.00    -0.247 OA
HETATM   11  H   UNL     1      21.063  47.626  49.663  1.00  0.00     0.164 HD
HETATM   12  H   UNL     1      21.769  45.648  49.333  1.00  0.00     0.170 HD
BRANCH   9  13
HETATM   13  C   UNL     1      21.955  49.433  49.053  1.00  0.00     0.163 C 
BRANCH  13  14
HETATM   14  C   UNL     1      20.634  50.131  49.266  1.00  0.00    -0.038 A 
HETATM   15  C   UNL     1      19.584  49.559  49.991  1.00  0.00     0.028 A 
HETATM   16  C   UNL     1      18.419  50.290  50.176  1.00  0.00     0.116 A 
HETATM   17  N   UNL     1      18.235  51.542  49.705  1.00  0.00    -0.273 NA
HETATM   18  C   UNL     1      19.266  52.091  49.034  1.00  0.00     0.116 A 
HETATM   19  C   UNL     1      20.466  51.439  48.794  1.00  0.00     0.028 A 
ENDBRANCH  13  14
ENDBRANCH   9  13
ENDBRANCH   3   7
BRANCH   5  20
HETATM   20  N   UNL     1      25.597  43.286  52.414  1.00  0.00    -0.327 N 
HETATM   21  C   UNL     1      26.656  43.919  53.044  1.00  0.00     0.227 C 
HETATM   22  O   UNL     1      27.327  44.844  52.586  1.00  0.00    -0.273 OA
HETATM   23  H   UNL     1      25.184  42.500  52.900  1.00  0.00     0.169 HD
BRANCH  21  24
HETATM   24  C   UNL     1      26.983  43.332  54.415  1.00  0.00     0.159 C 
BRANCH  24  25
HETATM   25  C   UNL     1      28.413  43.591  54.771  1.00  0.00     0.017 A 
HETATM   26  N   UNL     1      28.813  44.771  55.359  1.00  0.00    -0.369 N 
HETATM   27  H   UNL     1      28.197  45.552  55.569  1.00  0.00     0.165 HD
HETATM   28  C   UNL     1      30.165  44.741  55.578  1.00  0.00     0.088 A 
HETATM   29  C   UNL     1      30.638  43.522  55.147  1.00  0.00     0.019 A 
HETATM   30  C   UNL     1      29.533  42.794  54.642  1.00  0.00     0.027 A 
ENDBRANCH  24  25
ENDBRANCH  21  24
ENDBRANCH   5  20
TORSDOF 6
ENDMDL
MODEL 9
REMARK VINA RESULT:      -7.8      1.958     10.006
REMARK  6 active torsions:
REMARK  status: ('A' for Active; 'I' for Inactive)
REMARK    1  A    between atoms: C_3  and  N_4 
REMARK       I    between atoms: N_4  and  C_5 
REMARK       I    between atoms: C_5  and  N_6 
REMARK    2  A    between atoms: N_6  and  C_7 
REMARK    3  A    between atoms: C_7  and  C_8 
REMARK    4  A    between atoms: C_16  and  N_17 
REMARK       I    between atoms: N_17  and  C_18 
REMARK    5  A    between atoms: C_18  and  C_19 
REMARK    6  A    between atoms: C_19  and  C_20 
ROOT
HETATM    1  C   UNL     1      26.751  48.658  49.057  1.00  0.00     0.004 A 
HETATM    2  C   UNL     1      25.382  48.900  49.168  1.00  0.00     0.029 A 
HETATM    3  C   UNL     1      24.533  47.919  49.680  1.00  0.00     0.038 A 
HETATM    4  C   UNL     1      25.080  46.692  50.088  1.00  0.00     0.059 A 
HETATM    5  C   UNL     1      26.452  46.439  49.984  1.00  0.00     0.036 A 
HETATM    6  C   UNL     1      27.283  47.435  49.462  1.00  0.00     0.029 A 
ENDROOT
BRANCH   3   7
HETATM    7  N   UNL     1      23.141  48.087  49.836  1.00  0.00    -0.309 N 
HETATM    8  C   UNL     1      22.196  48.214  48.843  1.00  0.00     0.320 C 
HETATM    9  N   UNL     1      20.946  48.452  49.376  1.00  0.00    -0.339 N 
HETATM   10  O   UNL     1      22.386  48.127  47.638  1.00  0.00    -0.247 OA
HETATM   11  H   UNL     1      20.892  48.838  50.306  1.00  0.00     0.164 HD
HETATM   12  H   UNL     1      22.782  47.987  50.774  1.00  0.00     0.170 HD
BRANCH   9  13
HETATM   13  C   UNL     1      19.791  48.633  48.522  1.00  0.00     0.163 C 
BRANCH  13  14
HETATM   14  C   UNL     1      19.131  49.983  48.666  1.00  0.00    -0.038 A 
HETATM   15  C   UNL     1      18.714  50.493  49.900  1.00  0.00     0.028 A 
HETATM   16  C   UNL     1      18.156  51.763  49.946  1.00  0.00     0.116 A 
HETATM   17  N   UNL     1      18.001  52.556  48.866  1.00  0.00    -0.273 NA
HETATM   18  C   UNL     1      18.436  52.063  47.689  1.00  0.00     0.116 A 
HETATM   19  C   UNL     1      19.000  50.805  47.541  1.00  0.00     0.028 A 
ENDBRANCH  13  14
ENDBRANCH   9  13
ENDBRANCH   3   7
BRANCH   5  20
HETATM   20  N   UNL     1      27.066  45.230  50.377  1.00  0.00    -0.327 N 
HETATM   21  C   UNL     1      26.898  44.547  51.569  1.00  0.00     0.227 C 
HETATM   22  O   UNL     1      26.185  44.892  52.512  1.00  0.00    -0.273 OA
HETATM   23  H   UNL     1      27.735  44.845  49.722  1.00  0.00     0.169 HD
BRANCH  21  24
HETATM   24  C   UNL     1      27.741  43.276  51.662  1.00  0.00     0.159 C 
BRANCH  24  25
HETATM   25  C   UNL     1      28.580  43.290  52.901  1.00  0.00     0.017 A 
HETATM   26  N   UNL     1      28.668  44.404  53.707  1.00  0.00    -0.369 N 
HETATM   27  H   UNL     1      28.206  45.291  53.522  1.00  0.00     0.165 HD
HETATM   28  C   UNL     1      29.495  44.142  54.766  1.00  0.00     0.088 A 
HETATM   29  C   UNL     1      29.929  42.840  54.654  1.00  0.00     0.019 A 
HETATM   30  C   UNL     1      29.350  42.301  53.480  1.00  0.00     0.027 A 
ENDBRANCH  24  25
ENDBRANCH  21  24
ENDBRANCH   5  20
TORSDOF 6
ENDMDL
MODEL 10
REMARK VINA RESULT:      -7.5      3.566      4.268
REMARK  6 active torsions:
REMARK  status: ('A' for Active; 'I' for Inactive)
REMARK    1  A    between atoms: C_3  and  N_4 
REMARK       I    between atoms: N_4  and  C_5 
REMARK       I    between atoms: C_5  and  N_6 
REMARK    2  A    between atoms: N_6  and  C_7 
REMARK    3  A    between atoms: C_7  and  C_8 
REMARK    4  A    between atoms: C_16  and  N_17 
REMARK       I    between atoms: N_17  and  C_18 
REMARK    5  A    between atoms: C_18  and  C_19 
REMARK    6  A    between atoms: C_19  and  C_20 
ROOT
HETATM    1  C   UNL     1      23.394  42.447  47.766  1.00  0.00     0.004 A 
HETATM    2  C   UNL     1      24.234  42.093  48.821  1.00  0.00     0.029 A 
HETATM    3  C   UNL     1      24.236  42.838  50.000  1.00  0.00     0.038 A 
HETATM    4  C   UNL     1      23.375  43.941  50.109  1.00  0.00     0.059 A 
HETATM    5  C   UNL     1      22.525  44.304  49.059  1.00  0.00     0.036 A 
HETATM    6  C   UNL     1      22.544  43.546  47.884  1.00  0.00     0.029 A 
ENDROOT
BRANCH   3   7
HETATM    7  N   UNL     1      25.046  42.541  51.116  1.00  0.00    -0.309 N 
HETATM    8  C   UNL     1      26.420  42.592  51.192  1.00  0.00     0.320 C 
HETATM    9  N   UNL     1      26.866  42.146  52.419  1.00  0.00    -0.339 N 
HETATM   10  O   UNL     1      27.186  42.979  50.320  1.00  0.00    -0.247 OA
HETATM   11  H   UNL     1      26.259  41.545  52.954  1.00  0.00     0.164 HD
HETATM   12  H   UNL     1      24.563  42.387  51.989  1.00  0.00     0.170 HD
BRANCH   9  13
HETATM   13  C   UNL     1      28.279  42.096  52.728  1.00  0.00     0.163 C 
BRANCH  13  14
HETATM   14  C   UNL     1      28.714  43.111  53.757  1.00  0.00    -0.038 A 
HETATM   15  C   UNL     1      29.918  43.006  54.461  1.00  0.00     0.028 A 
HETATM   16  C   UNL     1      30.260  44.008  55.358  1.00  0.00     0.116 A 
HETATM   17  N   UNL     1      29.504  45.102  55.588  1.00  0.00    -0.273 NA
HETATM   18  C   UNL     1      28.361  45.204  54.879  1.00  0.00     0.116 A 
HETATM   19  C   UNL     1      27.932  44.253  53.967  1.00  0.00     0.028 A 
ENDBRANCH  13  14
ENDBRANCH   9  13
ENDBRANCH   3   7
BRANCH   5  20
HETATM   20  N   UNL     1      21.634  45.398  49.104  1.00  0.00    -0.327 N 
HETATM   21  C   UNL     1      21.681  46.556  48.347  1.00  0.00     0.227 C 
HETATM   22  O   UNL     1      22.531  46.841  47.503  1.00  0.00    -0.273 OA
HETATM   23  H   UNL     1      20.902  45.339  49.801  1.00  0.00     0.169 HD
BRANCH  21  24
HETATM   24  C   UNL     1      20.560  47.540  48.676  1.00  0.00     0.159 C 
BRANCH  24  25
HETATM   25  C   UNL     1      21.097  48.932  48.791  1.00  0.00     0.017 A 
HETATM   26  N   UNL     1      22.188  49.227  49.579  1.00  0.00    -0.369 N 
HETATM   27  H   UNL     1      22.688  48.553  50.152  1.00  0.00     0.165 HD
HETATM   28  C   UNL     1      22.465  50.566  49.499  1.00  0.00     0.088 A 
HETATM   29  C   UNL     1      21.558  51.136  48.634  1.00  0.00     0.019 A 
HETATM   30  C   UNL     1      20.696  50.106  48.185  1.00  0.00     0.027 A 
ENDBRANCH  24  25
ENDBRANCH  21  24
ENDBRANCH   5  20
TORSDOF 6
ENDMDL
