MODEL 1
REMARK VINA RESULT:     -10.9      0.000      0.000
REMARK  8 active torsions:
REMARK  status: ('A' for Active; 'I' for Inactive)
REMARK    1  A    between atoms: C_4  and  S_5 
REMARK    2  A    between atoms: S_5  and  C_6 
REMARK    3  A    between atoms: C_6  and  C_7 
REMARK       I    between atoms: C_7  and  N_8 
REMARK    4  A    between atoms: N_8  and  C_9 
REMARK    5  A    between atoms: C_20  and  C_21 
REMARK    6  A    between atoms: C_27  and  C_28 
REMARK       I    between atoms: C_28  and  N_29 
REMARK    7  A    between atoms: N_29  and  C_30 
REMARK    8  A    between atoms: C_31  and  O_32 
ROOT
HETATM    1  C   UNL     1      23.459  43.936  47.350  1.00  0.00     0.069 C 
HETATM    2  C   UNL     1      23.976  44.829  48.452  1.00  0.00     0.019 C 
HETATM    3  N   UNL     1      25.181  44.443  49.016  1.00  0.00    -0.353 N 
HETATM    4  C   UNL     1      25.740  44.988  50.156  1.00  0.00     0.087 C 
HETATM    5  C   UNL     1      25.170  46.094  50.689  1.00  0.00     0.055 C 
HETATM    6  C   UNL     1      25.604  46.664  52.029  1.00  0.00     0.019 C 
HETATM    7  N   UNL     1      25.963  47.137  53.141  1.00  0.00    -0.096 N 
HETATM    8  C   UNL     1      24.067  46.833  49.932  1.00  0.00     0.104 C 
HETATM    9  C   UNL     1      23.375  45.972  48.873  1.00  0.00     0.046 C 
HETATM   10  H   UNL     1      25.618  43.589  48.679  1.00  0.00     0.166 HD
ENDROOT
BRANCH   4  11
HETATM   11  S   UNL     1      27.257  44.350  50.744  1.00  0.00    -0.102 SA
BRANCH  11  12
HETATM   12  C   UNL     1      26.756  43.106  51.974  1.00  0.00     0.184 C 
BRANCH  12  13
HETATM   13  C   UNL     1      27.169  43.515  53.395  1.00  0.00     0.231 C 
HETATM   14  N   UNL     1      28.485  43.928  53.513  1.00  0.00    -0.326 N 
HETATM   15  H   UNL     1      29.034  43.850  52.663  1.00  0.00     0.169 HD
HETATM   16  O   UNL     1      26.340  43.498  54.303  1.00  0.00    -0.272 OA
BRANCH  14  17
HETATM   17  C   UNL     1      29.183  44.338  54.664  1.00  0.00     0.036 A 
HETATM   18  C   UNL     1      30.213  43.611  55.259  1.00  0.00     0.053 A 
HETATM   19  C   UNL     1      30.852  44.113  56.397  1.00  0.00     0.036 A 
HETATM   20 CL   UNL     1      32.122  43.211  57.133  1.00  0.00    -0.084 Cl
HETATM   21  C   UNL     1      30.479  45.338  56.947  1.00  0.00     0.024 A 
HETATM   22  C   UNL     1      29.451  46.068  56.359  1.00  0.00     0.004 A 
HETATM   23  C   UNL     1      28.806  45.568  55.225  1.00  0.00     0.029 A 
ENDBRANCH  14  17
ENDBRANCH  12  13
ENDBRANCH  11  12
ENDBRANCH   4  11
BRANCH   8  24
HETATM   24  C   UNL     1      24.683  48.109  49.331  1.00  0.00    -0.044 A 
HETATM   25  C   UNL     1      23.873  49.125  48.785  1.00  0.00     0.008 A 
HETATM   26  C   UNL     1      24.439  50.247  48.181  1.00  0.00     0.001 A 
HETATM   27  C   UNL     1      25.822  50.371  48.100  1.00  0.00     0.000 A 
HETATM   28  C   UNL     1      26.640  49.370  48.623  1.00  0.00     0.001 A 
HETATM   29  C   UNL     1      26.078  48.246  49.234  1.00  0.00     0.008 A 
ENDBRANCH   8  24
BRANCH   9  30
HETATM   30  C   UNL     1      22.028  46.370  48.329  1.00  0.00     0.255 C 
HETATM   31  N   UNL     1      20.937  45.989  49.083  1.00  0.00    -0.321 N 
HETATM   32  H   UNL     1      21.028  45.245  49.755  1.00  0.00     0.169 HD
HETATM   33  O   UNL     1      21.944  46.891  47.218  1.00  0.00    -0.268 OA
BRANCH  31  34
HETATM   34  C   UNL     1      19.612  46.422  48.840  1.00  0.00     0.068 A 
HETATM   35  C   UNL     1      18.625  45.603  48.251  1.00  0.00     0.095 A 
HETATM   36  C   UNL     1      17.331  46.112  48.089  1.00  0.00     0.039 A 
HETATM   37  C   UNL     1      17.029  47.422  48.470  1.00  0.00     0.003 A 
HETATM   38  C   UNL     1      18.021  48.246  48.990  1.00  0.00     0.002 A 
HETATM   39  C   UNL     1      19.315  47.753  49.159  1.00  0.00     0.032 A 
BRANCH  35  40
HETATM   40  O   UNL     1      19.037  44.390  47.762  1.00  0.00    -0.354 OA
HETATM   41  C   UNL     1      19.237  44.272  46.361  1.00  0.00     0.210 C 
ENDBRANCH  35  40
ENDBRANCH  31  34
ENDBRANCH   9  30
TORSDOF 8
ENDMDL
MODEL 2
REMARK VINA RESULT:     -10.9      1.702      2.416
REMARK  8 active torsions:
REMARK  status: ('A' for Active; 'I' for Inactive)
REMARK    1  A    between atoms: C_4  and  S_5 
REMARK    2  A    between atoms: S_5  and  C_6 
REMARK    3  A    between atoms: C_6  and  C_7 
REMARK       I    between atoms: C_7  and  N_8 
REMARK    4  A    between atoms: N_8  and  C_9 
REMARK    5  A    between atoms: C_20  and  C_21 
REMARK    6  A    between atoms: C_27  and  C_28 
REMARK       I    between atoms: C_28  and  N_29 
REMARK    7  A    between atoms: N_29  and  C_30 
REMARK    8  A    between atoms: C_31  and  O_32 
ROOT
HETATM    1  C   UNL     1      22.542  44.982  47.822  1.00  0.00     0.069 C 
HETATM    2  C   UNL     1      23.381  45.670  48.873  1.00  0.00     0.019 C 
HETATM    3  N   UNL     1      24.317  44.868  49.507  1.00  0.00    -0.353 N 
HETATM    4  C   UNL     1      25.050  45.225  50.622  1.00  0.00     0.087 C 
HETATM    5  C   UNL     1      24.989  46.507  51.050  1.00  0.00     0.055 C 
HETATM    6  C   UNL     1      25.618  46.954  52.360  1.00  0.00     0.019 C 
HETATM    7  N   UNL     1      26.139  47.326  53.446  1.00  0.00    -0.096 N 
HETATM    8  C   UNL     1      24.293  47.570  50.202  1.00  0.00     0.104 C 
HETATM    9  C   UNL     1      23.308  46.989  49.186  1.00  0.00     0.046 C 
HETATM   10  H   UNL     1      24.360  43.885  49.249  1.00  0.00     0.166 HD
ENDROOT
BRANCH   4  11
HETATM   11  S   UNL     1      26.164  44.067  51.309  1.00  0.00    -0.102 SA
BRANCH  11  12
HETATM   12  C   UNL     1      25.363  43.564  52.863  1.00  0.00     0.184 C 
BRANCH  12  13
HETATM   13  C   UNL     1      26.326  43.659  54.055  1.00  0.00     0.231 C 
HETATM   14  N   UNL     1      27.635  43.952  53.712  1.00  0.00    -0.326 N 
HETATM   15  H   UNL     1      27.811  44.006  52.713  1.00  0.00     0.169 HD
HETATM   16  O   UNL     1      25.900  43.518  55.199  1.00  0.00    -0.272 OA
BRANCH  14  17
HETATM   17  C   UNL     1      28.760  44.082  54.547  1.00  0.00     0.036 A 
HETATM   18  C   UNL     1      28.886  45.042  55.550  1.00  0.00     0.053 A 
HETATM   19  C   UNL     1      30.043  45.081  56.334  1.00  0.00     0.036 A 
HETATM   20 CL   UNL     1      30.198  46.270  57.571  1.00  0.00    -0.084 Cl
HETATM   21  C   UNL     1      31.076  44.168  56.133  1.00  0.00     0.024 A 
HETATM   22  C   UNL     1      30.958  43.208  55.132  1.00  0.00     0.004 A 
HETATM   23  C   UNL     1      29.806  43.169  54.342  1.00  0.00     0.029 A 
ENDBRANCH  14  17
ENDBRANCH  12  13
ENDBRANCH  11  12
ENDBRANCH   4  11
BRANCH   8  24
HETATM   24  C   UNL     1      25.384  48.424  49.531  1.00  0.00    -0.044 A 
HETATM   25  C   UNL     1      26.752  48.179  49.765  1.00  0.00     0.008 A 
HETATM   26  C   UNL     1      27.734  48.998  49.208  1.00  0.00     0.001 A 
HETATM   27  C   UNL     1      27.369  50.082  48.417  1.00  0.00     0.000 A 
HETATM   28  C   UNL     1      26.020  50.348  48.184  1.00  0.00     0.001 A 
HETATM   29  C   UNL     1      25.032  49.527  48.735  1.00  0.00     0.008 A 
ENDBRANCH   8  24
BRANCH   9  30
HETATM   30  C   UNL     1      22.248  47.862  48.566  1.00  0.00     0.255 C 
HETATM   31  N   UNL     1      21.374  48.465  49.447  1.00  0.00    -0.321 N 
HETATM   32  H   UNL     1      21.266  48.096  50.377  1.00  0.00     0.169 HD
HETATM   33  O   UNL     1      22.129  47.907  47.343  1.00  0.00    -0.268 OA
BRANCH  31  34
HETATM   34  C   UNL     1      20.434  49.457  49.079  1.00  0.00     0.068 A 
HETATM   35  C   UNL     1      19.061  49.193  48.894  1.00  0.00     0.095 A 
HETATM   36  C   UNL     1      18.204  50.251  48.570  1.00  0.00     0.039 A 
HETATM   37  C   UNL     1      18.706  51.544  48.396  1.00  0.00     0.003 A 
HETATM   38  C   UNL     1      20.070  51.787  48.516  1.00  0.00     0.002 A 
HETATM   39  C   UNL     1      20.936  50.743  48.840  1.00  0.00     0.032 A 
BRANCH  35  40
HETATM   40  O   UNL     1      18.673  47.878  48.927  1.00  0.00    -0.354 OA
HETATM   41  C   UNL     1      17.286  47.592  48.825  1.00  0.00     0.210 C 
ENDBRANCH  35  40
ENDBRANCH  31  34
ENDBRANCH   9  30
TORSDOF 8
ENDMDL
MODEL 3
REMARK VINA RESULT:      -9.8     11.483     13.408
REMARK  8 active torsions:
REMARK  status: ('A' for Active; 'I' for Inactive)
REMARK    1  A    between atoms: C_4  and  S_5 
REMARK    2  A    between atoms: S_5  and  C_6 
REMARK    3  A    between atoms: C_6  and  C_7 
REMARK       I    between atoms: C_7  and  N_8 
REMARK    4  A    between atoms: N_8  and  C_9 
REMARK    5  A    between atoms: C_20  and  C_21 
REMARK    6  A    between atoms: C_27  and  C_28 
REMARK       I    between atoms: C_28  and  N_29 
REMARK    7  A    between atoms: N_29  and  C_30 
REMARK    8  A    between atoms: C_31  and  O_32 
ROOT
HETATM    1  C   UNL     1      25.523  49.206  39.318  1.00  0.00     0.069 C 
HETATM    2  C   UNL     1      26.989  49.506  39.111  1.00  0.00     0.019 C 
HETATM    3  N   UNL     1      27.331  50.848  39.136  1.00  0.00    -0.353 N 
HETATM    4  C   UNL     1      28.562  51.365  38.780  1.00  0.00     0.087 C 
HETATM    5  C   UNL     1      29.578  50.504  38.541  1.00  0.00     0.055 C 
HETATM    6  C   UNL     1      30.914  50.963  37.979  1.00  0.00     0.019 C 
HETATM    7  N   UNL     1      32.021  51.343  37.512  1.00  0.00    -0.096 N 
HETATM    8  C   UNL     1      29.420  49.018  38.859  1.00  0.00     0.104 C 
HETATM    9  C   UNL     1      27.960  48.569  38.957  1.00  0.00     0.046 C 
HETATM   10  H   UNL     1      26.588  51.531  39.262  1.00  0.00     0.166 HD
ENDROOT
BRANCH   4  11
HETATM   11  S   UNL     1      28.804  53.094  38.841  1.00  0.00    -0.102 SA
BRANCH  11  12
HETATM   12  C   UNL     1      29.108  53.428  40.603  1.00  0.00     0.184 C 
BRANCH  12  13
HETATM   13  C   UNL     1      30.607  53.414  40.934  1.00  0.00     0.231 C 
HETATM   14  N   UNL     1      31.093  52.183  41.338  1.00  0.00    -0.326 N 
HETATM   15  H   UNL     1      30.390  51.456  41.427  1.00  0.00     0.169 HD
HETATM   16  O   UNL     1      31.275  54.436  40.790  1.00  0.00    -0.272 OA
BRANCH  14  17
HETATM   17  C   UNL     1      32.398  51.834  41.734  1.00  0.00     0.036 A 
HETATM   18  C   UNL     1      33.413  51.464  40.854  1.00  0.00     0.053 A 
HETATM   19  C   UNL     1      34.682  51.146  41.349  1.00  0.00     0.036 A 
HETATM   20 CL   UNL     1      35.935  50.687  40.260  1.00  0.00    -0.084 Cl
HETATM   21  C   UNL     1      34.951  51.196  42.715  1.00  0.00     0.024 A 
HETATM   22  C   UNL     1      33.941  51.562  43.600  1.00  0.00     0.004 A 
HETATM   23  C   UNL     1      32.671  51.876  43.110  1.00  0.00     0.029 A 
ENDBRANCH  14  17
ENDBRANCH  12  13
ENDBRANCH  11  12
ENDBRANCH   4  11
BRANCH   8  24
HETATM   24  C   UNL     1      30.205  48.728  40.151  1.00  0.00    -0.044 A 
HETATM   25  C   UNL     1      29.647  48.985  41.419  1.00  0.00     0.008 A 
HETATM   26  C   UNL     1      30.388  48.784  42.584  1.00  0.00     0.001 A 
HETATM   27  C   UNL     1      31.701  48.334  42.503  1.00  0.00     0.000 A 
HETATM   28  C   UNL     1      32.275  48.085  41.257  1.00  0.00     0.001 A 
HETATM   29  C   UNL     1      31.535  48.280  40.087  1.00  0.00     0.008 A 
ENDBRANCH   8  24
BRANCH   9  30
HETATM   30  C   UNL     1      27.602  47.110  38.850  1.00  0.00     0.255 C 
HETATM   31  N   UNL     1      27.699  46.380  40.017  1.00  0.00    -0.321 N 
HETATM   32  H   UNL     1      28.261  46.724  40.778  1.00  0.00     0.169 HD
HETATM   33  O   UNL     1      27.363  46.616  37.751  1.00  0.00    -0.268 OA
BRANCH  31  34
HETATM   34  C   UNL     1      27.235  45.051  40.164  1.00  0.00     0.068 A 
HETATM   35  C   UNL     1      28.046  43.918  39.941  1.00  0.00     0.095 A 
HETATM   36  C   UNL     1      27.503  42.645  40.152  1.00  0.00     0.039 A 
HETATM   37  C   UNL     1      26.170  42.495  40.542  1.00  0.00     0.003 A 
HETATM   38  C   UNL     1      25.357  43.613  40.698  1.00  0.00     0.002 A 
HETATM   39  C   UNL     1      25.883  44.889  40.492  1.00  0.00     0.032 A 
BRANCH  35  40
HETATM   40  O   UNL     1      29.290  44.141  39.410  1.00  0.00    -0.354 OA
HETATM   41  C   UNL     1      29.492  43.831  38.039  1.00  0.00     0.210 C 
ENDBRANCH  35  40
ENDBRANCH  31  34
ENDBRANCH   9  30
TORSDOF 8
ENDMDL
MODEL 4
REMARK VINA RESULT:      -9.7      3.955     10.581
REMARK  8 active torsions:
REMARK  status: ('A' for Active; 'I' for Inactive)
REMARK    1  A    between atoms: C_4  and  S_5 
REMARK    2  A    between atoms: S_5  and  C_6 
REMARK    3  A    between atoms: C_6  and  C_7 
REMARK       I    between atoms: C_7  and  N_8 
REMARK    4  A    between atoms: N_8  and  C_9 
REMARK    5  A    between atoms: C_20  and  C_21 
REMARK    6  A    between atoms: C_27  and  C_28 
REMARK       I    between atoms: C_28  and  N_29 
REMARK    7  A    between atoms: N_29  and  C_30 
REMARK    8  A    between atoms: C_31  and  O_32 
ROOT
HETATM    1  C   UNL     1      26.834  47.118  52.835  1.00  0.00     0.069 C 
HETATM    2  C   UNL     1      26.105  45.944  52.226  1.00  0.00     0.019 C 
HETATM    3  N   UNL     1      25.304  46.240  51.135  1.00  0.00    -0.353 N 
HETATM    4  C   UNL     1      24.404  45.373  50.547  1.00  0.00     0.087 C 
HETATM    5  C   UNL     1      24.402  44.078  50.943  1.00  0.00     0.055 C 
HETATM    6  C   UNL     1      23.340  43.092  50.483  1.00  0.00     0.019 C 
HETATM    7  N   UNL     1      22.460  42.274  50.103  1.00  0.00    -0.096 N 
HETATM    8  C   UNL     1      25.502  43.553  51.863  1.00  0.00     0.104 C 
HETATM    9  C   UNL     1      26.223  44.656  52.641  1.00  0.00     0.046 C 
HETATM   10  H   UNL     1      25.238  47.209  50.837  1.00  0.00     0.166 HD
ENDROOT
BRANCH   4  11
HETATM   11  S   UNL     1      23.450  45.932  49.194  1.00  0.00    -0.102 SA
BRANCH  11  12
HETATM   12  C   UNL     1      23.574  47.744  49.295  1.00  0.00     0.184 C 
BRANCH  12  13
HETATM   13  C   UNL     1      22.412  48.435  48.568  1.00  0.00     0.231 C 
HETATM   14  N   UNL     1      21.612  49.220  49.381  1.00  0.00    -0.326 N 
HETATM   15  H   UNL     1      21.853  49.194  50.367  1.00  0.00     0.169 HD
HETATM   16  O   UNL     1      22.280  48.296  47.353  1.00  0.00    -0.272 OA
BRANCH  14  17
HETATM   17  C   UNL     1      20.464  49.960  49.043  1.00  0.00     0.036 A 
HETATM   18  C   UNL     1      19.189  49.412  48.910  1.00  0.00     0.053 A 
HETATM   19  C   UNL     1      18.108  50.236  48.581  1.00  0.00     0.036 A 
HETATM   20 CL   UNL     1      16.534  49.558  48.415  1.00  0.00    -0.084 Cl
HETATM   21  C   UNL     1      18.284  51.605  48.389  1.00  0.00     0.024 A 
HETATM   22  C   UNL     1      19.554  52.158  48.518  1.00  0.00     0.004 A 
HETATM   23  C   UNL     1      20.638  51.337  48.841  1.00  0.00     0.029 A 
ENDBRANCH  14  17
ENDBRANCH  12  13
ENDBRANCH  11  12
ENDBRANCH   4  11
BRANCH   8  24
HETATM   24  C   UNL     1      26.471  42.718  51.007  1.00  0.00    -0.044 A 
HETATM   25  C   UNL     1      26.502  42.843  49.603  1.00  0.00     0.008 A 
HETATM   26  C   UNL     1      27.333  42.035  48.828  1.00  0.00     0.001 A 
HETATM   27  C   UNL     1      28.140  41.080  49.437  1.00  0.00     0.000 A 
HETATM   28  C   UNL     1      28.114  40.932  50.823  1.00  0.00     0.001 A 
HETATM   29  C   UNL     1      27.287  41.743  51.605  1.00  0.00     0.008 A 
ENDBRANCH   8  24
BRANCH   9  30
HETATM   30  C   UNL     1      27.027  44.321  53.870  1.00  0.00     0.255 C 
HETATM   31  N   UNL     1      28.395  44.448  53.747  1.00  0.00    -0.321 N 
HETATM   32  H   UNL     1      28.818  44.452  52.834  1.00  0.00     0.169 HD
HETATM   33  O   UNL     1      26.468  43.852  54.859  1.00  0.00    -0.268 OA
BRANCH  31  34
HETATM   34  C   UNL     1      29.302  44.360  54.831  1.00  0.00     0.068 A 
HETATM   35  C   UNL     1      29.518  45.410  55.747  1.00  0.00     0.095 A 
HETATM   36  C   UNL     1      30.408  45.210  56.809  1.00  0.00     0.039 A 
HETATM   37  C   UNL     1      31.099  44.003  56.940  1.00  0.00     0.003 A 
HETATM   38  C   UNL     1      30.931  42.994  55.997  1.00  0.00     0.002 A 
HETATM   39  C   UNL     1      30.047  43.178  54.934  1.00  0.00     0.032 A 
BRANCH  35  40
HETATM   40  O   UNL     1      28.925  46.613  55.463  1.00  0.00    -0.354 OA
HETATM   41  C   UNL     1      27.840  47.027  56.279  1.00  0.00     0.210 C 
ENDBRANCH  35  40
ENDBRANCH  31  34
ENDBRANCH   9  30
TORSDOF 8
ENDMDL
MODEL 5
REMARK VINA RESULT:      -9.4      3.766      9.731
REMARK  8 active torsions:
REMARK  status: ('A' for Active; 'I' for Inactive)
REMARK    1  A    between atoms: C_4  and  S_5 
REMARK    2  A    between atoms: S_5  and  C_6 
REMARK    3  A    between atoms: C_6  and  C_7 
REMARK       I    between atoms: C_7  and  N_8 
REMARK    4  A    between atoms: N_8  and  C_9 
REMARK    5  A    between atoms: C_20  and  C_21 
REMARK    6  A    between atoms: C_27  and  C_28 
REMARK       I    between atoms: C_28  and  N_29 
REMARK    7  A    between atoms: N_29  and  C_30 
REMARK    8  A    between atoms: C_31  and  O_32 
ROOT
HETATM    1  C   UNL     1      26.245  46.197  50.510  1.00  0.00     0.069 C 
HETATM    2  C   UNL     1      25.614  44.894  50.080  1.00  0.00     0.019 C 
HETATM    3  N   UNL     1      24.946  44.927  48.867  1.00  0.00    -0.353 N 
HETATM    4  C   UNL     1      24.137  43.921  48.373  1.00  0.00     0.087 C 
HETATM    5  C   UNL     1      24.109  42.737  49.027  1.00  0.00     0.055 C 
HETATM    6  C   UNL     1      23.127  41.635  48.665  1.00  0.00     0.019 C 
HETATM    7  N   UNL     1      22.312  40.720  48.366  1.00  0.00    -0.096 N 
HETATM    8  C   UNL     1      25.099  42.457  50.157  1.00  0.00     0.104 C 
HETATM    9  C   UNL     1      25.702  43.724  50.765  1.00  0.00     0.046 C 
HETATM   10  H   UNL     1      24.901  45.811  48.367  1.00  0.00     0.166 HD
ENDROOT
BRANCH   4  11
HETATM   11  S   UNL     1      23.345  44.151  46.833  1.00  0.00    -0.102 SA
BRANCH  11  12
HETATM   12  C   UNL     1      21.734  44.872  47.278  1.00  0.00     0.184 C 
BRANCH  12  13
HETATM   13  C   UNL     1      21.716  46.393  47.070  1.00  0.00     0.231 C 
HETATM   14  N   UNL     1      22.249  47.121  48.120  1.00  0.00    -0.326 N 
HETATM   15  H   UNL     1      22.529  46.567  48.923  1.00  0.00     0.169 HD
HETATM   16  O   UNL     1      21.289  46.862  46.017  1.00  0.00    -0.272 OA
BRANCH  14  17
HETATM   17  C   UNL     1      22.360  48.517  48.261  1.00  0.00     0.036 A 
HETATM   18  C   UNL     1      21.274  49.388  48.332  1.00  0.00     0.053 A 
HETATM   19  C   UNL     1      21.492  50.761  48.485  1.00  0.00     0.036 A 
HETATM   20 CL   UNL     1      20.148  51.836  48.569  1.00  0.00    -0.084 Cl
HETATM   21  C   UNL     1      22.783  51.276  48.573  1.00  0.00     0.024 A 
HETATM   22  C   UNL     1      23.872  50.412  48.502  1.00  0.00     0.004 A 
HETATM   23  C   UNL     1      23.660  49.040  48.344  1.00  0.00     0.029 A 
ENDBRANCH  14  17
ENDBRANCH  12  13
ENDBRANCH  11  12
ENDBRANCH   4  11
BRANCH   8  24
HETATM   24  C   UNL     1      26.177  41.504  49.611  1.00  0.00    -0.044 A 
HETATM   25  C   UNL     1      26.950  41.844  48.482  1.00  0.00     0.008 A 
HETATM   26  C   UNL     1      27.878  40.948  47.951  1.00  0.00     0.001 A 
HETATM   27  C   UNL     1      28.044  39.694  48.529  1.00  0.00     0.000 A 
HETATM   28  C   UNL     1      27.279  39.335  49.638  1.00  0.00     0.001 A 
HETATM   29  C   UNL     1      26.351  40.230  50.178  1.00  0.00     0.008 A 
ENDBRANCH   8  24
BRANCH   9  30
HETATM   30  C   UNL     1      26.357  43.683  52.121  1.00  0.00     0.255 C 
HETATM   31  N   UNL     1      27.735  43.744  52.126  1.00  0.00    -0.321 N 
HETATM   32  H   UNL     1      28.250  43.515  51.292  1.00  0.00     0.169 HD
HETATM   33  O   UNL     1      25.676  43.482  53.125  1.00  0.00    -0.268 OA
BRANCH  31  34
HETATM   34  C   UNL     1      28.519  43.903  53.293  1.00  0.00     0.068 A 
HETATM   35  C   UNL     1      29.486  42.964  53.711  1.00  0.00     0.095 A 
HETATM   36  C   UNL     1      30.239  43.232  54.860  1.00  0.00     0.039 A 
HETATM   37  C   UNL     1      30.013  44.394  55.604  1.00  0.00     0.003 A 
HETATM   38  C   UNL     1      29.015  45.284  55.224  1.00  0.00     0.002 A 
HETATM   39  C   UNL     1      28.257  45.031  54.081  1.00  0.00     0.032 A 
BRANCH  35  40
HETATM   40  O   UNL     1      29.539  41.780  53.020  1.00  0.00    -0.354 OA
HETATM   41  C   UNL     1      28.563  40.794  53.318  1.00  0.00     0.210 C 
ENDBRANCH  35  40
ENDBRANCH  31  34
ENDBRANCH   9  30
TORSDOF 8
ENDMDL
MODEL 6
REMARK VINA RESULT:      -9.3      3.644      9.702
REMARK  8 active torsions:
REMARK  status: ('A' for Active; 'I' for Inactive)
REMARK    1  A    between atoms: C_4  and  S_5 
REMARK    2  A    between atoms: S_5  and  C_6 
REMARK    3  A    between atoms: C_6  and  C_7 
REMARK       I    between atoms: C_7  and  N_8 
REMARK    4  A    between atoms: N_8  and  C_9 
REMARK    5  A    between atoms: C_20  and  C_21 
REMARK    6  A    between atoms: C_27  and  C_28 
REMARK       I    between atoms: C_28  and  N_29 
REMARK    7  A    between atoms: N_29  and  C_30 
REMARK    8  A    between atoms: C_31  and  O_32 
ROOT
HETATM    1  C   UNL     1      26.142  46.431  50.769  1.00  0.00     0.069 C 
HETATM    2  C   UNL     1      25.607  45.096  50.309  1.00  0.00     0.019 C 
HETATM    3  N   UNL     1      24.960  45.104  49.084  1.00  0.00    -0.353 N 
HETATM    4  C   UNL     1      24.228  44.055  48.561  1.00  0.00     0.087 C 
HETATM    5  C   UNL     1      24.266  42.861  49.198  1.00  0.00     0.055 C 
HETATM    6  C   UNL     1      23.366  41.703  48.802  1.00  0.00     0.019 C 
HETATM    7  N   UNL     1      22.619  40.741  48.474  1.00  0.00    -0.096 N 
HETATM    8  C   UNL     1      25.252  42.630  50.342  1.00  0.00     0.104 C 
HETATM    9  C   UNL     1      25.759  43.925  50.979  1.00  0.00     0.046 C 
HETATM   10  H   UNL     1      24.866  45.991  48.595  1.00  0.00     0.166 HD
ENDROOT
BRANCH   4  11
HETATM   11  S   UNL     1      23.451  44.255  47.009  1.00  0.00    -0.102 SA
BRANCH  11  12
HETATM   12  C   UNL     1      21.805  44.909  47.430  1.00  0.00     0.184 C 
BRANCH  12  13
HETATM   13  C   UNL     1      21.720  46.425  47.198  1.00  0.00     0.231 C 
HETATM   14  N   UNL     1      22.261  47.191  48.216  1.00  0.00    -0.326 N 
HETATM   15  H   UNL     1      22.589  46.663  49.019  1.00  0.00     0.169 HD
HETATM   16  O   UNL     1      21.239  46.859  46.154  1.00  0.00    -0.272 OA
BRANCH  14  17
HETATM   17  C   UNL     1      22.322  48.593  48.332  1.00  0.00     0.036 A 
HETATM   18  C   UNL     1      21.212  49.413  48.530  1.00  0.00     0.053 A 
HETATM   19  C   UNL     1      21.381  50.797  48.642  1.00  0.00     0.036 A 
HETATM   20 CL   UNL     1      20.009  51.809  48.884  1.00  0.00    -0.084 Cl
HETATM   21  C   UNL     1      22.648  51.372  48.565  1.00  0.00     0.024 A 
HETATM   22  C   UNL     1      23.760  50.559  48.365  1.00  0.00     0.004 A 
HETATM   23  C   UNL     1      23.595  49.177  48.246  1.00  0.00     0.029 A 
ENDBRANCH  14  17
ENDBRANCH  12  13
ENDBRANCH  11  12
ENDBRANCH   4  11
BRANCH   8  24
HETATM   24  C   UNL     1      26.400  41.758  49.804  1.00  0.00    -0.044 A 
HETATM   25  C   UNL     1      26.840  41.871  48.470  1.00  0.00     0.008 A 
HETATM   26  C   UNL     1      27.835  41.031  47.969  1.00  0.00     0.001 A 
HETATM   27  C   UNL     1      28.401  40.058  48.785  1.00  0.00     0.000 A 
HETATM   28  C   UNL     1      27.969  39.923  50.104  1.00  0.00     0.001 A 
HETATM   29  C   UNL     1      26.976  40.765  50.613  1.00  0.00     0.008 A 
ENDBRANCH   8  24
BRANCH   9  30
HETATM   30  C   UNL     1      26.390  43.906  52.347  1.00  0.00     0.255 C 
HETATM   31  N   UNL     1      27.767  43.981  52.375  1.00  0.00    -0.321 N 
HETATM   32  H   UNL     1      28.299  43.746  51.553  1.00  0.00     0.169 HD
HETATM   33  O   UNL     1      25.694  43.711  53.341  1.00  0.00    -0.268 OA
BRANCH  31  34
HETATM   34  C   UNL     1      28.530  44.161  53.554  1.00  0.00     0.068 A 
HETATM   35  C   UNL     1      28.378  45.270  54.412  1.00  0.00     0.095 A 
HETATM   36  C   UNL     1      29.153  45.337  55.576  1.00  0.00     0.039 A 
HETATM   37  C   UNL     1      30.088  44.340  55.867  1.00  0.00     0.003 A 
HETATM   38  C   UNL     1      30.279  43.282  54.984  1.00  0.00     0.002 A 
HETATM   39  C   UNL     1      29.514  43.201  53.821  1.00  0.00     0.032 A 
BRANCH  35  40
HETATM   40  O   UNL     1      27.558  46.281  53.981  1.00  0.00    -0.354 OA
HETATM   41  C   UNL     1      27.366  47.393  54.841  1.00  0.00     0.210 C 
ENDBRANCH  35  40
ENDBRANCH  31  34
ENDBRANCH   9  30
TORSDOF 8
ENDMDL
MODEL 7
REMARK VINA RESULT:      -9.1      3.170      4.570
REMARK  8 active torsions:
REMARK  status: ('A' for Active; 'I' for Inactive)
REMARK    1  A    between atoms: C_4  and  S_5 
REMARK    2  A    between atoms: S_5  and  C_6 
REMARK    3  A    between atoms: C_6  and  C_7 
REMARK       I    between atoms: C_7  and  N_8 
REMARK    4  A    between atoms: N_8  and  C_9 
REMARK    5  A    between atoms: C_20  and  C_21 
REMARK    6  A    between atoms: C_27  and  C_28 
REMARK       I    between atoms: C_28  and  N_29 
REMARK    7  A    between atoms: N_29  and  C_30 
REMARK    8  A    between atoms: C_31  and  O_32 
ROOT
HETATM    1  C   UNL     1      23.860  43.599  47.966  1.00  0.00     0.069 C 
HETATM    2  C   UNL     1      24.284  44.612  49.003  1.00  0.00     0.019 C 
HETATM    3  N   UNL     1      25.421  44.285  49.725  1.00  0.00    -0.353 N 
HETATM    4  C   UNL     1      25.877  44.956  50.843  1.00  0.00     0.087 C 
HETATM    5  C   UNL     1      25.280  46.121  51.184  1.00  0.00     0.055 C 
HETATM    6  C   UNL     1      25.592  46.842  52.486  1.00  0.00     0.019 C 
HETATM    7  N   UNL     1      25.850  47.439  53.565  1.00  0.00    -0.096 N 
HETATM    8  C   UNL     1      24.271  46.775  50.241  1.00  0.00     0.104 C 
HETATM    9  C   UNL     1      23.668  45.801  49.226  1.00  0.00     0.046 C 
HETATM   10  H   UNL     1      25.871  43.393  49.534  1.00  0.00     0.166 HD
ENDROOT
BRANCH   4  11
HETATM   11  S   UNL     1      27.316  44.379  51.649  1.00  0.00    -0.102 SA
BRANCH  11  12
HETATM   12  C   UNL     1      26.862  42.706  52.203  1.00  0.00     0.184 C 
BRANCH  12  13
HETATM   13  C   UNL     1      27.544  41.623  51.356  1.00  0.00     0.231 C 
HETATM   14  N   UNL     1      26.798  41.187  50.274  1.00  0.00    -0.326 N 
HETATM   15  H   UNL     1      25.868  41.589  50.209  1.00  0.00     0.169 HD
HETATM   16  O   UNL     1      28.679  41.246  51.641  1.00  0.00    -0.272 OA
BRANCH  14  17
HETATM   17  C   UNL     1      27.113  40.197  49.324  1.00  0.00     0.036 A 
HETATM   18  C   UNL     1      26.664  38.879  49.385  1.00  0.00     0.053 A 
HETATM   19  C   UNL     1      27.026  37.974  48.382  1.00  0.00     0.036 A 
HETATM   20 CL   UNL     1      26.473  36.344  48.461  1.00  0.00    -0.084 Cl
HETATM   21  C   UNL     1      27.826  38.371  47.313  1.00  0.00     0.024 A 
HETATM   22  C   UNL     1      28.278  39.686  47.246  1.00  0.00     0.004 A 
HETATM   23  C   UNL     1      27.925  40.592  48.250  1.00  0.00     0.029 A 
ENDBRANCH  14  17
ENDBRANCH  12  13
ENDBRANCH  11  12
ENDBRANCH   4  11
BRANCH   8  24
HETATM   24  C   UNL     1      24.967  47.966  49.559  1.00  0.00    -0.044 A 
HETATM   25  C   UNL     1      24.225  48.983  48.927  1.00  0.00     0.008 A 
HETATM   26  C   UNL     1      24.863  50.024  48.253  1.00  0.00     0.001 A 
HETATM   27  C   UNL     1      26.252  50.063  48.187  1.00  0.00     0.000 A 
HETATM   28  C   UNL     1      27.003  49.058  48.796  1.00  0.00     0.001 A 
HETATM   29  C   UNL     1      26.369  48.016  49.477  1.00  0.00     0.008 A 
ENDBRANCH   8  24
BRANCH   9  30
HETATM   30  C   UNL     1      22.389  46.143  48.508  1.00  0.00     0.255 C 
HETATM   31  N   UNL     1      21.224  45.744  49.130  1.00  0.00    -0.321 N 
HETATM   32  H   UNL     1      21.252  45.018  49.828  1.00  0.00     0.169 HD
HETATM   33  O   UNL     1      22.430  46.636  47.383  1.00  0.00    -0.268 OA
BRANCH  31  34
HETATM   34  C   UNL     1      19.927  46.128  48.713  1.00  0.00     0.068 A 
HETATM   35  C   UNL     1      19.090  45.306  47.930  1.00  0.00     0.095 A 
HETATM   36  C   UNL     1      17.807  45.762  47.602  1.00  0.00     0.039 A 
HETATM   37  C   UNL     1      17.376  47.026  48.011  1.00  0.00     0.003 A 
HETATM   38  C   UNL     1      18.229  47.859  48.727  1.00  0.00     0.002 A 
HETATM   39  C   UNL     1      19.509  47.418  49.063  1.00  0.00     0.032 A 
BRANCH  35  40
HETATM   40  O   UNL     1      19.640  44.151  47.437  1.00  0.00    -0.354 OA
HETATM   41  C   UNL     1      19.265  43.742  46.131  1.00  0.00     0.210 C 
ENDBRANCH  35  40
ENDBRANCH  31  34
ENDBRANCH   9  30
TORSDOF 8
ENDMDL
MODEL 8
REMARK VINA RESULT:      -8.6     10.422     13.193
REMARK  8 active torsions:
REMARK  status: ('A' for Active; 'I' for Inactive)
REMARK    1  A    between atoms: C_4  and  S_5 
REMARK    2  A    between atoms: S_5  and  C_6 
REMARK    3  A    between atoms: C_6  and  C_7 
REMARK       I    between atoms: C_7  and  N_8 
REMARK    4  A    between atoms: N_8  and  C_9 
REMARK    5  A    between atoms: C_20  and  C_21 
REMARK    6  A    between atoms: C_27  and  C_28 
REMARK       I    between atoms: C_28  and  N_29 
REMARK    7  A    between atoms: N_29  and  C_30 
REMARK    8  A    between atoms: C_31  and  O_32 
ROOT
HETATM    1  C   UNL     1      25.676  48.870  39.666  1.00  0.00     0.069 C 
HETATM    2  C   UNL     1      27.113  49.234  39.376  1.00  0.00     0.019 C 
HETATM    3  N   UNL     1      27.398  50.590  39.389  1.00  0.00    -0.353 N 
HETATM    4  C   UNL     1      28.582  51.161  38.965  1.00  0.00     0.087 C 
HETATM    5  C   UNL     1      29.619  50.345  38.663  1.00  0.00     0.055 C 
HETATM    6  C   UNL     1      30.898  50.864  38.026  1.00  0.00     0.019 C 
HETATM    7  N   UNL     1      31.959  51.293  37.498  1.00  0.00    -0.096 N 
HETATM    8  C   UNL     1      29.543  48.853  38.980  1.00  0.00     0.104 C 
HETATM    9  C   UNL     1      28.113  48.341  39.160  1.00  0.00     0.046 C 
HETATM   10  H   UNL     1      26.635  51.240  39.563  1.00  0.00     0.166 HD
ENDROOT
BRANCH   4  11
HETATM   11  S   UNL     1      28.753  52.898  39.022  1.00  0.00    -0.102 SA
BRANCH  11  12
HETATM   12  C   UNL     1      29.210  53.233  40.752  1.00  0.00     0.184 C 
BRANCH  12  13
HETATM   13  C   UNL     1      30.733  53.234  40.947  1.00  0.00     0.231 C 
HETATM   14  N   UNL     1      31.258  52.022  41.360  1.00  0.00    -0.326 N 
HETATM   15  H   UNL     1      30.569  51.299  41.545  1.00  0.00     0.169 HD
HETATM   16  O   UNL     1      31.382  54.248  40.697  1.00  0.00    -0.272 OA
BRANCH  14  17
HETATM   17  C   UNL     1      32.594  51.691  41.653  1.00  0.00     0.036 A 
HETATM   18  C   UNL     1      33.241  52.019  42.844  1.00  0.00     0.053 A 
HETATM   19  C   UNL     1      34.571  51.634  43.043  1.00  0.00     0.036 A 
HETATM   20 CL   UNL     1      35.370  52.042  44.513  1.00  0.00    -0.084 Cl
HETATM   21  C   UNL     1      35.263  50.918  42.067  1.00  0.00     0.024 A 
HETATM   22  C   UNL     1      34.623  50.588  40.876  1.00  0.00     0.004 A 
HETATM   23  C   UNL     1      33.297  50.977  40.671  1.00  0.00     0.029 A 
ENDBRANCH  14  17
ENDBRANCH  12  13
ENDBRANCH  11  12
ENDBRANCH   4  11
BRANCH   8  24
HETATM   24  C   UNL     1      30.414  48.592  40.222  1.00  0.00    -0.044 A 
HETATM   25  C   UNL     1      31.631  47.887  40.127  1.00  0.00     0.008 A 
HETATM   26  C   UNL     1      32.382  47.595  41.266  1.00  0.00     0.001 A 
HETATM   27  C   UNL     1      31.927  47.990  42.520  1.00  0.00     0.000 A 
HETATM   28  C   UNL     1      30.719  48.677  42.635  1.00  0.00     0.001 A 
HETATM   29  C   UNL     1      29.965  48.977  41.496  1.00  0.00     0.008 A 
ENDBRANCH   8  24
BRANCH   9  30
HETATM   30  C   UNL     1      27.812  46.868  39.066  1.00  0.00     0.255 C 
HETATM   31  N   UNL     1      28.070  46.127  40.200  1.00  0.00    -0.321 N 
HETATM   32  H   UNL     1      28.695  46.487  40.902  1.00  0.00     0.169 HD
HETATM   33  O   UNL     1      27.477  46.378  37.989  1.00  0.00    -0.268 OA
BRANCH  31  34
HETATM   34  C   UNL     1      27.685  44.776  40.372  1.00  0.00     0.068 A 
HETATM   35  C   UNL     1      26.655  44.368  41.245  1.00  0.00     0.095 A 
HETATM   36  C   UNL     1      26.323  43.010  41.314  1.00  0.00     0.039 A 
HETATM   37  C   UNL     1      27.025  42.067  40.559  1.00  0.00     0.003 A 
HETATM   38  C   UNL     1      28.083  42.466  39.749  1.00  0.00     0.002 A 
HETATM   39  C   UNL     1      28.424  43.816  39.669  1.00  0.00     0.032 A 
BRANCH  35  40
HETATM   40  O   UNL     1      26.122  45.329  42.066  1.00  0.00    -0.354 OA
HETATM   41  C   UNL     1      24.721  45.550  42.006  1.00  0.00     0.210 C 
ENDBRANCH  35  40
ENDBRANCH  31  34
ENDBRANCH   9  30
TORSDOF 8
ENDMDL
MODEL 9
REMARK VINA RESULT:      -8.6      3.677      9.925
REMARK  8 active torsions:
REMARK  status: ('A' for Active; 'I' for Inactive)
REMARK    1  A    between atoms: C_4  and  S_5 
REMARK    2  A    between atoms: S_5  and  C_6 
REMARK    3  A    between atoms: C_6  and  C_7 
REMARK       I    between atoms: C_7  and  N_8 
REMARK    4  A    between atoms: N_8  and  C_9 
REMARK    5  A    between atoms: C_20  and  C_21 
REMARK    6  A    between atoms: C_27  and  C_28 
REMARK       I    between atoms: C_28  and  N_29 
REMARK    7  A    between atoms: N_29  and  C_30 
REMARK    8  A    between atoms: C_31  and  O_32 
ROOT
HETATM    1  C   UNL     1      25.384  46.135  49.682  1.00  0.00     0.069 C 
HETATM    2  C   UNL     1      24.915  44.742  49.336  1.00  0.00     0.019 C 
HETATM    3  N   UNL     1      24.365  44.595  48.073  1.00  0.00    -0.353 N 
HETATM    4  C   UNL     1      23.700  43.473  47.617  1.00  0.00     0.087 C 
HETATM    5  C   UNL     1      23.713  42.359  48.385  1.00  0.00     0.055 C 
HETATM    6  C   UNL     1      22.871  41.137  48.054  1.00  0.00     0.019 C 
HETATM    7  N   UNL     1      22.173  40.124  47.781  1.00  0.00    -0.096 N 
HETATM    8  C   UNL     1      24.611  42.284  49.618  1.00  0.00     0.104 C 
HETATM    9  C   UNL     1      25.040  43.656  50.143  1.00  0.00     0.046 C 
HETATM   10  H   UNL     1      24.290  45.419  47.482  1.00  0.00     0.166 HD
ENDROOT
BRANCH   4  11
HETATM   11  S   UNL     1      23.041  43.479  45.999  1.00  0.00    -0.102 SA
BRANCH  11  12
HETATM   12  C   UNL     1      22.204  45.090  45.876  1.00  0.00     0.184 C 
BRANCH  12  13
HETATM   13  C   UNL     1      21.001  45.179  46.826  1.00  0.00     0.231 C 
HETATM   14  N   UNL     1      20.486  46.455  46.979  1.00  0.00    -0.326 N 
HETATM   15  H   UNL     1      21.003  47.184  46.497  1.00  0.00     0.169 HD
HETATM   16  O   UNL     1      20.552  44.159  47.343  1.00  0.00    -0.272 OA
BRANCH  14  17
HETATM   17  C   UNL     1      19.416  46.886  47.786  1.00  0.00     0.036 A 
HETATM   18  C   UNL     1      19.568  47.543  49.006  1.00  0.00     0.053 A 
HETATM   19  C   UNL     1      18.438  47.941  49.727  1.00  0.00     0.036 A 
HETATM   20 CL   UNL     1      18.627  48.751  51.235  1.00  0.00    -0.084 Cl
HETATM   21  C   UNL     1      17.155  47.694  49.242  1.00  0.00     0.024 A 
HETATM   22  C   UNL     1      16.996  47.036  48.026  1.00  0.00     0.004 A 
HETATM   23  C   UNL     1      18.123  46.632  47.305  1.00  0.00     0.029 A 
ENDBRANCH  14  17
ENDBRANCH  12  13
ENDBRANCH  11  12
ENDBRANCH   4  11
BRANCH   8  24
HETATM   24  C   UNL     1      25.817  41.394  49.268  1.00  0.00    -0.044 A 
HETATM   25  C   UNL     1      26.606  41.645  48.128  1.00  0.00     0.008 A 
HETATM   26  C   UNL     1      27.655  40.795  47.779  1.00  0.00     0.001 A 
HETATM   27  C   UNL     1      27.929  39.673  48.554  1.00  0.00     0.000 A 
HETATM   28  C   UNL     1      27.152  39.401  49.679  1.00  0.00     0.001 A 
HETATM   29  C   UNL     1      26.102  40.252  50.036  1.00  0.00     0.008 A 
ENDBRANCH   8  24
BRANCH   9  30
HETATM   30  C   UNL     1      25.563  43.807  51.547  1.00  0.00     0.255 C 
HETATM   31  N   UNL     1      26.934  43.878  51.674  1.00  0.00    -0.321 N 
HETATM   32  H   UNL     1      27.525  43.540  50.932  1.00  0.00     0.169 HD
HETATM   33  O   UNL     1      24.789  43.741  52.500  1.00  0.00    -0.268 OA
BRANCH  31  34
HETATM   34  C   UNL     1      27.606  44.202  52.878  1.00  0.00     0.068 A 
HETATM   35  C   UNL     1      28.671  43.438  53.400  1.00  0.00     0.095 A 
HETATM   36  C   UNL     1      29.296  43.865  54.578  1.00  0.00     0.039 A 
HETATM   37  C   UNL     1      28.850  45.008  55.246  1.00  0.00     0.003 A 
HETATM   38  C   UNL     1      27.759  45.721  54.762  1.00  0.00     0.002 A 
HETATM   39  C   UNL     1      27.126  45.309  53.589  1.00  0.00     0.032 A 
BRANCH  35  40
HETATM   40  O   UNL     1      28.946  42.249  52.775  1.00  0.00    -0.354 OA
HETATM   41  C   UNL     1      28.423  41.061  53.349  1.00  0.00     0.210 C 
ENDBRANCH  35  40
ENDBRANCH  31  34
ENDBRANCH   9  30
TORSDOF 8
ENDMDL
MODEL 10
REMARK VINA RESULT:      -8.5     20.000     23.570
REMARK  8 active torsions:
REMARK  status: ('A' for Active; 'I' for Inactive)
REMARK    1  A    between atoms: C_4  and  S_5 
REMARK    2  A    between atoms: S_5  and  C_6 
REMARK    3  A    between atoms: C_6  and  C_7 
REMARK       I    between atoms: C_7  and  N_8 
REMARK    4  A    between atoms: N_8  and  C_9 
REMARK    5  A    between atoms: C_20  and  C_21 
REMARK    6  A    between atoms: C_27  and  C_28 
REMARK       I    between atoms: C_28  and  N_29 
REMARK    7  A    between atoms: N_29  and  C_30 
REMARK    8  A    between atoms: C_31  and  O_32 
ROOT
HETATM    1  C   UNL     1      44.341  40.714  65.607  1.00  0.00     0.069 C 
HETATM    2  C   UNL     1      43.074  41.438  65.995  1.00  0.00     0.019 C 
HETATM    3  N   UNL     1      43.243  42.746  66.420  1.00  0.00    -0.353 N 
HETATM    4  C   UNL     1      42.264  43.528  67.003  1.00  0.00     0.087 C 
HETATM    5  C   UNL     1      40.993  43.063  67.023  1.00  0.00     0.055 C 
HETATM    6  C   UNL     1      39.885  43.767  67.789  1.00  0.00     0.019 C 
HETATM    7  N   UNL     1      38.966  44.349  68.425  1.00  0.00    -0.096 N 
HETATM    8  C   UNL     1      40.621  41.805  66.240  1.00  0.00     0.104 C 
HETATM    9  C   UNL     1      41.823  40.918  65.909  1.00  0.00     0.046 C 
HETATM   10  H   UNL     1      44.188  43.118  66.468  1.00  0.00     0.166 HD
ENDROOT
BRANCH   4  11
HETATM   11  S   UNL     1      42.668  45.151  67.510  1.00  0.00    -0.102 SA
BRANCH  11  12
HETATM   12  C   UNL     1      43.132  45.986  65.961  1.00  0.00     0.184 C 
BRANCH  12  13
HETATM   13  C   UNL     1      41.904  46.314  65.102  1.00  0.00     0.231 C 
HETATM   14  N   UNL     1      40.781  46.682  65.824  1.00  0.00    -0.326 N 
HETATM   15  H   UNL     1      40.887  46.629  66.832  1.00  0.00     0.169 HD
HETATM   16  O   UNL     1      41.986  46.277  63.876  1.00  0.00    -0.272 OA
BRANCH  14  17
HETATM   17  C   UNL     1      39.497  47.016  65.354  1.00  0.00     0.036 A 
HETATM   18  C   UNL     1      38.468  46.096  65.160  1.00  0.00     0.053 A 
HETATM   19  C   UNL     1      37.222  46.533  64.699  1.00  0.00     0.036 A 
HETATM   20 CL   UNL     1      35.952  45.394  64.457  1.00  0.00    -0.084 Cl
HETATM   21  C   UNL     1      36.989  47.881  64.433  1.00  0.00     0.024 A 
HETATM   22  C   UNL     1      38.012  48.804  64.622  1.00  0.00     0.004 A 
HETATM   23  C   UNL     1      39.261  48.371  65.078  1.00  0.00     0.029 A 
ENDBRANCH  14  17
ENDBRANCH  12  13
ENDBRANCH  11  12
ENDBRANCH   4  11
BRANCH   8  24
HETATM   24  C   UNL     1      39.858  42.245  64.978  1.00  0.00    -0.044 A 
HETATM   25  C   UNL     1      40.460  43.074  64.011  1.00  0.00     0.008 A 
HETATM   26  C   UNL     1      39.742  43.525  62.904  1.00  0.00     0.001 A 
HETATM   27  C   UNL     1      38.407  43.167  62.748  1.00  0.00     0.000 A 
HETATM   28  C   UNL     1      37.790  42.358  63.701  1.00  0.00     0.001 A 
HETATM   29  C   UNL     1      38.507  41.899  64.810  1.00  0.00     0.008 A 
ENDBRANCH   8  24
BRANCH   9  30
HETATM   30  C   UNL     1      41.622  39.476  65.523  1.00  0.00     0.255 C 
HETATM   31  N   UNL     1      41.720  38.559  66.549  1.00  0.00    -0.321 N 
HETATM   32  H   UNL     1      42.195  38.809  67.401  1.00  0.00     0.169 HD
HETATM   33  O   UNL     1      41.504  39.168  64.339  1.00  0.00    -0.268 OA
BRANCH  31  34
HETATM   34  C   UNL     1      41.385  37.189  66.427  1.00  0.00     0.068 A 
HETATM   35  C   UNL     1      42.333  36.182  66.149  1.00  0.00     0.095 A 
HETATM   36  C   UNL     1      41.907  34.850  66.087  1.00  0.00     0.039 A 
HETATM   37  C   UNL     1      40.559  34.525  66.260  1.00  0.00     0.003 A 
HETATM   38  C   UNL     1      39.619  35.528  66.469  1.00  0.00     0.002 A 
HETATM   39  C   UNL     1      40.028  36.860  66.535  1.00  0.00     0.032 A 
BRANCH  35  40
HETATM   40  O   UNL     1      43.603  36.595  65.837  1.00  0.00    -0.354 OA
HETATM   41  C   UNL     1      43.988  36.581  64.470  1.00  0.00     0.210 C 
ENDBRANCH  35  40
ENDBRANCH  31  34
ENDBRANCH   9  30
TORSDOF 8
ENDMDL
