MODEL 1
REMARK VINA RESULT:      -9.8      0.000      0.000
REMARK  7 active torsions:
REMARK  status: ('A' for Active; 'I' for Inactive)
REMARK    1  A    between atoms: C_3  and  O_4 
REMARK    2  A    between atoms: O_4  and  C_5 
REMARK    3  A    between atoms: C_5  and  C_6 
REMARK       I    between atoms: C_6  and  N_7 
REMARK    4  A    between atoms: N_7  and  C_8 
REMARK    5  A    between atoms: C_9  and  C_10 
REMARK       I    between atoms: C_10  and  N_11 
REMARK    6  A    between atoms: N_11  and  C_12 
REMARK    7  A    between atoms: C_12  and  C_13 
ROOT
HETATM    1  C   UNL     1      25.809  47.928  49.826  1.00  0.00     0.050 A 
HETATM    2  C   UNL     1      24.727  48.507  49.131  1.00  0.00     0.058 A 
HETATM    3  C   UNL     1      24.926  49.607  48.280  1.00  0.00     0.019 A 
HETATM    4  C   UNL     1      26.194  50.161  48.132  1.00  0.00     0.001 A 
HETATM    5  C   UNL     1      27.264  49.615  48.830  1.00  0.00     0.002 A 
HETATM    6  C   UNL     1      27.074  48.508  49.666  1.00  0.00     0.030 A 
ENDROOT
BRANCH   1   7
HETATM    7  N   UNL     1      25.621  46.742  50.588  1.00  0.00    -0.324 N 
HETATM    8  C   UNL     1      25.575  46.650  51.974  1.00  0.00     0.246 C 
HETATM    9  O   UNL     1      25.435  47.605  52.734  1.00  0.00    -0.271 OA
HETATM   10  H   UNL     1      25.502  45.884  50.061  1.00  0.00     0.169 HD
BRANCH   8  11
HETATM   11  C   UNL     1      25.692  45.208  52.484  1.00  0.00     0.278 C 
BRANCH  11  12
HETATM   12  O   UNL     1      26.167  45.253  53.823  1.00  0.00    -0.342 OA
BRANCH  12  13
HETATM   13  C   UNL     1      27.334  44.606  54.121  1.00  0.00     0.075 A 
HETATM   14  C   UNL     1      28.281  45.367  54.835  1.00  0.00    -0.029 A 
HETATM   15  C   UNL     1      27.990  46.789  55.227  1.00  0.00     0.051 C 
HETATM   16  C   UNL     1      29.496  44.777  55.213  1.00  0.00     0.009 A 
HETATM   17  C   UNL     1      29.774  43.455  54.875  1.00  0.00     0.001 A 
HETATM   18  C   UNL     1      28.838  42.709  54.161  1.00  0.00     0.003 A 
HETATM   19  C   UNL     1      27.619  43.280  53.788  1.00  0.00     0.037 A 
ENDBRANCH  12  13
ENDBRANCH  11  12
ENDBRANCH   8  11
ENDBRANCH   1   7
BRANCH   2  20
HETATM   20  C   UNL     1      23.328  48.026  49.257  1.00  0.00     0.254 C 
HETATM   21  N   UNL     1      22.364  49.008  49.335  1.00  0.00    -0.353 N 
HETATM   22  H   UNL     1      22.630  49.961  49.109  1.00  0.00     0.163 HD
HETATM   23  O   UNL     1      23.080  46.827  49.256  1.00  0.00    -0.268 OA
BRANCH  21  24
HETATM   24  C   UNL     1      20.954  48.679  49.288  1.00  0.00     0.162 C 
BRANCH  24  25
HETATM   25  C   UNL     1      20.120  49.924  49.334  1.00  0.00    -0.023 A 
HETATM   26  C   UNL     1      18.989  49.986  50.143  1.00  0.00     0.125 A 
HETATM   27  N   UNL     1      18.194  51.072  50.258  1.00  0.00    -0.273 NA
HETATM   28  C   UNL     1      18.514  52.139  49.492  1.00  0.00     0.116 A 
HETATM   29  C   UNL     1      19.604  52.173  48.638  1.00  0.00     0.020 A 
HETATM   30  C   UNL     1      20.424  51.049  48.566  1.00  0.00     0.012 A 
ENDBRANCH  24  25
ENDBRANCH  21  24
ENDBRANCH   2  20
TORSDOF 7
ENDMDL
MODEL 2
REMARK VINA RESULT:      -9.4      3.336      5.575
REMARK  7 active torsions:
REMARK  status: ('A' for Active; 'I' for Inactive)
REMARK    1  A    between atoms: C_3  and  O_4 
REMARK    2  A    between atoms: O_4  and  C_5 
REMARK    3  A    between atoms: C_5  and  C_6 
REMARK       I    between atoms: C_6  and  N_7 
REMARK    4  A    between atoms: N_7  and  C_8 
REMARK    5  A    between atoms: C_9  and  C_10 
REMARK       I    between atoms: C_10  and  N_11 
REMARK    6  A    between atoms: N_11  and  C_12 
REMARK    7  A    between atoms: C_12  and  C_13 
ROOT
HETATM    1  C   UNL     1      25.968  42.374  51.227  1.00  0.00     0.050 A 
HETATM    2  C   UNL     1      25.057  43.211  50.551  1.00  0.00     0.058 A 
HETATM    3  C   UNL     1      24.423  42.780  49.373  1.00  0.00     0.019 A 
HETATM    4  C   UNL     1      24.709  41.527  48.840  1.00  0.00     0.001 A 
HETATM    5  C   UNL     1      25.624  40.702  49.483  1.00  0.00     0.002 A 
HETATM    6  C   UNL     1      26.244  41.120  50.667  1.00  0.00     0.030 A 
ENDROOT
BRANCH   1   7
HETATM    7  N   UNL     1      26.511  42.768  52.481  1.00  0.00    -0.324 N 
HETATM    8  C   UNL     1      27.770  43.312  52.702  1.00  0.00     0.246 C 
HETATM    9  O   UNL     1      28.498  43.768  51.823  1.00  0.00    -0.271 OA
HETATM   10  H   UNL     1      25.911  42.644  53.289  1.00  0.00     0.169 HD
BRANCH   8  11
HETATM   11  C   UNL     1      28.171  43.318  54.183  1.00  0.00     0.278 C 
BRANCH  11  12
HETATM   12  O   UNL     1      29.119  44.361  54.376  1.00  0.00    -0.342 OA
BRANCH  12  13
HETATM   13  C   UNL     1      29.891  44.336  55.504  1.00  0.00     0.075 A 
HETATM   14  C   UNL     1      29.660  45.383  56.417  1.00  0.00    -0.029 A 
HETATM   15  C   UNL     1      28.623  46.436  56.137  1.00  0.00     0.051 C 
HETATM   16  C   UNL     1      30.383  45.423  57.618  1.00  0.00     0.009 A 
HETATM   17  C   UNL     1      31.334  44.445  57.902  1.00  0.00     0.001 A 
HETATM   18  C   UNL     1      31.565  43.417  56.992  1.00  0.00     0.003 A 
HETATM   19  C   UNL     1      30.844  43.358  55.796  1.00  0.00     0.037 A 
ENDBRANCH  12  13
ENDBRANCH  11  12
ENDBRANCH   8  11
ENDBRANCH   1   7
BRANCH   2  20
HETATM   20  C   UNL     1      24.721  44.584  51.006  1.00  0.00     0.254 C 
HETATM   21  N   UNL     1      24.873  45.579  50.065  1.00  0.00    -0.353 N 
HETATM   22  H   UNL     1      25.007  45.307  49.096  1.00  0.00     0.163 HD
HETATM   23  O   UNL     1      24.306  44.778  52.141  1.00  0.00    -0.268 OA
BRANCH  21  24
HETATM   24  C   UNL     1      24.419  46.930  50.322  1.00  0.00     0.162 C 
BRANCH  24  25
HETATM   25  C   UNL     1      25.330  47.927  49.672  1.00  0.00    -0.023 A 
HETATM   26  C   UNL     1      24.805  48.998  48.954  1.00  0.00     0.125 A 
HETATM   27  N   UNL     1      25.553  49.950  48.354  1.00  0.00    -0.273 NA
HETATM   28  C   UNL     1      26.894  49.804  48.432  1.00  0.00     0.116 A 
HETATM   29  C   UNL     1      27.516  48.764  49.102  1.00  0.00     0.020 A 
HETATM   30  C   UNL     1      26.719  47.815  49.739  1.00  0.00     0.012 A 
ENDBRANCH  24  25
ENDBRANCH  21  24
ENDBRANCH   2  20
TORSDOF 7
ENDMDL
MODEL 3
REMARK VINA RESULT:      -9.4      1.681      9.052
REMARK  7 active torsions:
REMARK  status: ('A' for Active; 'I' for Inactive)
REMARK    1  A    between atoms: C_3  and  O_4 
REMARK    2  A    between atoms: O_4  and  C_5 
REMARK    3  A    between atoms: C_5  and  C_6 
REMARK       I    between atoms: C_6  and  N_7 
REMARK    4  A    between atoms: N_7  and  C_8 
REMARK    5  A    between atoms: C_9  and  C_10 
REMARK       I    between atoms: C_10  and  N_11 
REMARK    6  A    between atoms: N_11  and  C_12 
REMARK    7  A    between atoms: C_12  and  C_13 
ROOT
HETATM    1  C   UNL     1      24.449  48.725  49.172  1.00  0.00     0.050 A 
HETATM    2  C   UNL     1      25.467  48.039  49.868  1.00  0.00     0.058 A 
HETATM    3  C   UNL     1      26.819  48.366  49.669  1.00  0.00     0.019 A 
HETATM    4  C   UNL     1      27.176  49.355  48.758  1.00  0.00     0.001 A 
HETATM    5  C   UNL     1      26.185  50.021  48.047  1.00  0.00     0.002 A 
HETATM    6  C   UNL     1      24.835  49.712  48.255  1.00  0.00     0.030 A 
ENDROOT
BRANCH   1   7
HETATM    7  N   UNL     1      23.082  48.474  49.468  1.00  0.00    -0.324 N 
HETATM    8  C   UNL     1      22.105  48.058  48.571  1.00  0.00     0.246 C 
HETATM    9  O   UNL     1      22.332  47.601  47.453  1.00  0.00    -0.271 OA
HETATM   10  H   UNL     1      22.800  48.606  50.433  1.00  0.00     0.169 HD
BRANCH   8  11
HETATM   11  C   UNL     1      20.681  48.196  49.126  1.00  0.00     0.278 C 
BRANCH  11  12
HETATM   12  O   UNL     1      20.641  49.357  49.946  1.00  0.00    -0.342 OA
BRANCH  12  13
HETATM   13  C   UNL     1      19.700  50.311  49.677  1.00  0.00     0.075 A 
HETATM   14  C   UNL     1      20.138  51.381  48.871  1.00  0.00    -0.029 A 
HETATM   15  C   UNL     1      21.552  51.432  48.359  1.00  0.00     0.051 C 
HETATM   16  C   UNL     1      19.234  52.392  48.516  1.00  0.00     0.009 A 
HETATM   17  C   UNL     1      17.916  52.350  48.965  1.00  0.00     0.001 A 
HETATM   18  C   UNL     1      17.490  51.295  49.769  1.00  0.00     0.003 A 
HETATM   19  C   UNL     1      18.377  50.274  50.122  1.00  0.00     0.037 A 
ENDBRANCH  12  13
ENDBRANCH  11  12
ENDBRANCH   8  11
ENDBRANCH   1   7
BRANCH   2  20
HETATM   20  C   UNL     1      25.198  46.935  50.823  1.00  0.00     0.254 C 
HETATM   21  N   UNL     1      25.924  46.967  51.994  1.00  0.00    -0.353 N 
HETATM   22  H   UNL     1      26.433  47.816  52.219  1.00  0.00     0.163 HD
HETATM   23  O   UNL     1      24.354  46.085  50.568  1.00  0.00    -0.268 OA
BRANCH  21  24
HETATM   24  C   UNL     1      25.637  46.052  53.079  1.00  0.00     0.162 C 
BRANCH  24  25
HETATM   25  C   UNL     1      26.843  45.873  53.951  1.00  0.00    -0.023 A 
HETATM   26  C   UNL     1      27.210  46.861  54.859  1.00  0.00     0.125 A 
HETATM   27  N   UNL     1      28.268  46.772  55.694  1.00  0.00    -0.273 NA
HETATM   28  C   UNL     1      29.029  45.661  55.588  1.00  0.00     0.116 A 
HETATM   29  C   UNL     1      28.764  44.628  54.704  1.00  0.00     0.020 A 
HETATM   30  C   UNL     1      27.647  44.734  53.878  1.00  0.00     0.012 A 
ENDBRANCH  24  25
ENDBRANCH  21  24
ENDBRANCH   2  20
TORSDOF 7
ENDMDL
MODEL 4
REMARK VINA RESULT:      -9.3      3.422      9.773
REMARK  7 active torsions:
REMARK  status: ('A' for Active; 'I' for Inactive)
REMARK    1  A    between atoms: C_3  and  O_4 
REMARK    2  A    between atoms: O_4  and  C_5 
REMARK    3  A    between atoms: C_5  and  C_6 
REMARK       I    between atoms: C_6  and  N_7 
REMARK    4  A    between atoms: N_7  and  C_8 
REMARK    5  A    between atoms: C_9  and  C_10 
REMARK       I    between atoms: C_10  and  N_11 
REMARK    6  A    between atoms: N_11  and  C_12 
REMARK    7  A    between atoms: C_12  and  C_13 
ROOT
HETATM    1  C   UNL     1      26.837  42.607  51.369  1.00  0.00     0.050 A 
HETATM    2  C   UNL     1      27.667  42.565  52.508  1.00  0.00     0.058 A 
HETATM    3  C   UNL     1      28.587  41.518  52.689  1.00  0.00     0.019 A 
HETATM    4  C   UNL     1      28.670  40.489  51.756  1.00  0.00     0.001 A 
HETATM    5  C   UNL     1      27.841  40.505  50.642  1.00  0.00     0.002 A 
HETATM    6  C   UNL     1      26.936  41.556  50.449  1.00  0.00     0.030 A 
ENDROOT
BRANCH   1   7
HETATM    7  N   UNL     1      25.998  43.731  51.133  1.00  0.00    -0.324 N 
HETATM    8  C   UNL     1      26.323  44.864  50.398  1.00  0.00     0.246 C 
HETATM    9  O   UNL     1      27.282  44.951  49.634  1.00  0.00    -0.271 OA
HETATM   10  H   UNL     1      25.069  43.691  51.538  1.00  0.00     0.169 HD
BRANCH   8  11
HETATM   11  C   UNL     1      25.337  46.021  50.608  1.00  0.00     0.278 C 
BRANCH  11  12
HETATM   12  O   UNL     1      26.035  47.239  50.385  1.00  0.00    -0.342 OA
BRANCH  12  13
HETATM   13  C   UNL     1      25.460  48.179  49.577  1.00  0.00     0.075 A 
HETATM   14  C   UNL     1      26.358  49.058  48.939  1.00  0.00    -0.029 A 
HETATM   15  C   UNL     1      27.841  48.936  49.156  1.00  0.00     0.051 C 
HETATM   16  C   UNL     1      25.862  50.037  48.066  1.00  0.00     0.009 A 
HETATM   17  C   UNL     1      24.492  50.152  47.839  1.00  0.00     0.001 A 
HETATM   18  C   UNL     1      23.607  49.286  48.479  1.00  0.00     0.003 A 
HETATM   19  C   UNL     1      24.088  48.299  49.343  1.00  0.00     0.037 A 
ENDBRANCH  12  13
ENDBRANCH  11  12
ENDBRANCH   8  11
ENDBRANCH   1   7
BRANCH   2  20
HETATM   20  C   UNL     1      27.622  43.584  53.587  1.00  0.00     0.254 C 
HETATM   21  N   UNL     1      28.828  44.167  53.909  1.00  0.00    -0.353 N 
HETATM   22  H   UNL     1      29.614  44.023  53.282  1.00  0.00     0.163 HD
HETATM   23  O   UNL     1      26.558  43.885  54.113  1.00  0.00    -0.268 OA
BRANCH  21  24
HETATM   24  C   UNL     1      28.898  45.293  54.819  1.00  0.00     0.162 C 
BRANCH  24  25
HETATM   25  C   UNL     1      29.813  44.988  55.967  1.00  0.00    -0.023 A 
HETATM   26  C   UNL     1      29.784  45.771  57.117  1.00  0.00     0.125 A 
HETATM   27  N   UNL     1      30.559  45.555  58.203  1.00  0.00    -0.273 NA
HETATM   28  C   UNL     1      31.441  44.535  58.122  1.00  0.00     0.116 A 
HETATM   29  C   UNL     1      31.565  43.710  57.017  1.00  0.00     0.020 A 
HETATM   30  C   UNL     1      30.730  43.937  55.925  1.00  0.00     0.012 A 
ENDBRANCH  24  25
ENDBRANCH  21  24
ENDBRANCH   2  20
TORSDOF 7
ENDMDL
MODEL 5
REMARK VINA RESULT:      -8.6      4.505      7.090
REMARK  7 active torsions:
REMARK  status: ('A' for Active; 'I' for Inactive)
REMARK    1  A    between atoms: C_3  and  O_4 
REMARK    2  A    between atoms: O_4  and  C_5 
REMARK    3  A    between atoms: C_5  and  C_6 
REMARK       I    between atoms: C_6  and  N_7 
REMARK    4  A    between atoms: N_7  and  C_8 
REMARK    5  A    between atoms: C_9  and  C_10 
REMARK       I    between atoms: C_10  and  N_11 
REMARK    6  A    between atoms: N_11  and  C_12 
REMARK    7  A    between atoms: C_12  and  C_13 
ROOT
HETATM    1  C   UNL     1      28.179  40.715  51.298  1.00  0.00     0.050 A 
HETATM    2  C   UNL     1      27.327  40.943  50.197  1.00  0.00     0.058 A 
HETATM    3  C   UNL     1      27.355  40.093  49.078  1.00  0.00     0.019 A 
HETATM    4  C   UNL     1      28.248  39.026  49.029  1.00  0.00     0.001 A 
HETATM    5  C   UNL     1      29.110  38.805  50.096  1.00  0.00     0.002 A 
HETATM    6  C   UNL     1      29.073  39.639  51.220  1.00  0.00     0.030 A 
ENDROOT
BRANCH   1   7
HETATM    7  N   UNL     1      28.059  41.504  52.474  1.00  0.00    -0.324 N 
HETATM    8  C   UNL     1      28.947  42.483  52.906  1.00  0.00     0.246 C 
HETATM    9  O   UNL     1      29.826  42.986  52.210  1.00  0.00    -0.271 OA
HETATM   10  H   UNL     1      27.239  41.337  53.045  1.00  0.00     0.169 HD
BRANCH   8  11
HETATM   11  C   UNL     1      28.708  42.911  54.360  1.00  0.00     0.278 C 
BRANCH  11  12
HETATM   12  O   UNL     1      29.384  44.144  54.570  1.00  0.00    -0.342 OA
BRANCH  12  13
HETATM   13  C   UNL     1      30.085  44.311  55.732  1.00  0.00     0.075 A 
HETATM   14  C   UNL     1      29.752  45.458  56.479  1.00  0.00    -0.029 A 
HETATM   15  C   UNL     1      28.689  46.408  55.999  1.00  0.00     0.051 C 
HETATM   16  C   UNL     1      30.396  45.697  57.701  1.00  0.00     0.009 A 
HETATM   17  C   UNL     1      31.369  44.816  58.169  1.00  0.00     0.001 A 
HETATM   18  C   UNL     1      31.702  43.688  57.423  1.00  0.00     0.003 A 
HETATM   19  C   UNL     1      31.060  43.432  56.209  1.00  0.00     0.037 A 
ENDBRANCH  12  13
ENDBRANCH  11  12
ENDBRANCH   8  11
ENDBRANCH   1   7
BRANCH   2  20
HETATM   20  C   UNL     1      26.375  42.080  50.126  1.00  0.00     0.254 C 
HETATM   21  N   UNL     1      26.932  43.309  49.849  1.00  0.00    -0.353 N 
HETATM   22  H   UNL     1      27.893  43.338  49.522  1.00  0.00     0.163 HD
HETATM   23  O   UNL     1      25.174  41.894  50.278  1.00  0.00    -0.268 OA
BRANCH  21  24
HETATM   24  C   UNL     1      26.101  44.466  49.583  1.00  0.00     0.162 C 
BRANCH  24  25
HETATM   25  C   UNL     1      26.018  45.345  50.793  1.00  0.00    -0.023 A 
HETATM   26  C   UNL     1      25.480  46.626  50.698  1.00  0.00     0.125 A 
HETATM   27  N   UNL     1      25.350  47.475  51.741  1.00  0.00    -0.273 NA
HETATM   28  C   UNL     1      25.822  47.046  52.932  1.00  0.00     0.116 A 
HETATM   29  C   UNL     1      26.394  45.800  53.130  1.00  0.00     0.020 A 
HETATM   30  C   UNL     1      26.485  44.934  52.042  1.00  0.00     0.012 A 
ENDBRANCH  24  25
ENDBRANCH  21  24
ENDBRANCH   2  20
TORSDOF 7
ENDMDL
MODEL 6
REMARK VINA RESULT:      -8.6      2.950      8.929
REMARK  7 active torsions:
REMARK  status: ('A' for Active; 'I' for Inactive)
REMARK    1  A    between atoms: C_3  and  O_4 
REMARK    2  A    between atoms: O_4  and  C_5 
REMARK    3  A    between atoms: C_5  and  C_6 
REMARK       I    between atoms: C_6  and  N_7 
REMARK    4  A    between atoms: N_7  and  C_8 
REMARK    5  A    between atoms: C_9  and  C_10 
REMARK       I    between atoms: C_10  and  N_11 
REMARK    6  A    between atoms: N_11  and  C_12 
REMARK    7  A    between atoms: C_12  and  C_13 
ROOT
HETATM    1  C   UNL     1      24.442  48.840  49.122  1.00  0.00     0.050 A 
HETATM    2  C   UNL     1      25.435  48.117  49.815  1.00  0.00     0.058 A 
HETATM    3  C   UNL     1      26.796  48.422  49.645  1.00  0.00     0.019 A 
HETATM    4  C   UNL     1      27.186  49.427  48.765  1.00  0.00     0.001 A 
HETATM    5  C   UNL     1      26.219  50.131  48.058  1.00  0.00     0.002 A 
HETATM    6  C   UNL     1      24.860  49.842  48.237  1.00  0.00     0.030 A 
ENDROOT
BRANCH   1   7
HETATM    7  N   UNL     1      23.065  48.608  49.391  1.00  0.00    -0.324 N 
HETATM    8  C   UNL     1      22.155  47.972  48.555  1.00  0.00     0.246 C 
HETATM    9  O   UNL     1      22.461  47.294  47.577  1.00  0.00    -0.271 OA
HETATM   10  H   UNL     1      22.722  48.934  50.288  1.00  0.00     0.169 HD
BRANCH   8  11
HETATM   11  C   UNL     1      20.697  48.174  48.988  1.00  0.00     0.278 C 
BRANCH  11  12
HETATM   12  O   UNL     1      20.652  49.289  49.869  1.00  0.00    -0.342 OA
BRANCH  12  13
HETATM   13  C   UNL     1      19.716  50.258  49.642  1.00  0.00     0.075 A 
HETATM   14  C   UNL     1      20.153  51.351  48.867  1.00  0.00    -0.029 A 
HETATM   15  C   UNL     1      21.562  51.408  48.341  1.00  0.00     0.051 C 
HETATM   16  C   UNL     1      19.254  52.380  48.555  1.00  0.00     0.009 A 
HETATM   17  C   UNL     1      17.940  52.333  49.018  1.00  0.00     0.001 A 
HETATM   18  C   UNL     1      17.515  51.256  49.791  1.00  0.00     0.003 A 
HETATM   19  C   UNL     1      18.397  50.217  50.100  1.00  0.00     0.037 A 
ENDBRANCH  12  13
ENDBRANCH  11  12
ENDBRANCH   8  11
ENDBRANCH   1   7
BRANCH   2  20
HETATM   20  C   UNL     1      25.130  46.994  50.737  1.00  0.00     0.254 C 
HETATM   21  N   UNL     1      25.096  45.742  50.162  1.00  0.00    -0.353 N 
HETATM   22  H   UNL     1      25.464  45.635  49.222  1.00  0.00     0.163 HD
HETATM   23  O   UNL     1      24.958  47.200  51.931  1.00  0.00    -0.268 OA
BRANCH  21  24
HETATM   24  C   UNL     1      24.981  44.547  50.974  1.00  0.00     0.162 C 
BRANCH  24  25
HETATM   25  C   UNL     1      25.453  43.345  50.213  1.00  0.00    -0.023 A 
HETATM   26  C   UNL     1      26.706  43.341  49.608  1.00  0.00     0.125 A 
HETATM   27  N   UNL     1      27.215  42.295  48.921  1.00  0.00    -0.273 NA
HETATM   28  C   UNL     1      26.418  41.212  48.790  1.00  0.00     0.116 A 
HETATM   29  C   UNL     1      25.147  41.122  49.335  1.00  0.00     0.020 A 
HETATM   30  C   UNL     1      24.662  42.204  50.065  1.00  0.00     0.012 A 
ENDBRANCH  24  25
ENDBRANCH  21  24
ENDBRANCH   2  20
TORSDOF 7
ENDMDL
MODEL 7
REMARK VINA RESULT:      -8.1      3.688      6.979
REMARK  7 active torsions:
REMARK  status: ('A' for Active; 'I' for Inactive)
REMARK    1  A    between atoms: C_3  and  O_4 
REMARK    2  A    between atoms: O_4  and  C_5 
REMARK    3  A    between atoms: C_5  and  C_6 
REMARK       I    between atoms: C_6  and  N_7 
REMARK    4  A    between atoms: N_7  and  C_8 
REMARK    5  A    between atoms: C_9  and  C_10 
REMARK       I    between atoms: C_10  and  N_11 
REMARK    6  A    between atoms: N_11  and  C_12 
REMARK    7  A    between atoms: C_12  and  C_13 
ROOT
HETATM    1  C   UNL     1      24.752  45.521  50.474  1.00  0.00     0.050 A 
HETATM    2  C   UNL     1      23.768  44.880  49.693  1.00  0.00     0.058 A 
HETATM    3  C   UNL     1      22.883  45.627  48.897  1.00  0.00     0.019 A 
HETATM    4  C   UNL     1      22.947  47.017  48.890  1.00  0.00     0.001 A 
HETATM    5  C   UNL     1      23.896  47.662  49.673  1.00  0.00     0.002 A 
HETATM    6  C   UNL     1      24.792  46.922  50.455  1.00  0.00     0.030 A 
ENDROOT
BRANCH   1   7
HETATM    7  N   UNL     1      25.720  44.756  51.179  1.00  0.00    -0.324 N 
HETATM    8  C   UNL     1      25.647  44.352  52.508  1.00  0.00     0.246 C 
HETATM    9  O   UNL     1      24.625  44.378  53.190  1.00  0.00    -0.271 OA
HETATM   10  H   UNL     1      26.539  44.473  50.653  1.00  0.00     0.169 HD
BRANCH   8  11
HETATM   11  C   UNL     1      26.983  43.833  53.053  1.00  0.00     0.278 C 
BRANCH  11  12
HETATM   12  O   UNL     1      27.410  44.716  54.081  1.00  0.00    -0.342 OA
BRANCH  12  13
HETATM   13  C   UNL     1      28.614  44.478  54.684  1.00  0.00     0.075 A 
HETATM   14  C   UNL     1      29.088  45.513  55.515  1.00  0.00    -0.029 A 
HETATM   15  C   UNL     1      28.294  46.777  55.701  1.00  0.00     0.051 C 
HETATM   16  C   UNL     1      30.300  45.346  56.201  1.00  0.00     0.009 A 
HETATM   17  C   UNL     1      31.038  44.174  56.054  1.00  0.00     0.001 A 
HETATM   18  C   UNL     1      30.569  43.157  55.226  1.00  0.00     0.003 A 
HETATM   19  C   UNL     1      29.358  43.305  54.545  1.00  0.00     0.037 A 
ENDBRANCH  12  13
ENDBRANCH  11  12
ENDBRANCH   8  11
ENDBRANCH   1   7
BRANCH   2  20
HETATM   20  C   UNL     1      23.580  43.407  49.668  1.00  0.00     0.254 C 
HETATM   21  N   UNL     1      24.355  42.722  48.758  1.00  0.00    -0.353 N 
HETATM   22  H   UNL     1      25.124  43.215  48.315  1.00  0.00     0.163 HD
HETATM   23  O   UNL     1      22.802  42.867  50.444  1.00  0.00    -0.268 OA
BRANCH  21  24
HETATM   24  C   UNL     1      24.397  41.274  48.749  1.00  0.00     0.162 C 
BRANCH  24  25
HETATM   25  C   UNL     1      25.742  40.781  49.191  1.00  0.00    -0.023 A 
HETATM   26  C   UNL     1      26.288  39.629  48.634  1.00  0.00     0.125 A 
HETATM   27  N   UNL     1      27.499  39.127  48.959  1.00  0.00    -0.273 NA
HETATM   28  C   UNL     1      28.185  39.781  49.923  1.00  0.00     0.116 A 
HETATM   29  C   UNL     1      27.723  40.923  50.556  1.00  0.00     0.020 A 
HETATM   30  C   UNL     1      26.484  41.435  50.176  1.00  0.00     0.012 A 
ENDBRANCH  24  25
ENDBRANCH  21  24
ENDBRANCH   2  20
TORSDOF 7
ENDMDL
MODEL 8
REMARK VINA RESULT:      -8.1      3.677      5.757
REMARK  7 active torsions:
REMARK  status: ('A' for Active; 'I' for Inactive)
REMARK    1  A    between atoms: C_3  and  O_4 
REMARK    2  A    between atoms: O_4  and  C_5 
REMARK    3  A    between atoms: C_5  and  C_6 
REMARK       I    between atoms: C_6  and  N_7 
REMARK    4  A    between atoms: N_7  and  C_8 
REMARK    5  A    between atoms: C_9  and  C_10 
REMARK       I    between atoms: C_10  and  N_11 
REMARK    6  A    between atoms: N_11  and  C_12 
REMARK    7  A    between atoms: C_12  and  C_13 
ROOT
HETATM    1  C   UNL     1      26.625  41.464  51.065  1.00  0.00     0.050 A 
HETATM    2  C   UNL     1      25.548  41.923  50.279  1.00  0.00     0.058 A 
HETATM    3  C   UNL     1      25.203  41.272  49.082  1.00  0.00     0.019 A 
HETATM    4  C   UNL     1      25.942  40.179  48.640  1.00  0.00     0.001 A 
HETATM    5  C   UNL     1      27.021  39.732  49.393  1.00  0.00     0.002 A 
HETATM    6  C   UNL     1      27.357  40.366  50.595  1.00  0.00     0.030 A 
ENDROOT
BRANCH   1   7
HETATM    7  N   UNL     1      26.890  42.051  52.333  1.00  0.00    -0.324 N 
HETATM    8  C   UNL     1      27.581  43.234  52.567  1.00  0.00     0.246 C 
HETATM    9  O   UNL     1      27.841  44.073  51.708  1.00  0.00    -0.271 OA
HETATM   10  H   UNL     1      26.528  41.557  53.141  1.00  0.00     0.169 HD
BRANCH   8  11
HETATM   11  C   UNL     1      27.977  43.417  54.038  1.00  0.00     0.278 C 
BRANCH  11  12
HETATM   12  O   UNL     1      29.196  44.147  54.076  1.00  0.00    -0.342 OA
BRANCH  12  13
HETATM   13  C   UNL     1      29.887  44.198  55.255  1.00  0.00     0.075 A 
HETATM   14  C   UNL     1      29.669  45.353  56.032  1.00  0.00    -0.029 A 
HETATM   15  C   UNL     1      28.732  46.432  55.565  1.00  0.00     0.051 C 
HETATM   16  C   UNL     1      30.310  45.480  57.273  1.00  0.00     0.009 A 
HETATM   17  C   UNL     1      31.167  44.481  57.730  1.00  0.00     0.001 A 
HETATM   18  C   UNL     1      31.386  43.345  56.954  1.00  0.00     0.003 A 
HETATM   19  C   UNL     1      30.745  43.200  55.720  1.00  0.00     0.037 A 
ENDBRANCH  12  13
ENDBRANCH  11  12
ENDBRANCH   8  11
ENDBRANCH   1   7
BRANCH   2  20
HETATM   20  C   UNL     1      24.729  43.110  50.632  1.00  0.00     0.254 C 
HETATM   21  N   UNL     1      25.019  44.265  49.939  1.00  0.00    -0.353 N 
HETATM   22  H   UNL     1      25.613  44.195  49.118  1.00  0.00     0.163 HD
HETATM   23  O   UNL     1      23.839  43.023  51.469  1.00  0.00    -0.268 OA
BRANCH  21  24
HETATM   24  C   UNL     1      24.186  45.443  50.063  1.00  0.00     0.162 C 
BRANCH  24  25
HETATM   25  C   UNL     1      23.362  45.640  48.826  1.00  0.00    -0.023 A 
HETATM   26  C   UNL     1      22.802  46.881  48.542  1.00  0.00     0.125 A 
HETATM   27  N   UNL     1      22.065  47.150  47.442  1.00  0.00    -0.273 NA
HETATM   28  C   UNL     1      21.833  46.116  46.603  1.00  0.00     0.116 A 
HETATM   29  C   UNL     1      22.325  44.837  46.804  1.00  0.00     0.020 A 
HETATM   30  C   UNL     1      23.109  44.599  47.931  1.00  0.00     0.012 A 
ENDBRANCH  24  25
ENDBRANCH  21  24
ENDBRANCH   2  20
TORSDOF 7
ENDMDL
MODEL 9
REMARK VINA RESULT:      -7.9      2.200      9.323
REMARK  7 active torsions:
REMARK  status: ('A' for Active; 'I' for Inactive)
REMARK    1  A    between atoms: C_3  and  O_4 
REMARK    2  A    between atoms: O_4  and  C_5 
REMARK    3  A    between atoms: C_5  and  C_6 
REMARK       I    between atoms: C_6  and  N_7 
REMARK    4  A    between atoms: N_7  and  C_8 
REMARK    5  A    between atoms: C_9  and  C_10 
REMARK       I    between atoms: C_10  and  N_11 
REMARK    6  A    between atoms: N_11  and  C_12 
REMARK    7  A    between atoms: C_12  and  C_13 
ROOT
HETATM    1  C   UNL     1      24.295  48.836  48.612  1.00  0.00     0.050 A 
HETATM    2  C   UNL     1      25.100  47.958  49.369  1.00  0.00     0.058 A 
HETATM    3  C   UNL     1      26.470  48.214  49.546  1.00  0.00     0.019 A 
HETATM    4  C   UNL     1      27.060  49.325  48.952  1.00  0.00     0.001 A 
HETATM    5  C   UNL     1      26.283  50.184  48.184  1.00  0.00     0.002 A 
HETATM    6  C   UNL     1      24.914  49.943  48.018  1.00  0.00     0.030 A 
ENDROOT
BRANCH   1   7
HETATM    7  N   UNL     1      22.889  48.637  48.539  1.00  0.00    -0.324 N 
HETATM    8  C   UNL     1      21.916  49.353  49.228  1.00  0.00     0.246 C 
HETATM    9  O   UNL     1      22.111  50.422  49.800  1.00  0.00    -0.271 OA
HETATM   10  H   UNL     1      22.570  47.905  47.914  1.00  0.00     0.169 HD
BRANCH   8  11
HETATM   11  C   UNL     1      20.536  48.685  49.186  1.00  0.00     0.278 C 
BRANCH  11  12
HETATM   12  O   UNL     1      19.557  49.709  49.073  1.00  0.00    -0.342 OA
BRANCH  12  13
HETATM   13  C   UNL     1      19.055  49.995  47.834  1.00  0.00     0.075 A 
HETATM   14  C   UNL     1      18.748  51.350  47.605  1.00  0.00    -0.029 A 
HETATM   15  C   UNL     1      18.973  52.384  48.674  1.00  0.00     0.051 C 
HETATM   16  C   UNL     1      18.257  51.744  46.352  1.00  0.00     0.009 A 
HETATM   17  C   UNL     1      18.060  50.803  45.343  1.00  0.00     0.001 A 
HETATM   18  C   UNL     1      18.357  49.462  45.577  1.00  0.00     0.003 A 
HETATM   19  C   UNL     1      18.857  49.057  46.817  1.00  0.00     0.037 A 
ENDBRANCH  12  13
ENDBRANCH  11  12
ENDBRANCH   8  11
ENDBRANCH   1   7
BRANCH   2  20
HETATM   20  C   UNL     1      24.581  46.719  50.002  1.00  0.00     0.254 C 
HETATM   21  N   UNL     1      25.221  46.326  51.157  1.00  0.00    -0.353 N 
HETATM   22  H   UNL     1      25.851  46.985  51.604  1.00  0.00     0.163 HD
HETATM   23  O   UNL     1      23.624  46.128  49.518  1.00  0.00    -0.268 OA
BRANCH  21  24
HETATM   24  C   UNL     1      24.709  45.238  51.964  1.00  0.00     0.162 C 
BRANCH  24  25
HETATM   25  C   UNL     1      25.795  44.658  52.819  1.00  0.00    -0.023 A 
HETATM   26  C   UNL     1      25.504  44.160  54.086  1.00  0.00     0.125 A 
HETATM   27  N   UNL     1      26.417  43.604  54.912  1.00  0.00    -0.273 NA
HETATM   28  C   UNL     1      27.695  43.584  54.475  1.00  0.00     0.116 A 
HETATM   29  C   UNL     1      28.094  44.073  53.242  1.00  0.00     0.020 A 
HETATM   30  C   UNL     1      27.124  44.611  52.398  1.00  0.00     0.012 A 
ENDBRANCH  24  25
ENDBRANCH  21  24
ENDBRANCH   2  20
TORSDOF 7
ENDMDL
MODEL 10
REMARK VINA RESULT:      -7.9      6.158      9.485
REMARK  7 active torsions:
REMARK  status: ('A' for Active; 'I' for Inactive)
REMARK    1  A    between atoms: C_3  and  O_4 
REMARK    2  A    between atoms: O_4  and  C_5 
REMARK    3  A    between atoms: C_5  and  C_6 
REMARK       I    between atoms: C_6  and  N_7 
REMARK    4  A    between atoms: N_7  and  C_8 
REMARK    5  A    between atoms: C_9  and  C_10 
REMARK       I    between atoms: C_10  and  N_11 
REMARK    6  A    between atoms: N_11  and  C_12 
REMARK    7  A    between atoms: C_12  and  C_13 
ROOT
HETATM    1  C   UNL     1      25.758  42.699  50.147  1.00  0.00     0.050 A 
HETATM    2  C   UNL     1      25.832  41.694  49.159  1.00  0.00     0.058 A 
HETATM    3  C   UNL     1      24.671  41.238  48.510  1.00  0.00     0.019 A 
HETATM    4  C   UNL     1      23.426  41.754  48.854  1.00  0.00     0.001 A 
HETATM    5  C   UNL     1      23.337  42.727  49.842  1.00  0.00     0.002 A 
HETATM    6  C   UNL     1      24.492  43.197  50.479  1.00  0.00     0.030 A 
ENDROOT
BRANCH   1   7
HETATM    7  N   UNL     1      26.946  43.239  50.710  1.00  0.00    -0.324 N 
HETATM    8  C   UNL     1      27.664  42.718  51.780  1.00  0.00     0.246 C 
HETATM    9  O   UNL     1      27.524  41.583  52.229  1.00  0.00    -0.271 OA
HETATM   10  H   UNL     1      27.303  44.084  50.279  1.00  0.00     0.169 HD
BRANCH   8  11
HETATM   11  C   UNL     1      28.694  43.703  52.349  1.00  0.00     0.278 C 
BRANCH  11  12
HETATM   12  O   UNL     1      28.266  44.082  53.650  1.00  0.00    -0.342 OA
BRANCH  12  13
HETATM   13  C   UNL     1      29.198  44.141  54.649  1.00  0.00     0.075 A 
HETATM   14  C   UNL     1      29.188  45.324  55.414  1.00  0.00    -0.029 A 
HETATM   15  C   UNL     1      28.203  46.423  55.123  1.00  0.00     0.051 C 
HETATM   16  C   UNL     1      30.087  45.463  56.482  1.00  0.00     0.009 A 
HETATM   17  C   UNL     1      30.993  44.447  56.778  1.00  0.00     0.001 A 
HETATM   18  C   UNL     1      31.005  43.282  56.013  1.00  0.00     0.003 A 
HETATM   19  C   UNL     1      30.107  43.126  54.953  1.00  0.00     0.037 A 
ENDBRANCH  12  13
ENDBRANCH  11  12
ENDBRANCH   8  11
ENDBRANCH   1   7
BRANCH   2  20
HETATM   20  C   UNL     1      27.102  41.041  48.755  1.00  0.00     0.254 C 
HETATM   21  N   UNL     1      27.415  39.876  49.423  1.00  0.00    -0.353 N 
HETATM   22  H   UNL     1      26.693  39.438  49.987  1.00  0.00     0.163 HD
HETATM   23  O   UNL     1      27.787  41.517  47.859  1.00  0.00    -0.268 OA
BRANCH  21  24
HETATM   24  C   UNL     1      28.531  39.052  49.009  1.00  0.00     0.162 C 
BRANCH  24  25
HETATM   25  C   UNL     1      28.053  37.878  48.208  1.00  0.00    -0.023 A 
HETATM   26  C   UNL     1      28.674  37.543  47.009  1.00  0.00     0.125 A 
HETATM   27  N   UNL     1      28.321  36.493  46.236  1.00  0.00    -0.273 NA
HETATM   28  C   UNL     1      27.263  35.764  46.656  1.00  0.00     0.116 A 
HETATM   29  C   UNL     1      26.562  36.025  47.821  1.00  0.00     0.020 A 
HETATM   30  C   UNL     1      26.971  37.096  48.613  1.00  0.00     0.012 A 
ENDBRANCH  24  25
ENDBRANCH  21  24
ENDBRANCH   2  20
TORSDOF 7
ENDMDL
