MODEL 1
REMARK VINA RESULT:      -9.8      0.000      0.000
REMARK  6 active torsions:
REMARK  status: ('A' for Active; 'I' for Inactive)
REMARK    1  A    between atoms: C_6  and  C_8 
REMARK    2  A    between atoms: C_6  and  O_7 
REMARK    3  A    between atoms: C_8  and  N_9 
REMARK       I    between atoms: N_9  and  C_10 
REMARK    4  A    between atoms: C_10  and  C_11 
REMARK       I    between atoms: C_11  and  N_12 
REMARK    5  A    between atoms: N_12  and  C_13 
REMARK       I    between atoms: N_17  and  C_18 
REMARK    6  A    between atoms: C_18  and  C_19 
ROOT
HETATM    1  C   UNL     1      25.638  40.997  49.385  1.00  0.00     0.313 C 
HETATM    2  N   UNL     1      24.414  41.600  49.191  1.00  0.00    -0.319 N 
HETATM    3  O   UNL     1      25.838  39.808  49.159  1.00  0.00    -0.262 OA
HETATM    4  H   UNL     1      23.635  40.954  49.218  1.00  0.00     0.169 HD
ENDROOT
BRANCH   1   5
HETATM    5  C   UNL     1      26.748  41.835  50.040  1.00  0.00     0.309 C 
HETATM    6  N   UNL     1      26.748  41.829  51.418  1.00  0.00    -0.350 N 
HETATM    7  H   UNL     1      26.111  41.216  51.916  1.00  0.00     0.163 HD
HETATM    8  O   UNL     1      27.556  42.431  49.340  1.00  0.00    -0.262 OA
BRANCH   6   9
HETATM    9  C   UNL     1      27.822  42.469  52.152  1.00  0.00     0.161 C 
BRANCH   9  10
HETATM   10  C   UNL     1      27.710  42.283  53.682  1.00  0.00     0.078 C 
HETATM   11  C   UNL     1      26.575  43.124  54.297  1.00  0.00     0.078 C 
HETATM   12  C   UNL     1      26.896  44.594  54.386  1.00  0.00    -0.049 A 
HETATM   13  C   UNL     1      28.225  45.056  54.390  1.00  0.00    -0.052 A 
HETATM   14  C   UNL     1      25.843  45.513  54.508  1.00  0.00     0.007 A 
HETATM   15  C   UNL     1      28.470  46.435  54.475  1.00  0.00     0.007 A 
HETATM   16  C   UNL     1      29.396  44.117  54.227  1.00  0.00     0.042 C 
HETATM   17  C   UNL     1      27.414  47.341  54.581  1.00  0.00     0.001 A 
HETATM   18  C   UNL     1      26.102  46.879  54.600  1.00  0.00     0.001 A 
HETATM   19  C   UNL     1      29.029  42.641  54.384  1.00  0.00     0.044 C 
BRANCH  10  20
HETATM   20  O   UNL     1      27.435  40.888  53.921  1.00  0.00    -0.388 OA
HETATM   21  H   UNL     1      27.942  40.370  53.271  1.00  0.00     0.210 HD
ENDBRANCH  10  20
ENDBRANCH   9  10
ENDBRANCH   6   9
ENDBRANCH   1   5
BRANCH   2  22
HETATM   22  C   UNL     1      24.136  42.973  49.124  1.00  0.00     0.035 A 
HETATM   23  C   UNL     1      24.765  43.900  49.952  1.00  0.00     0.039 A 
HETATM   24  C   UNL     1      24.496  45.278  49.839  1.00  0.00    -0.029 A 
HETATM   25  C   UNL     1      23.541  45.747  48.913  1.00  0.00     0.043 A 
HETATM   26  C   UNL     1      25.246  46.204  50.759  1.00  0.00     0.042 C 
HETATM   27  N   UNL     1      23.190  47.146  48.887  1.00  0.00    -0.313 N 
HETATM   28  C   UNL     1      22.939  44.797  48.073  1.00  0.00     0.032 A 
HETATM   29  C   UNL     1      22.301  47.704  47.937  1.00  0.00     0.265 C 
HETATM   30  C   UNL     1      23.817  48.013  49.897  1.00  0.00     0.133 C 
HETATM   31  O   UNL     1      22.111  47.212  46.825  1.00  0.00    -0.267 OA
HETATM   32  C   UNL     1      25.246  47.614  50.208  1.00  0.00     0.025 C 
HETATM   33  C   UNL     1      23.257  43.433  48.153  1.00  0.00     0.032 A 
BRANCH  29  34
HETATM   34  C   UNL     1      21.598  48.924  48.338  1.00  0.00     0.073 A 
HETATM   35  S   UNL     1      20.171  48.800  49.278  1.00  0.00    -0.097 SA
HETATM   36  C   UNL     1      19.970  50.497  49.318  1.00  0.00     0.050 A 
HETATM   37  C   UNL     1      20.983  51.155  48.658  1.00  0.00     0.009 A 
HETATM   38  C   UNL     1      21.935  50.246  48.108  1.00  0.00     0.025 A 
ENDBRANCH  29  34
ENDBRANCH   2  22
TORSDOF 6
ENDMDL
MODEL 2
REMARK VINA RESULT:      -9.7      2.335      3.473
REMARK  6 active torsions:
REMARK  status: ('A' for Active; 'I' for Inactive)
REMARK    1  A    between atoms: C_6  and  C_8 
REMARK    2  A    between atoms: C_6  and  O_7 
REMARK    3  A    between atoms: C_8  and  N_9 
REMARK       I    between atoms: N_9  and  C_10 
REMARK    4  A    between atoms: C_10  and  C_11 
REMARK       I    between atoms: C_11  and  N_12 
REMARK    5  A    between atoms: N_12  and  C_13 
REMARK       I    between atoms: N_17  and  C_18 
REMARK    6  A    between atoms: C_18  and  C_19 
ROOT
HETATM    1  C   UNL     1      26.462  43.105  51.928  1.00  0.00     0.313 C 
HETATM    2  N   UNL     1      25.902  43.362  50.695  1.00  0.00    -0.319 N 
HETATM    3  O   UNL     1      27.212  42.158  52.135  1.00  0.00    -0.262 OA
HETATM    4  H   UNL     1      25.843  42.546  50.099  1.00  0.00     0.169 HD
ENDROOT
BRANCH   1   5
HETATM    5  C   UNL     1      26.006  43.975  53.111  1.00  0.00     0.309 C 
HETATM    6  N   UNL     1      27.024  44.460  53.905  1.00  0.00    -0.350 N 
HETATM    7  H   UNL     1      27.988  44.317  53.626  1.00  0.00     0.163 HD
HETATM    8  O   UNL     1      24.815  44.201  53.280  1.00  0.00    -0.262 OA
BRANCH   6   9
HETATM    9  C   UNL     1      26.734  45.400  54.971  1.00  0.00     0.161 C 
BRANCH   9  10
HETATM   10  C   UNL     1      27.666  46.632  54.964  1.00  0.00     0.078 C 
HETATM   11  C   UNL     1      29.145  46.254  54.758  1.00  0.00     0.078 C 
HETATM   12  C   UNL     1      29.783  45.636  55.976  1.00  0.00    -0.049 A 
HETATM   13  C   UNL     1      29.263  45.851  57.266  1.00  0.00    -0.052 A 
HETATM   14  C   UNL     1      30.945  44.866  55.817  1.00  0.00     0.007 A 
HETATM   15  C   UNL     1      29.895  45.253  58.366  1.00  0.00     0.007 A 
HETATM   16  C   UNL     1      27.997  46.641  57.494  1.00  0.00     0.042 C 
HETATM   17  C   UNL     1      31.041  44.476  58.194  1.00  0.00     0.001 A 
HETATM   18  C   UNL     1      31.568  44.286  56.921  1.00  0.00     0.001 A 
HETATM   19  C   UNL     1      27.537  47.434  56.270  1.00  0.00     0.044 C 
BRANCH  10  20
HETATM   20  O   UNL     1      27.247  47.476  53.873  1.00  0.00    -0.388 OA
HETATM   21  H   UNL     1      27.824  48.259  53.864  1.00  0.00     0.210 HD
ENDBRANCH  10  20
ENDBRANCH   9  10
ENDBRANCH   6   9
ENDBRANCH   1   5
BRANCH   2  22
HETATM   22  C   UNL     1      25.288  44.546  50.263  1.00  0.00     0.035 A 
HETATM   23  C   UNL     1      25.965  45.763  50.223  1.00  0.00     0.039 A 
HETATM   24  C   UNL     1      25.336  46.931  49.750  1.00  0.00    -0.029 A 
HETATM   25  C   UNL     1      23.984  46.904  49.350  1.00  0.00     0.043 A 
HETATM   26  C   UNL     1      26.158  48.191  49.719  1.00  0.00     0.042 C 
HETATM   27  N   UNL     1      23.319  48.129  48.978  1.00  0.00    -0.313 N 
HETATM   28  C   UNL     1      23.330  45.662  49.376  1.00  0.00     0.032 A 
HETATM   29  C   UNL     1      21.989  48.172  48.492  1.00  0.00     0.265 C 
HETATM   30  C   UNL     1      24.091  49.375  49.102  1.00  0.00     0.133 C 
HETATM   31  O   UNL     1      21.452  47.222  47.922  1.00  0.00    -0.267 OA
HETATM   32  C   UNL     1      25.556  49.195  48.758  1.00  0.00     0.025 C 
HETATM   33  C   UNL     1      23.982  44.493  49.793  1.00  0.00     0.032 A 
BRANCH  29  34
HETATM   34  C   UNL     1      21.259  49.424  48.697  1.00  0.00     0.073 A 
HETATM   35  S   UNL     1      20.160  49.551  50.006  1.00  0.00    -0.097 SA
HETATM   36  C   UNL     1      19.750  51.158  49.593  1.00  0.00     0.050 A 
HETATM   37  C   UNL     1      20.455  51.608  48.499  1.00  0.00     0.009 A 
HETATM   38  C   UNL     1      21.342  50.613  47.993  1.00  0.00     0.025 A 
ENDBRANCH  29  34
ENDBRANCH   2  22
TORSDOF 6
ENDMDL
MODEL 3
REMARK VINA RESULT:      -9.7      1.870      2.699
REMARK  6 active torsions:
REMARK  status: ('A' for Active; 'I' for Inactive)
REMARK    1  A    between atoms: C_6  and  C_8 
REMARK    2  A    between atoms: C_6  and  O_7 
REMARK    3  A    between atoms: C_8  and  N_9 
REMARK       I    between atoms: N_9  and  C_10 
REMARK    4  A    between atoms: C_10  and  C_11 
REMARK       I    between atoms: C_11  and  N_12 
REMARK    5  A    between atoms: N_12  and  C_13 
REMARK       I    between atoms: N_17  and  C_18 
REMARK    6  A    between atoms: C_18  and  C_19 
ROOT
HETATM    1  C   UNL     1      24.770  42.971  49.943  1.00  0.00     0.313 C 
HETATM    2  N   UNL     1      23.863  43.440  49.016  1.00  0.00    -0.319 N 
HETATM    3  O   UNL     1      25.358  41.903  49.817  1.00  0.00    -0.262 OA
HETATM    4  H   UNL     1      23.448  42.711  48.450  1.00  0.00     0.169 HD
ENDROOT
BRANCH   1   5
HETATM    5  C   UNL     1      24.932  43.769  51.246  1.00  0.00     0.309 C 
HETATM    6  N   UNL     1      26.233  43.932  51.673  1.00  0.00    -0.350 N 
HETATM    7  H   UNL     1      26.996  43.623  51.081  1.00  0.00     0.163 HD
HETATM    8  O   UNL     1      23.945  44.219  51.814  1.00  0.00    -0.262 OA
BRANCH   6   9
HETATM    9  C   UNL     1      26.528  44.778  52.814  1.00  0.00     0.161 C 
BRANCH   9  10
HETATM   10  C   UNL     1      26.280  44.081  54.170  1.00  0.00     0.078 C 
HETATM   11  C   UNL     1      26.878  44.864  55.354  1.00  0.00     0.078 C 
HETATM   12  C   UNL     1      28.378  44.761  55.448  1.00  0.00    -0.049 A 
HETATM   13  C   UNL     1      29.079  43.693  54.857  1.00  0.00    -0.052 A 
HETATM   14  C   UNL     1      29.082  45.733  56.174  1.00  0.00     0.007 A 
HETATM   15  C   UNL     1      30.476  43.644  54.974  1.00  0.00     0.007 A 
HETATM   16  C   UNL     1      28.379  42.638  54.035  1.00  0.00     0.042 C 
HETATM   17  C   UNL     1      31.166  44.625  55.686  1.00  0.00     0.001 A 
HETATM   18  C   UNL     1      30.469  45.667  56.289  1.00  0.00     0.001 A 
HETATM   19  C   UNL     1      26.857  42.656  54.175  1.00  0.00     0.044 C 
BRANCH  10  20
HETATM   20  O   UNL     1      24.852  43.991  54.346  1.00  0.00    -0.388 OA
HETATM   21  H   UNL     1      24.675  43.897  55.299  1.00  0.00     0.210 HD
ENDBRANCH  10  20
ENDBRANCH   9  10
ENDBRANCH   6   9
ENDBRANCH   1   5
BRANCH   2  22
HETATM   22  C   UNL     1      23.362  44.744  48.892  1.00  0.00     0.035 A 
HETATM   23  C   UNL     1      24.132  45.867  49.187  1.00  0.00     0.039 A 
HETATM   24  C   UNL     1      23.617  47.167  49.018  1.00  0.00    -0.029 A 
HETATM   25  C   UNL     1      22.286  47.360  48.593  1.00  0.00     0.043 A 
HETATM   26  C   UNL     1      24.534  48.318  49.335  1.00  0.00     0.042 C 
HETATM   27  N   UNL     1      21.734  48.692  48.536  1.00  0.00    -0.313 N 
HETATM   28  C   UNL     1      21.538  46.214  48.279  1.00  0.00     0.032 A 
HETATM   29  C   UNL     1      20.435  48.972  48.046  1.00  0.00     0.265 C 
HETATM   30  C   UNL     1      22.593  49.793  48.998  1.00  0.00     0.133 C 
HETATM   31  O   UNL     1      19.853  48.251  47.236  1.00  0.00    -0.267 OA
HETATM   32  C   UNL     1      24.055  49.582  48.655  1.00  0.00     0.025 C 
HETATM   33  C   UNL     1      22.079  44.925  48.393  1.00  0.00     0.032 A 
BRANCH  29  34
HETATM   34  C   UNL     1      19.795  50.187  48.552  1.00  0.00     0.073 A 
HETATM   35  S   UNL     1      19.016  50.153  50.078  1.00  0.00    -0.097 SA
HETATM   36  C   UNL     1      18.558  51.796  49.956  1.00  0.00     0.050 A 
HETATM   37  C   UNL     1      19.012  52.375  48.793  1.00  0.00     0.009 A 
HETATM   38  C   UNL     1      19.744  51.451  47.990  1.00  0.00     0.025 A 
ENDBRANCH  29  34
ENDBRANCH   2  22
TORSDOF 6
ENDMDL
MODEL 4
REMARK VINA RESULT:      -9.6      2.889      8.587
REMARK  6 active torsions:
REMARK  status: ('A' for Active; 'I' for Inactive)
REMARK    1  A    between atoms: C_6  and  C_8 
REMARK    2  A    between atoms: C_6  and  O_7 
REMARK    3  A    between atoms: C_8  and  N_9 
REMARK       I    between atoms: N_9  and  C_10 
REMARK    4  A    between atoms: C_10  and  C_11 
REMARK       I    between atoms: C_11  and  N_12 
REMARK    5  A    between atoms: N_12  and  C_13 
REMARK       I    between atoms: N_17  and  C_18 
REMARK    6  A    between atoms: C_18  and  C_19 
ROOT
HETATM    1  C   UNL     1      19.896  44.922  46.418  1.00  0.00     0.313 C 
HETATM    2  N   UNL     1      21.273  44.860  46.388  1.00  0.00    -0.319 N 
HETATM    3  O   UNL     1      19.195  44.598  45.466  1.00  0.00    -0.262 OA
HETATM    4  H   UNL     1      21.661  44.897  45.453  1.00  0.00     0.169 HD
ENDROOT
BRANCH   1   5
HETATM    5  C   UNL     1      19.239  45.554  47.655  1.00  0.00     0.309 C 
HETATM    6  N   UNL     1      19.349  46.925  47.738  1.00  0.00    -0.350 N 
HETATM    7  H   UNL     1      19.747  47.444  46.963  1.00  0.00     0.163 HD
HETATM    8  O   UNL     1      18.660  44.845  48.468  1.00  0.00    -0.262 OA
BRANCH   6   9
HETATM    9  C   UNL     1      18.657  47.652  48.786  1.00  0.00     0.161 C 
BRANCH   9  10
HETATM   10  C   UNL     1      18.279  49.094  48.378  1.00  0.00     0.078 C 
HETATM   11  C   UNL     1      19.316  49.732  47.435  1.00  0.00     0.078 C 
HETATM   12  C   UNL     1      20.589  50.143  48.130  1.00  0.00    -0.049 A 
HETATM   13  C   UNL     1      20.623  50.384  49.516  1.00  0.00    -0.052 A 
HETATM   14  C   UNL     1      21.751  50.325  47.366  1.00  0.00     0.007 A 
HETATM   15  C   UNL     1      21.834  50.764  50.114  1.00  0.00     0.007 A 
HETATM   16  C   UNL     1      19.413  50.171  50.393  1.00  0.00     0.042 C 
HETATM   17  C   UNL     1      22.987  50.927  49.346  1.00  0.00     0.001 A 
HETATM   18  C   UNL     1      22.945  50.711  47.973  1.00  0.00     0.001 A 
HETATM   19  C   UNL     1      18.110  49.994  49.612  1.00  0.00     0.044 C 
BRANCH  10  20
HETATM   20  O   UNL     1      17.011  49.022  47.694  1.00  0.00    -0.388 OA
HETATM   21  H   UNL     1      16.398  48.518  48.257  1.00  0.00     0.210 HD
ENDBRANCH  10  20
ENDBRANCH   9  10
ENDBRANCH   6   9
ENDBRANCH   1   5
BRANCH   2  22
HETATM   22  C   UNL     1      22.157  44.912  47.476  1.00  0.00     0.035 A 
HETATM   23  C   UNL     1      22.756  46.098  47.891  1.00  0.00     0.039 A 
HETATM   24  C   UNL     1      23.611  46.129  49.010  1.00  0.00    -0.029 A 
HETATM   25  C   UNL     1      23.918  44.943  49.709  1.00  0.00     0.043 A 
HETATM   26  C   UNL     1      24.189  47.464  49.399  1.00  0.00     0.042 C 
HETATM   27  N   UNL     1      24.885  44.969  50.781  1.00  0.00    -0.313 N 
HETATM   28  C   UNL     1      23.283  43.765  49.287  1.00  0.00     0.032 A 
HETATM   29  C   UNL     1      25.188  43.838  51.577  1.00  0.00     0.265 C 
HETATM   30  C   UNL     1      25.557  46.250  51.046  1.00  0.00     0.133 C 
HETATM   31  O   UNL     1      24.396  42.914  51.759  1.00  0.00    -0.267 OA
HETATM   32  C   UNL     1      24.646  47.445  50.842  1.00  0.00     0.025 C 
HETATM   33  C   UNL     1      22.388  43.754  48.208  1.00  0.00     0.032 A 
BRANCH  29  34
HETATM   34  C   UNL     1      26.514  43.812  52.196  1.00  0.00     0.073 A 
HETATM   35  S   UNL     1      26.660  44.075  53.883  1.00  0.00    -0.097 SA
HETATM   36  C   UNL     1      28.361  43.911  53.830  1.00  0.00     0.050 A 
HETATM   37  C   UNL     1      28.814  43.630  52.561  1.00  0.00     0.009 A 
HETATM   38  C   UNL     1      27.746  43.553  51.619  1.00  0.00     0.025 A 
ENDBRANCH  29  34
ENDBRANCH   2  22
TORSDOF 6
ENDMDL
MODEL 5
REMARK VINA RESULT:      -9.5      2.964      8.612
REMARK  6 active torsions:
REMARK  status: ('A' for Active; 'I' for Inactive)
REMARK    1  A    between atoms: C_6  and  C_8 
REMARK    2  A    between atoms: C_6  and  O_7 
REMARK    3  A    between atoms: C_8  and  N_9 
REMARK       I    between atoms: N_9  and  C_10 
REMARK    4  A    between atoms: C_10  and  C_11 
REMARK       I    between atoms: C_11  and  N_12 
REMARK    5  A    between atoms: N_12  and  C_13 
REMARK       I    between atoms: N_17  and  C_18 
REMARK    6  A    between atoms: C_18  and  C_19 
ROOT
HETATM    1  C   UNL     1      19.952  44.324  46.048  1.00  0.00     0.313 C 
HETATM    2  N   UNL     1      21.325  44.210  46.107  1.00  0.00    -0.319 N 
HETATM    3  O   UNL     1      19.288  43.891  45.113  1.00  0.00    -0.262 OA
HETATM    4  H   UNL     1      21.762  44.097  45.201  1.00  0.00     0.169 HD
ENDROOT
BRANCH   1   5
HETATM    5  C   UNL     1      19.259  45.151  47.143  1.00  0.00     0.309 C 
HETATM    6  N   UNL     1      19.332  46.517  46.977  1.00  0.00    -0.350 N 
HETATM    7  H   UNL     1      19.729  46.897  46.124  1.00  0.00     0.163 HD
HETATM    8  O   UNL     1      18.686  44.585  48.065  1.00  0.00    -0.262 OA
BRANCH   6   9
HETATM    9  C   UNL     1      18.605  47.402  47.867  1.00  0.00     0.161 C 
BRANCH   9  10
HETATM   10  C   UNL     1      19.404  47.783  49.133  1.00  0.00     0.078 C 
HETATM   11  C   UNL     1      18.648  48.779  50.031  1.00  0.00     0.078 C 
HETATM   12  C   UNL     1      18.625  50.184  49.486  1.00  0.00    -0.049 A 
HETATM   13  C   UNL     1      19.590  50.628  48.563  1.00  0.00    -0.052 A 
HETATM   14  C   UNL     1      17.643  51.075  49.944  1.00  0.00     0.007 A 
HETATM   15  C   UNL     1      19.525  51.946  48.086  1.00  0.00     0.007 A 
HETATM   16  C   UNL     1      20.648  49.705  48.009  1.00  0.00     0.042 C 
HETATM   17  C   UNL     1      18.534  52.818  48.537  1.00  0.00     0.001 A 
HETATM   18  C   UNL     1      17.596  52.384  49.468  1.00  0.00     0.001 A 
HETATM   19  C   UNL     1      20.771  48.383  48.768  1.00  0.00     0.044 C 
BRANCH  10  20
HETATM   20  O   UNL     1      19.629  46.567  49.875  1.00  0.00    -0.388 OA
HETATM   21  H   UNL     1      20.326  46.064  49.418  1.00  0.00     0.210 HD
ENDBRANCH  10  20
ENDBRANCH   9  10
ENDBRANCH   6   9
ENDBRANCH   1   5
BRANCH   2  22
HETATM   22  C   UNL     1      22.152  44.387  47.226  1.00  0.00     0.035 A 
HETATM   23  C   UNL     1      22.696  45.625  47.559  1.00  0.00     0.039 A 
HETATM   24  C   UNL     1      23.493  45.783  48.710  1.00  0.00    -0.029 A 
HETATM   25  C   UNL     1      23.800  44.675  49.527  1.00  0.00     0.043 A 
HETATM   26  C   UNL     1      24.014  47.165  49.002  1.00  0.00     0.042 C 
HETATM   27  N   UNL     1      24.711  44.828  50.635  1.00  0.00    -0.313 N 
HETATM   28  C   UNL     1      23.220  43.444  49.183  1.00  0.00     0.032 A 
HETATM   29  C   UNL     1      25.006  43.782  51.544  1.00  0.00     0.265 C 
HETATM   30  C   UNL     1      25.333  46.148  50.814  1.00  0.00     0.133 C 
HETATM   31  O   UNL     1      24.233  42.853  51.772  1.00  0.00    -0.267 OA
HETATM   32  C   UNL     1      24.400  47.290  50.461  1.00  0.00     0.025 C 
HETATM   33  C   UNL     1      22.379  43.307  48.069  1.00  0.00     0.032 A 
BRANCH  29  34
HETATM   34  C   UNL     1      26.301  43.855  52.223  1.00  0.00     0.073 A 
HETATM   35  S   UNL     1      26.357  44.284  53.881  1.00  0.00    -0.097 SA
HETATM   36  C   UNL     1      28.061  44.166  53.924  1.00  0.00     0.050 A 
HETATM   37  C   UNL     1      28.584  43.776  52.711  1.00  0.00     0.009 A 
HETATM   38  C   UNL     1      27.565  43.577  51.733  1.00  0.00     0.025 A 
ENDBRANCH  29  34
ENDBRANCH   2  22
TORSDOF 6
ENDMDL
MODEL 6
REMARK VINA RESULT:      -9.4      2.182      3.403
REMARK  6 active torsions:
REMARK  status: ('A' for Active; 'I' for Inactive)
REMARK    1  A    between atoms: C_6  and  C_8 
REMARK    2  A    between atoms: C_6  and  O_7 
REMARK    3  A    between atoms: C_8  and  N_9 
REMARK       I    between atoms: N_9  and  C_10 
REMARK    4  A    between atoms: C_10  and  C_11 
REMARK       I    between atoms: C_11  and  N_12 
REMARK    5  A    between atoms: N_12  and  C_13 
REMARK       I    between atoms: N_17  and  C_18 
REMARK    6  A    between atoms: C_18  and  C_19 
ROOT
HETATM    1  C   UNL     1      23.098  42.248  48.597  1.00  0.00     0.313 C 
HETATM    2  N   UNL     1      22.217  42.958  47.809  1.00  0.00    -0.319 N 
HETATM    3  O   UNL     1      23.498  41.127  48.303  1.00  0.00    -0.262 OA
HETATM    4  H   UNL     1      21.653  42.374  47.204  1.00  0.00     0.169 HD
ENDROOT
BRANCH   1   5
HETATM    5  C   UNL     1      23.475  42.847  49.961  1.00  0.00     0.309 C 
HETATM    6  N   UNL     1      24.826  43.023  50.168  1.00  0.00    -0.350 N 
HETATM    7  H   UNL     1      25.475  42.858  49.406  1.00  0.00     0.163 HD
HETATM    8  O   UNL     1      22.597  43.141  50.762  1.00  0.00    -0.262 OA
BRANCH   6   9
HETATM    9  C   UNL     1      25.301  43.703  51.358  1.00  0.00     0.161 C 
BRANCH   9  10
HETATM   10  C   UNL     1      26.336  44.809  51.056  1.00  0.00     0.078 C 
HETATM   11  C   UNL     1      27.776  44.267  50.988  1.00  0.00     0.078 C 
HETATM   12  C   UNL     1      28.359  43.935  52.338  1.00  0.00    -0.049 A 
HETATM   13  C   UNL     1      27.858  44.518  53.516  1.00  0.00    -0.052 A 
HETATM   14  C   UNL     1      29.449  43.055  52.409  1.00  0.00     0.007 A 
HETATM   15  C   UNL     1      28.436  44.175  54.748  1.00  0.00     0.007 A 
HETATM   16  C   UNL     1      26.666  45.444  53.504  1.00  0.00     0.042 C 
HETATM   17  C   UNL     1      29.510  43.287  54.808  1.00  0.00     0.001 A 
HETATM   18  C   UNL     1      30.018  42.730  53.639  1.00  0.00     0.001 A 
HETATM   19  C   UNL     1      26.276  45.929  52.107  1.00  0.00     0.044 C 
BRANCH  10  20
HETATM   20  O   UNL     1      25.992  45.374  49.774  1.00  0.00    -0.388 OA
HETATM   21  H   UNL     1      26.405  44.823  49.086  1.00  0.00     0.210 HD
ENDBRANCH  10  20
ENDBRANCH   9  10
ENDBRANCH   6   9
ENDBRANCH   1   5
BRANCH   2  22
HETATM   22  C   UNL     1      21.924  44.328  47.874  1.00  0.00     0.035 A 
HETATM   23  C   UNL     1      22.840  45.262  48.351  1.00  0.00     0.039 A 
HETATM   24  C   UNL     1      22.533  46.637  48.371  1.00  0.00    -0.029 A 
HETATM   25  C   UNL     1      21.266  47.094  47.952  1.00  0.00     0.043 A 
HETATM   26  C   UNL     1      23.597  47.573  48.878  1.00  0.00     0.042 C 
HETATM   27  N   UNL     1      20.924  48.490  48.086  1.00  0.00    -0.313 N 
HETATM   28  C   UNL     1      20.370  46.137  47.453  1.00  0.00     0.032 A 
HETATM   29  C   UNL     1      19.704  49.036  47.617  1.00  0.00     0.265 C 
HETATM   30  C   UNL     1      21.917  49.364  48.728  1.00  0.00     0.133 C 
HETATM   31  O   UNL     1      19.057  48.540  46.695  1.00  0.00    -0.267 OA
HETATM   32  C   UNL     1      23.344  48.982  48.387  1.00  0.00     0.025 C 
HETATM   33  C   UNL     1      20.705  44.777  47.381  1.00  0.00     0.032 A 
BRANCH  29  34
HETATM   34  C   UNL     1      19.232  50.249  48.287  1.00  0.00     0.073 A 
HETATM   35  S   UNL     1      18.450  50.118  49.806  1.00  0.00    -0.097 SA
HETATM   36  C   UNL     1      18.218  51.808  49.909  1.00  0.00     0.050 A 
HETATM   37  C   UNL     1      18.752  52.470  48.826  1.00  0.00     0.009 A 
HETATM   38  C   UNL     1      19.355  51.571  47.898  1.00  0.00     0.025 A 
ENDBRANCH  29  34
ENDBRANCH   2  22
TORSDOF 6
ENDMDL
MODEL 7
REMARK VINA RESULT:      -9.2      2.895      8.385
REMARK  6 active torsions:
REMARK  status: ('A' for Active; 'I' for Inactive)
REMARK    1  A    between atoms: C_6  and  C_8 
REMARK    2  A    between atoms: C_6  and  O_7 
REMARK    3  A    between atoms: C_8  and  N_9 
REMARK       I    between atoms: N_9  and  C_10 
REMARK    4  A    between atoms: C_10  and  C_11 
REMARK       I    between atoms: C_11  and  N_12 
REMARK    5  A    between atoms: N_12  and  C_13 
REMARK       I    between atoms: N_17  and  C_18 
REMARK    6  A    between atoms: C_18  and  C_19 
ROOT
HETATM    1  C   UNL     1      19.474  44.065  45.505  1.00  0.00     0.313 C 
HETATM    2  N   UNL     1      20.811  43.786  45.314  1.00  0.00    -0.319 N 
HETATM    3  O   UNL     1      18.623  43.861  44.647  1.00  0.00    -0.262 OA
HETATM    4  H   UNL     1      21.086  43.764  44.340  1.00  0.00     0.169 HD
ENDROOT
BRANCH   1   5
HETATM    5  C   UNL     1      19.076  44.788  46.802  1.00  0.00     0.309 C 
HETATM    6  N   UNL     1      19.118  46.164  46.740  1.00  0.00    -0.350 N 
HETATM    7  H   UNL     1      19.298  46.620  45.852  1.00  0.00     0.163 HD
HETATM    8  O   UNL     1      18.741  44.139  47.784  1.00  0.00    -0.262 OA
BRANCH   6   9
HETATM    9  C   UNL     1      18.638  46.961  47.852  1.00  0.00     0.161 C 
BRANCH   9  10
HETATM   10  C   UNL     1      19.718  47.221  48.926  1.00  0.00     0.078 C 
HETATM   11  C   UNL     1      19.263  48.242  49.986  1.00  0.00     0.078 C 
HETATM   12  C   UNL     1      19.256  49.664  49.488  1.00  0.00    -0.049 A 
HETATM   13  C   UNL     1      20.041  50.060  48.389  1.00  0.00    -0.052 A 
HETATM   14  C   UNL     1      18.479  50.617  50.163  1.00  0.00     0.007 A 
HETATM   15  C   UNL     1      19.999  51.397  47.965  1.00  0.00     0.007 A 
HETATM   16  C   UNL     1      20.869  49.073  47.603  1.00  0.00     0.042 C 
HETATM   17  C   UNL     1      19.210  52.332  48.636  1.00  0.00     0.001 A 
HETATM   18  C   UNL     1      18.453  51.943  49.736  1.00  0.00     0.001 A 
HETATM   19  C   UNL     1      21.026  47.716  48.290  1.00  0.00     0.044 C 
BRANCH  10  20
HETATM   20  O   UNL     1      19.980  45.961  49.578  1.00  0.00    -0.388 OA
HETATM   21  H   UNL     1      20.902  45.975  49.891  1.00  0.00     0.210 HD
ENDBRANCH  10  20
ENDBRANCH   9  10
ENDBRANCH   6   9
ENDBRANCH   1   5
BRANCH   2  22
HETATM   22  C   UNL     1      21.814  43.692  46.290  1.00  0.00     0.035 A 
HETATM   23  C   UNL     1      22.218  42.471  46.825  1.00  0.00     0.039 A 
HETATM   24  C   UNL     1      23.253  42.400  47.777  1.00  0.00    -0.029 A 
HETATM   25  C   UNL     1      23.873  43.576  48.249  1.00  0.00     0.043 A 
HETATM   26  C   UNL     1      23.639  41.034  48.277  1.00  0.00     0.042 C 
HETATM   27  N   UNL     1      24.851  43.500  49.308  1.00  0.00    -0.313 N 
HETATM   28  C   UNL     1      23.466  44.792  47.677  1.00  0.00     0.032 A 
HETATM   29  C   UNL     1      25.571  44.625  49.779  1.00  0.00     0.265 C 
HETATM   30  C   UNL     1      25.103  42.174  49.893  1.00  0.00     0.133 C 
HETATM   31  O   UNL     1      25.789  45.620  49.088  1.00  0.00    -0.267 OA
HETATM   32  C   UNL     1      25.031  41.057  48.870  1.00  0.00     0.025 C 
HETATM   33  C   UNL     1      22.475  44.847  46.686  1.00  0.00     0.032 A 
BRANCH  29  34
HETATM   34  C   UNL     1      26.062  44.555  51.156  1.00  0.00     0.073 A 
HETATM   35  S   UNL     1      24.992  44.907  52.448  1.00  0.00    -0.097 SA
HETATM   36  C   UNL     1      26.209  44.638  53.618  1.00  0.00     0.050 A 
HETATM   37  C   UNL     1      27.402  44.256  53.046  1.00  0.00     0.009 A 
HETATM   38  C   UNL     1      27.312  44.189  51.625  1.00  0.00     0.025 A 
ENDBRANCH  29  34
ENDBRANCH   2  22
TORSDOF 6
ENDMDL
MODEL 8
REMARK VINA RESULT:      -9.1     11.778     14.284
REMARK  6 active torsions:
REMARK  status: ('A' for Active; 'I' for Inactive)
REMARK    1  A    between atoms: C_6  and  C_8 
REMARK    2  A    between atoms: C_6  and  O_7 
REMARK    3  A    between atoms: C_8  and  N_9 
REMARK       I    between atoms: N_9  and  C_10 
REMARK    4  A    between atoms: C_10  and  C_11 
REMARK       I    between atoms: C_11  and  N_12 
REMARK    5  A    between atoms: N_12  and  C_13 
REMARK       I    between atoms: N_17  and  C_18 
REMARK    6  A    between atoms: C_18  and  C_19 
ROOT
HETATM    1  C   UNL     1      25.444  49.600  38.886  1.00  0.00     0.313 C 
HETATM    2  N   UNL     1      25.874  50.183  40.058  1.00  0.00    -0.319 N 
HETATM    3  O   UNL     1      24.271  49.609  38.530  1.00  0.00    -0.262 OA
HETATM    4  H   UNL     1      25.147  50.276  40.756  1.00  0.00     0.169 HD
ENDROOT
BRANCH   1   5
HETATM    5  C   UNL     1      26.470  48.794  38.073  1.00  0.00     0.309 C 
HETATM    6  N   UNL     1      26.630  47.484  38.471  1.00  0.00    -0.350 N 
HETATM    7  H   UNL     1      26.016  47.097  39.180  1.00  0.00     0.163 HD
HETATM    8  O   UNL     1      27.062  49.322  37.141  1.00  0.00    -0.262 OA
BRANCH   6   9
HETATM    9  C   UNL     1      27.467  46.583  37.702  1.00  0.00     0.161 C 
BRANCH   9  10
HETATM   10  C   UNL     1      28.880  46.404  38.301  1.00  0.00     0.078 C 
HETATM   11  C   UNL     1      29.620  45.187  37.715  1.00  0.00     0.078 C 
HETATM   12  C   UNL     1      29.111  43.867  38.232  1.00  0.00    -0.049 A 
HETATM   13  C   UNL     1      28.419  43.775  39.454  1.00  0.00    -0.052 A 
HETATM   14  C   UNL     1      29.371  42.702  37.494  1.00  0.00     0.007 A 
HETATM   15  C   UNL     1      27.966  42.521  39.890  1.00  0.00     0.007 A 
HETATM   16  C   UNL     1      28.080  44.997  40.272  1.00  0.00     0.042 C 
HETATM   17  C   UNL     1      28.217  41.372  39.140  1.00  0.00     0.001 A 
HETATM   18  C   UNL     1      28.923  41.462  37.944  1.00  0.00     0.001 A 
HETATM   19  C   UNL     1      28.821  46.259  39.830  1.00  0.00     0.044 C 
BRANCH  10  20
HETATM   20  O   UNL     1      29.628  47.597  37.989  1.00  0.00    -0.388 OA
HETATM   21  H   UNL     1      30.363  47.661  38.624  1.00  0.00     0.210 HD
ENDBRANCH  10  20
ENDBRANCH   9  10
ENDBRANCH   6   9
ENDBRANCH   1   5
BRANCH   2  22
HETATM   22  C   UNL     1      27.191  50.499  40.425  1.00  0.00     0.035 A 
HETATM   23  C   UNL     1      27.822  51.665  39.998  1.00  0.00     0.039 A 
HETATM   24  C   UNL     1      29.132  51.976  40.411  1.00  0.00    -0.029 A 
HETATM   25  C   UNL     1      29.856  51.085  41.230  1.00  0.00     0.043 A 
HETATM   26  C   UNL     1      29.719  53.272  39.920  1.00  0.00     0.042 C 
HETATM   27  N   UNL     1      31.236  51.359  41.550  1.00  0.00    -0.313 N 
HETATM   28  C   UNL     1      29.190  49.928  41.667  1.00  0.00     0.032 A 
HETATM   29  C   UNL     1      32.002  50.554  42.428  1.00  0.00     0.265 C 
HETATM   30  C   UNL     1      31.842  52.550  40.935  1.00  0.00     0.133 C 
HETATM   31  O   UNL     1      31.502  49.868  43.318  1.00  0.00    -0.267 OA
HETATM   32  C   UNL     1      30.868  53.705  40.806  1.00  0.00     0.025 C 
HETATM   33  C   UNL     1      27.865  49.655  41.299  1.00  0.00     0.032 A 
BRANCH  29  34
HETATM   34  C   UNL     1      33.452  50.572  42.231  1.00  0.00     0.073 A 
HETATM   35  S   UNL     1      34.419  51.600  43.204  1.00  0.00    -0.097 SA
HETATM   36  C   UNL     1      35.856  51.096  42.428  1.00  0.00     0.050 A 
HETATM   37  C   UNL     1      35.617  50.140  41.466  1.00  0.00     0.009 A 
HETATM   38  C   UNL     1      34.230  49.823  41.365  1.00  0.00     0.025 A 
ENDBRANCH  29  34
ENDBRANCH   2  22
TORSDOF 6
ENDMDL
MODEL 9
REMARK VINA RESULT:      -9.1      1.925      3.473
REMARK  6 active torsions:
REMARK  status: ('A' for Active; 'I' for Inactive)
REMARK    1  A    between atoms: C_6  and  C_8 
REMARK    2  A    between atoms: C_6  and  O_7 
REMARK    3  A    between atoms: C_8  and  N_9 
REMARK       I    between atoms: N_9  and  C_10 
REMARK    4  A    between atoms: C_10  and  C_11 
REMARK       I    between atoms: C_11  and  N_12 
REMARK    5  A    between atoms: N_12  and  C_13 
REMARK       I    between atoms: N_17  and  C_18 
REMARK    6  A    between atoms: C_18  and  C_19 
ROOT
HETATM    1  C   UNL     1      26.284  40.926  49.935  1.00  0.00     0.313 C 
HETATM    2  N   UNL     1      25.046  40.781  49.345  1.00  0.00    -0.319 N 
HETATM    3  O   UNL     1      27.057  39.988  50.098  1.00  0.00    -0.262 OA
HETATM    4  H   UNL     1      24.678  39.840  49.401  1.00  0.00     0.169 HD
ENDROOT
BRANCH   1   5
HETATM    5  C   UNL     1      26.632  42.300  50.530  1.00  0.00     0.309 C 
HETATM    6  N   UNL     1      26.370  42.436  51.877  1.00  0.00    -0.350 N 
HETATM    7  H   UNL     1      26.073  41.628  52.414  1.00  0.00     0.163 HD
HETATM    8  O   UNL     1      27.118  43.168  49.818  1.00  0.00    -0.262 OA
BRANCH   6   9
HETATM    9  C   UNL     1      26.778  43.636  52.583  1.00  0.00     0.161 C 
BRANCH   9  10
HETATM   10  C   UNL     1      25.594  44.406  53.209  1.00  0.00     0.078 C 
HETATM   11  C   UNL     1      24.524  44.789  52.169  1.00  0.00     0.078 C 
HETATM   12  C   UNL     1      24.937  45.928  51.272  1.00  0.00    -0.049 A 
HETATM   13  C   UNL     1      25.932  46.844  51.660  1.00  0.00    -0.052 A 
HETATM   14  C   UNL     1      24.283  46.095  50.042  1.00  0.00     0.007 A 
HETATM   15  C   UNL     1      26.280  47.886  50.788  1.00  0.00     0.007 A 
HETATM   16  C   UNL     1      26.693  46.694  52.955  1.00  0.00     0.042 C 
HETATM   17  C   UNL     1      25.633  48.034  49.561  1.00  0.00     0.001 A 
HETATM   18  C   UNL     1      24.633  47.140  49.190  1.00  0.00     0.001 A 
HETATM   19  C   UNL     1      26.075  45.681  53.920  1.00  0.00     0.044 C 
BRANCH  10  20
HETATM   20  O   UNL     1      24.996  43.538  54.193  1.00  0.00    -0.388 OA
HETATM   21  H   UNL     1      24.144  43.930  54.455  1.00  0.00     0.210 HD
ENDBRANCH  10  20
ENDBRANCH   9  10
ENDBRANCH   6   9
ENDBRANCH   1   5
BRANCH   2  22
HETATM   22  C   UNL     1      24.214  41.792  48.841  1.00  0.00     0.035 A 
HETATM   23  C   UNL     1      24.265  42.201  47.511  1.00  0.00     0.039 A 
HETATM   24  C   UNL     1      23.393  43.192  47.021  1.00  0.00    -0.029 A 
HETATM   25  C   UNL     1      22.478  43.831  47.883  1.00  0.00     0.043 A 
HETATM   26  C   UNL     1      23.504  43.548  45.562  1.00  0.00     0.042 C 
HETATM   27  N   UNL     1      21.672  44.924  47.396  1.00  0.00    -0.313 N 
HETATM   28  C   UNL     1      22.429  43.384  49.213  1.00  0.00     0.032 A 
HETATM   29  C   UNL     1      20.678  45.562  48.179  1.00  0.00     0.265 C 
HETATM   30  C   UNL     1      21.904  45.363  46.012  1.00  0.00     0.133 C 
HETATM   31  O   UNL     1      20.097  45.005  49.110  1.00  0.00    -0.267 OA
HETATM   32  C   UNL     1      22.233  44.214  45.079  1.00  0.00     0.025 C 
HETATM   33  C   UNL     1      23.260  42.355  49.678  1.00  0.00     0.032 A 
BRANCH  29  34
HETATM   34  C   UNL     1      20.358  46.946  47.825  1.00  0.00     0.073 A 
HETATM   35  S   UNL     1      18.843  47.299  47.106  1.00  0.00    -0.097 SA
HETATM   36  C   UNL     1      19.207  48.966  46.999  1.00  0.00     0.050 A 
HETATM   37  C   UNL     1      20.443  49.261  47.528  1.00  0.00     0.009 A 
HETATM   38  C   UNL     1      21.101  48.096  48.022  1.00  0.00     0.025 A 
ENDBRANCH  29  34
ENDBRANCH   2  22
TORSDOF 6
ENDMDL
MODEL 10
REMARK VINA RESULT:      -9.1     12.623     15.270
REMARK  6 active torsions:
REMARK  status: ('A' for Active; 'I' for Inactive)
REMARK    1  A    between atoms: C_6  and  C_8 
REMARK    2  A    between atoms: C_6  and  O_7 
REMARK    3  A    between atoms: C_8  and  N_9 
REMARK       I    between atoms: N_9  and  C_10 
REMARK    4  A    between atoms: C_10  and  C_11 
REMARK       I    between atoms: C_11  and  N_12 
REMARK    5  A    between atoms: N_12  and  C_13 
REMARK       I    between atoms: N_17  and  C_18 
REMARK    6  A    between atoms: C_18  and  C_19 
ROOT
HETATM    1  C   UNL     1      29.752  47.485  40.615  1.00  0.00     0.313 C 
HETATM    2  N   UNL     1      31.130  47.495  40.583  1.00  0.00    -0.319 N 
HETATM    3  O   UNL     1      29.086  46.505  40.301  1.00  0.00    -0.262 OA
HETATM    4  H   UNL     1      31.526  46.810  39.951  1.00  0.00     0.169 HD
ENDROOT
BRANCH   1   5
HETATM    5  C   UNL     1      29.038  48.810  40.929  1.00  0.00     0.309 C 
HETATM    6  N   UNL     1      28.991  49.709  39.885  1.00  0.00    -0.350 N 
HETATM    7  H   UNL     1      29.319  49.428  38.967  1.00  0.00     0.163 HD
HETATM    8  O   UNL     1      28.552  48.994  42.037  1.00  0.00    -0.262 OA
BRANCH   6   9
HETATM    9  C   UNL     1      28.229  50.937  40.012  1.00  0.00     0.161 C 
BRANCH   9  10
HETATM   10  C   UNL     1      28.454  51.916  38.838  1.00  0.00     0.078 C 
HETATM   11  C   UNL     1      29.666  51.529  37.970  1.00  0.00     0.078 C 
HETATM   12  C   UNL     1      30.992  51.829  38.620  1.00  0.00    -0.049 A 
HETATM   13  C   UNL     1      31.108  52.791  39.640  1.00  0.00    -0.052 A 
HETATM   14  C   UNL     1      32.138  51.159  38.166  1.00  0.00     0.007 A 
HETATM   15  C   UNL     1      32.366  53.032  40.212  1.00  0.00     0.007 A 
HETATM   16  C   UNL     1      29.905  53.517  40.192  1.00  0.00     0.042 C 
HETATM   17  C   UNL     1      33.496  52.349  39.763  1.00  0.00     0.001 A 
HETATM   18  C   UNL     1      33.382  51.415  38.738  1.00  0.00     0.001 A 
HETATM   19  C   UNL     1      28.644  53.355  39.343  1.00  0.00     0.044 C 
BRANCH  10  20
HETATM   20  O   UNL     1      27.266  51.878  38.020  1.00  0.00    -0.388 OA
HETATM   21  H   UNL     1      26.589  51.373  38.504  1.00  0.00     0.210 HD
ENDBRANCH  10  20
ENDBRANCH   9  10
ENDBRANCH   6   9
ENDBRANCH   1   5
BRANCH   2  22
HETATM   22  C   UNL     1      31.994  48.421  41.186  1.00  0.00     0.035 A 
HETATM   23  C   UNL     1      31.541  49.386  42.083  1.00  0.00     0.039 A 
HETATM   24  C   UNL     1      32.435  50.280  42.703  1.00  0.00    -0.029 A 
HETATM   25  C   UNL     1      33.810  50.250  42.389  1.00  0.00     0.043 A 
HETATM   26  C   UNL     1      31.855  51.268  43.679  1.00  0.00     0.042 C 
HETATM   27  N   UNL     1      34.697  51.246  42.942  1.00  0.00    -0.313 N 
HETATM   28  C   UNL     1      34.246  49.254  41.501  1.00  0.00     0.032 A 
HETATM   29  C   UNL     1      36.098  51.235  42.736  1.00  0.00     0.265 C 
HETATM   30  C   UNL     1      34.089  52.298  43.770  1.00  0.00     0.133 C 
HETATM   31  O   UNL     1      36.732  50.209  42.492  1.00  0.00    -0.267 OA
HETATM   32  C   UNL     1      32.930  51.792  44.607  1.00  0.00     0.025 C 
HETATM   33  C   UNL     1      33.357  48.330  40.934  1.00  0.00     0.032 A 
BRANCH  29  34
HETATM   34  C   UNL     1      36.781  52.526  42.832  1.00  0.00     0.073 A 
HETATM   35  S   UNL     1      37.537  52.969  44.305  1.00  0.00    -0.097 SA
HETATM   36  C   UNL     1      38.051  54.470  43.667  1.00  0.00     0.050 A 
HETATM   37  C   UNL     1      37.685  54.625  42.349  1.00  0.00     0.009 A 
HETATM   38  C   UNL     1      36.968  53.493  41.860  1.00  0.00     0.025 A 
ENDBRANCH  29  34
ENDBRANCH   2  22
TORSDOF 6
ENDMDL
