MODEL 1
REMARK VINA RESULT:      -7.2      0.000      0.000
REMARK  5 active torsions:
REMARK  status: ('A' for Active; 'I' for Inactive)
REMARK    1  A    between atoms: C_2  and  N_3 
REMARK       I    between atoms: N_3  and  C_4 
REMARK       I    between atoms: C_4  and  N_5 
REMARK    2  A    between atoms: N_5  and  C_6 
REMARK    3  A    between atoms: C_20  and  C_21 
REMARK    4  A    between atoms: C_21  and  O_22 
REMARK    5  A    between atoms: O_22  and  C_23 
ROOT
HETATM    1  C   UNL     1      22.726  47.500  48.706  1.00  0.00     0.095 A 
HETATM    2  S   UNL     1      21.157  46.919  48.994  1.00  0.00    -0.073 SA
HETATM    3  C   UNL     1      20.463  48.466  48.908  1.00  0.00     0.027 A 
HETATM    4  C   UNL     1      21.399  49.421  48.553  1.00  0.00    -0.021 A 
HETATM    5  C   UNL     1      21.013  50.865  48.365  1.00  0.00     0.079 C 
HETATM    6  C   UNL     1      19.496  51.057  48.109  1.00  0.00     0.124 C 
HETATM    7  C   UNL     1      19.106  50.714  46.667  1.00  0.00     0.046 C 
HETATM    8  C   UNL     1      19.103  52.517  48.394  1.00  0.00     0.046 C 
HETATM    9  N   UNL     1      18.686  50.206  49.081  1.00  0.00    -0.054 N 
HETATM   10  H   UNL     1      18.847  50.601  50.017  1.00  0.00     0.279 HD
HETATM   11  H   UNL     1      17.681  50.329  48.907  1.00  0.00     0.279 HD
HETATM   12  C   UNL     1      19.000  48.708  49.187  1.00  0.00     0.153 C 
HETATM   13  C   UNL     1      18.637  48.319  50.635  1.00  0.00     0.052 C 
HETATM   14  C   UNL     1      18.074  47.955  48.220  1.00  0.00     0.052 C 
HETATM   15  C   UNL     1      22.744  48.866  48.448  1.00  0.00     0.081 A 
ENDROOT
BRANCH   1  16
HETATM   16  N   UNL     1      23.801  46.624  48.708  1.00  0.00    -0.302 N 
HETATM   17  C   UNL     1      24.584  46.277  49.792  1.00  0.00     0.321 C 
HETATM   18  N   UNL     1      25.528  45.336  49.422  1.00  0.00    -0.343 N 
HETATM   19  O   UNL     1      24.518  46.733  50.926  1.00  0.00    -0.247 OA
HETATM   20  H   UNL     1      25.242  44.697  48.694  1.00  0.00     0.164 HD
HETATM   21  H   UNL     1      24.186  46.383  47.803  1.00  0.00     0.171 HD
BRANCH  18  22
HETATM   22  C   UNL     1      26.460  44.803  50.401  1.00  0.00     0.120 C 
HETATM   23  C   UNL     1      26.039  43.436  50.915  1.00  0.00     0.026 C 
ENDBRANCH  18  22
ENDBRANCH   1  16
BRANCH  15  24
HETATM   24  C   UNL     1      23.951  49.656  48.151  1.00  0.00     0.296 C 
HETATM   25  O   UNL     1      24.026  50.392  47.175  1.00  0.00    -0.259 OA
BRANCH  24  26
HETATM   26  O   UNL     1      24.955  49.485  49.060  1.00  0.00    -0.318 OA
BRANCH  26  27
HETATM   27  C   UNL     1      26.289  49.718  48.575  1.00  0.00     0.174 C 
HETATM   28  C   UNL     1      27.253  48.729  49.201  1.00  0.00     0.034 C 
ENDBRANCH  26  27
ENDBRANCH  24  26
ENDBRANCH  15  24
TORSDOF 5
ENDMDL
MODEL 2
REMARK VINA RESULT:      -7.2      2.287      7.006
REMARK  5 active torsions:
REMARK  status: ('A' for Active; 'I' for Inactive)
REMARK    1  A    between atoms: C_2  and  N_3 
REMARK       I    between atoms: N_3  and  C_4 
REMARK       I    between atoms: C_4  and  N_5 
REMARK    2  A    between atoms: N_5  and  C_6 
REMARK    3  A    between atoms: C_20  and  C_21 
REMARK    4  A    between atoms: C_21  and  O_22 
REMARK    5  A    between atoms: O_22  and  C_23 
ROOT
HETATM    1  C   UNL     1      23.702  46.723  49.460  1.00  0.00     0.095 A 
HETATM    2  S   UNL     1      22.725  45.469  48.866  1.00  0.00    -0.073 SA
HETATM    3  C   UNL     1      24.013  44.366  48.797  1.00  0.00     0.027 A 
HETATM    4  C   UNL     1      25.171  44.908  49.326  1.00  0.00    -0.021 A 
HETATM    5  C   UNL     1      26.441  44.102  49.419  1.00  0.00     0.079 C 
HETATM    6  C   UNL     1      26.193  42.573  49.363  1.00  0.00     0.124 C 
HETATM    7  C   UNL     1      25.686  42.020  50.699  1.00  0.00     0.046 C 
HETATM    8  C   UNL     1      27.500  41.850  48.992  1.00  0.00     0.046 C 
HETATM    9  N   UNL     1      25.199  42.242  48.254  1.00  0.00    -0.054 N 
HETATM   10  H   UNL     1      25.669  42.466  47.367  1.00  0.00     0.279 HD
HETATM   11  H   UNL     1      25.032  41.229  48.221  1.00  0.00     0.279 HD
HETATM   12  C   UNL     1      23.854  42.977  48.226  1.00  0.00     0.153 C 
HETATM   13  C   UNL     1      23.451  43.030  46.739  1.00  0.00     0.052 C 
HETATM   14  C   UNL     1      22.828  42.130  48.993  1.00  0.00     0.052 C 
HETATM   15  C   UNL     1      25.006  46.306  49.704  1.00  0.00     0.081 A 
ENDROOT
BRANCH   1  16
HETATM   16  N   UNL     1      23.159  47.979  49.682  1.00  0.00    -0.302 N 
HETATM   17  C   UNL     1      22.815  48.914  48.724  1.00  0.00     0.321 C 
HETATM   18  N   UNL     1      22.252  50.029  49.320  1.00  0.00    -0.343 N 
HETATM   19  O   UNL     1      22.995  48.834  47.516  1.00  0.00    -0.247 OA
HETATM   20  H   UNL     1      21.724  49.852  50.162  1.00  0.00     0.164 HD
HETATM   21  H   UNL     1      23.218  48.333  50.629  1.00  0.00     0.171 HD
BRANCH  18  22
HETATM   22  C   UNL     1      21.795  51.145  48.510  1.00  0.00     0.120 C 
HETATM   23  C   UNL     1      20.344  51.503  48.786  1.00  0.00     0.026 C 
ENDBRANCH  18  22
ENDBRANCH   1  16
BRANCH  15  24
HETATM   24  C   UNL     1      26.083  47.160  50.232  1.00  0.00     0.296 C 
HETATM   25  O   UNL     1      26.072  47.591  51.378  1.00  0.00    -0.259 OA
BRANCH  24  26
HETATM   26  O   UNL     1      27.073  47.415  49.327  1.00  0.00    -0.318 OA
BRANCH  26  27
HETATM   27  C   UNL     1      27.513  48.782  49.245  1.00  0.00     0.174 C 
HETATM   28  C   UNL     1      26.500  49.610  48.479  1.00  0.00     0.034 C 
ENDBRANCH  26  27
ENDBRANCH  24  26
ENDBRANCH  15  24
TORSDOF 5
ENDMDL
MODEL 3
REMARK VINA RESULT:      -7.0      3.621      8.767
REMARK  5 active torsions:
REMARK  status: ('A' for Active; 'I' for Inactive)
REMARK    1  A    between atoms: C_2  and  N_3 
REMARK       I    between atoms: N_3  and  C_4 
REMARK       I    between atoms: C_4  and  N_5 
REMARK    2  A    between atoms: N_5  and  C_6 
REMARK    3  A    between atoms: C_20  and  C_21 
REMARK    4  A    between atoms: C_21  and  O_22 
REMARK    5  A    between atoms: O_22  and  C_23 
ROOT
HETATM    1  C   UNL     1      25.490  45.830  51.241  1.00  0.00     0.095 A 
HETATM    2  S   UNL     1      25.769  46.098  52.894  1.00  0.00    -0.073 SA
HETATM    3  C   UNL     1      26.538  44.600  53.107  1.00  0.00     0.027 A 
HETATM    4  C   UNL     1      26.686  43.933  51.904  1.00  0.00    -0.021 A 
HETATM    5  C   UNL     1      27.385  42.600  51.828  1.00  0.00     0.079 C 
HETATM    6  C   UNL     1      28.310  42.332  53.043  1.00  0.00     0.124 C 
HETATM    7  C   UNL     1      29.638  43.090  52.935  1.00  0.00     0.046 C 
HETATM    8  C   UNL     1      28.607  40.826  53.146  1.00  0.00     0.046 C 
HETATM    9  N   UNL     1      27.601  42.711  54.339  1.00  0.00    -0.054 N 
HETATM   10  H   UNL     1      26.823  42.047  54.449  1.00  0.00     0.279 HD
HETATM   11  H   UNL     1      28.217  42.539  55.142  1.00  0.00     0.279 HD
HETATM   12  C   UNL     1      26.991  44.113  54.462  1.00  0.00     0.153 C 
HETATM   13  C   UNL     1      25.795  43.952  55.422  1.00  0.00     0.052 C 
HETATM   14  C   UNL     1      28.034  45.035  55.112  1.00  0.00     0.052 C 
HETATM   15  C   UNL     1      26.054  44.641  50.796  1.00  0.00     0.081 A 
ENDROOT
BRANCH   1  16
HETATM   16  N   UNL     1      24.800  46.772  50.493  1.00  0.00    -0.302 N 
HETATM   17  C   UNL     1      25.338  47.856  49.825  1.00  0.00     0.321 C 
HETATM   18  N   UNL     1      24.348  48.542  49.144  1.00  0.00    -0.343 N 
HETATM   19  O   UNL     1      26.506  48.222  49.834  1.00  0.00    -0.247 OA
HETATM   20  H   UNL     1      23.588  47.975  48.797  1.00  0.00     0.164 HD
HETATM   21  H   UNL     1      23.796  46.800  50.622  1.00  0.00     0.171 HD
BRANCH  18  22
HETATM   22  C   UNL     1      24.677  49.714  48.352  1.00  0.00     0.120 C 
HETATM   23  C   UNL     1      23.442  50.498  47.940  1.00  0.00     0.026 C 
ENDBRANCH  18  22
ENDBRANCH   1  16
BRANCH  15  24
HETATM   24  C   UNL     1      25.993  44.139  49.413  1.00  0.00     0.296 C 
HETATM   25  O   UNL     1      26.888  43.462  48.924  1.00  0.00    -0.259 OA
BRANCH  24  26
HETATM   26  O   UNL     1      24.856  44.502  48.749  1.00  0.00    -0.318 OA
BRANCH  26  27
HETATM   27  C   UNL     1      23.901  43.453  48.517  1.00  0.00     0.174 C 
HETATM   28  C   UNL     1      22.843  43.461  49.603  1.00  0.00     0.034 C 
ENDBRANCH  26  27
ENDBRANCH  24  26
ENDBRANCH  15  24
TORSDOF 5
ENDMDL
MODEL 4
REMARK VINA RESULT:      -7.0      3.012      8.597
REMARK  5 active torsions:
REMARK  status: ('A' for Active; 'I' for Inactive)
REMARK    1  A    between atoms: C_2  and  N_3 
REMARK       I    between atoms: N_3  and  C_4 
REMARK       I    between atoms: C_4  and  N_5 
REMARK    2  A    between atoms: N_5  and  C_6 
REMARK    3  A    between atoms: C_20  and  C_21 
REMARK    4  A    between atoms: C_21  and  O_22 
REMARK    5  A    between atoms: O_22  and  C_23 
ROOT
HETATM    1  C   UNL     1      24.821  45.015  50.747  1.00  0.00     0.095 A 
HETATM    2  S   UNL     1      24.914  43.460  50.074  1.00  0.00    -0.073 SA
HETATM    3  C   UNL     1      26.403  43.122  50.816  1.00  0.00     0.027 A 
HETATM    4  C   UNL     1      26.788  44.144  51.665  1.00  0.00    -0.021 A 
HETATM    5  C   UNL     1      28.055  44.054  52.476  1.00  0.00     0.079 C 
HETATM    6  C   UNL     1      28.559  42.599  52.651  1.00  0.00     0.124 C 
HETATM    7  C   UNL     1      27.763  41.836  53.716  1.00  0.00     0.046 C 
HETATM    8  C   UNL     1      30.043  42.609  53.054  1.00  0.00     0.046 C 
HETATM    9  N   UNL     1      28.490  41.854  51.321  1.00  0.00    -0.054 N 
HETATM   10  H   UNL     1      29.180  42.300  50.702  1.00  0.00     0.279 HD
HETATM   11  H   UNL     1      28.818  40.889  51.439  1.00  0.00     0.279 HD
HETATM   12  C   UNL     1      27.164  41.846  50.550  1.00  0.00     0.153 C 
HETATM   13  C   UNL     1      27.560  41.733  49.064  1.00  0.00     0.052 C 
HETATM   14  C   UNL     1      26.381  40.587  50.955  1.00  0.00     0.052 C 
HETATM   15  C   UNL     1      25.871  45.277  51.619  1.00  0.00     0.081 A 
ENDROOT
BRANCH   1  16
HETATM   16  N   UNL     1      23.755  45.844  50.431  1.00  0.00    -0.302 N 
HETATM   17  C   UNL     1      23.785  46.955  49.609  1.00  0.00     0.321 C 
HETATM   18  N   UNL     1      22.519  47.499  49.488  1.00  0.00    -0.343 N 
HETATM   19  O   UNL     1      24.768  47.451  49.074  1.00  0.00    -0.247 OA
HETATM   20  H   UNL     1      21.757  46.838  49.528  1.00  0.00     0.164 HD
HETATM   21  H   UNL     1      22.934  45.764  51.017  1.00  0.00     0.171 HD
BRANCH  18  22
HETATM   22  C   UNL     1      22.296  48.670  48.658  1.00  0.00     0.120 C 
HETATM   23  C   UNL     1      21.168  48.466  47.661  1.00  0.00     0.026 C 
ENDBRANCH  18  22
ENDBRANCH   1  16
BRANCH  15  24
HETATM   24  C   UNL     1      26.059  46.533  52.365  1.00  0.00     0.296 C 
HETATM   25  O   UNL     1      26.354  47.584  51.809  1.00  0.00    -0.259 OA
BRANCH  24  26
HETATM   26  O   UNL     1      25.875  46.404  53.712  1.00  0.00    -0.318 OA
BRANCH  26  27
HETATM   27  C   UNL     1      26.425  47.455  54.525  1.00  0.00     0.174 C 
HETATM   28  C   UNL     1      27.850  47.118  54.918  1.00  0.00     0.034 C 
ENDBRANCH  26  27
ENDBRANCH  24  26
ENDBRANCH  15  24
TORSDOF 5
ENDMDL
MODEL 5
REMARK VINA RESULT:      -6.8      2.600      4.384
REMARK  5 active torsions:
REMARK  status: ('A' for Active; 'I' for Inactive)
REMARK    1  A    between atoms: C_2  and  N_3 
REMARK       I    between atoms: N_3  and  C_4 
REMARK       I    between atoms: C_4  and  N_5 
REMARK    2  A    between atoms: N_5  and  C_6 
REMARK    3  A    between atoms: C_20  and  C_21 
REMARK    4  A    between atoms: C_21  and  O_22 
REMARK    5  A    between atoms: O_22  and  C_23 
ROOT
HETATM    1  C   UNL     1      20.725  47.809  48.680  1.00  0.00     0.095 A 
HETATM    2  S   UNL     1      20.386  46.714  47.428  1.00  0.00    -0.073 SA
HETATM    3  C   UNL     1      18.774  47.226  47.286  1.00  0.00     0.027 A 
HETATM    4  C   UNL     1      18.511  48.305  48.111  1.00  0.00    -0.021 A 
HETATM    5  C   UNL     1      17.159  48.969  48.125  1.00  0.00     0.079 C 
HETATM    6  C   UNL     1      16.331  48.685  46.846  1.00  0.00     0.124 C 
HETATM    7  C   UNL     1      16.792  49.538  45.659  1.00  0.00     0.046 C 
HETATM    8  C   UNL     1      14.844  48.974  47.115  1.00  0.00     0.046 C 
HETATM    9  N   UNL     1      16.413  47.205  46.484  1.00  0.00    -0.054 N 
HETATM   10  H   UNL     1      15.925  46.696  47.232  1.00  0.00     0.279 HD
HETATM   11  H   UNL     1      15.869  47.019  45.633  1.00  0.00     0.279 HD
HETATM   12  C   UNL     1      17.796  46.555  46.352  1.00  0.00     0.153 C 
HETATM   13  C   UNL     1      17.586  45.076  46.735  1.00  0.00     0.052 C 
HETATM   14  C   UNL     1      18.225  46.634  44.879  1.00  0.00     0.052 C 
HETATM   15  C   UNL     1      19.651  48.648  48.954  1.00  0.00     0.081 A 
ENDROOT
BRANCH   1  16
HETATM   16  N   UNL     1      21.978  47.816  49.274  1.00  0.00    -0.302 N 
HETATM   17  C   UNL     1      23.135  48.370  48.761  1.00  0.00     0.321 C 
HETATM   18  N   UNL     1      24.177  48.229  49.661  1.00  0.00    -0.343 N 
HETATM   19  O   UNL     1      23.280  48.888  47.662  1.00  0.00    -0.247 OA
HETATM   20  H   UNL     1      23.914  48.253  50.636  1.00  0.00     0.164 HD
HETATM   21  H   UNL     1      22.112  47.175  50.047  1.00  0.00     0.171 HD
BRANCH  18  22
HETATM   22  C   UNL     1      25.495  48.752  49.349  1.00  0.00     0.120 C 
HETATM   23  C   UNL     1      26.609  47.854  49.859  1.00  0.00     0.026 C 
ENDBRANCH  18  22
ENDBRANCH   1  16
BRANCH  15  24
HETATM   24  C   UNL     1      19.643  49.707  49.976  1.00  0.00     0.296 C 
HETATM   25  O   UNL     1      18.864  49.697  50.922  1.00  0.00    -0.259 OA
BRANCH  24  26
HETATM   26  O   UNL     1      20.575  50.682  49.762  1.00  0.00    -0.318 OA
BRANCH  26  27
HETATM   27  C   UNL     1      20.459  51.402  48.522  1.00  0.00     0.174 C 
HETATM   28  C   UNL     1      19.242  52.307  48.557  1.00  0.00     0.034 C 
ENDBRANCH  26  27
ENDBRANCH  24  26
ENDBRANCH  15  24
TORSDOF 5
ENDMDL
MODEL 6
REMARK VINA RESULT:      -6.8      2.282      4.177
REMARK  5 active torsions:
REMARK  status: ('A' for Active; 'I' for Inactive)
REMARK    1  A    between atoms: C_2  and  N_3 
REMARK       I    between atoms: N_3  and  C_4 
REMARK       I    between atoms: C_4  and  N_5 
REMARK    2  A    between atoms: N_5  and  C_6 
REMARK    3  A    between atoms: C_20  and  C_21 
REMARK    4  A    between atoms: C_21  and  O_22 
REMARK    5  A    between atoms: O_22  and  C_23 
ROOT
HETATM    1  C   UNL     1      21.942  48.992  48.660  1.00  0.00     0.095 A 
HETATM    2  S   UNL     1      21.020  50.290  49.251  1.00  0.00    -0.073 SA
HETATM    3  C   UNL     1      19.614  49.785  48.445  1.00  0.00     0.027 A 
HETATM    4  C   UNL     1      19.804  48.571  47.810  1.00  0.00    -0.021 A 
HETATM    5  C   UNL     1      18.683  47.893  47.065  1.00  0.00     0.079 C 
HETATM    6  C   UNL     1      17.280  48.390  47.500  1.00  0.00     0.124 C 
HETATM    7  C   UNL     1      16.836  47.773  48.831  1.00  0.00     0.046 C 
HETATM    8  C   UNL     1      16.246  48.032  46.419  1.00  0.00     0.046 C 
HETATM    9  N   UNL     1      17.270  49.911  47.605  1.00  0.00    -0.054 N 
HETATM   10  H   UNL     1      17.392  50.270  46.649  1.00  0.00     0.279 HD
HETATM   11  H   UNL     1      16.342  50.239  47.899  1.00  0.00     0.279 HD
HETATM   12  C   UNL     1      18.342  50.598  48.461  1.00  0.00     0.153 C 
HETATM   13  C   UNL     1      18.556  51.980  47.812  1.00  0.00     0.052 C 
HETATM   14  C   UNL     1      17.775  50.792  49.876  1.00  0.00     0.052 C 
HETATM   15  C   UNL     1      21.180  48.101  47.913  1.00  0.00     0.081 A 
ENDROOT
BRANCH   1  16
HETATM   16  N   UNL     1      23.289  48.899  48.975  1.00  0.00    -0.302 N 
HETATM   17  C   UNL     1      24.339  49.503  48.310  1.00  0.00     0.321 C 
HETATM   18  N   UNL     1      25.536  49.224  48.945  1.00  0.00    -0.343 N 
HETATM   19  O   UNL     1      24.278  50.167  47.283  1.00  0.00    -0.247 OA
HETATM   20  H   UNL     1      25.480  49.114  49.947  1.00  0.00     0.164 HD
HETATM   21  H   UNL     1      23.551  48.155  49.609  1.00  0.00     0.171 HD
BRANCH  18  22
HETATM   22  C   UNL     1      26.784  49.766  48.437  1.00  0.00     0.120 C 
HETATM   23  C   UNL     1      27.993  49.234  49.186  1.00  0.00     0.026 C 
ENDBRANCH  18  22
ENDBRANCH   1  16
BRANCH  15  24
HETATM   24  C   UNL     1      21.692  46.874  47.280  1.00  0.00     0.296 C 
HETATM   25  O   UNL     1      21.565  46.657  46.081  1.00  0.00    -0.259 OA
BRANCH  24  26
HETATM   26  O   UNL     1      22.309  46.023  48.152  1.00  0.00    -0.318 OA
BRANCH  26  27
HETATM   27  C   UNL     1      21.482  44.988  48.712  1.00  0.00     0.174 C 
HETATM   28  C   UNL     1      22.337  43.989  49.467  1.00  0.00     0.034 C 
ENDBRANCH  26  27
ENDBRANCH  24  26
ENDBRANCH  15  24
TORSDOF 5
ENDMDL
MODEL 7
REMARK VINA RESULT:      -6.7      5.787      8.615
REMARK  5 active torsions:
REMARK  status: ('A' for Active; 'I' for Inactive)
REMARK    1  A    between atoms: C_2  and  N_3 
REMARK       I    between atoms: N_3  and  C_4 
REMARK       I    between atoms: C_4  and  N_5 
REMARK    2  A    between atoms: N_5  and  C_6 
REMARK    3  A    between atoms: C_20  and  C_21 
REMARK    4  A    between atoms: C_21  and  O_22 
REMARK    5  A    between atoms: O_22  and  C_23 
ROOT
HETATM    1  C   UNL     1      26.862  42.852  49.755  1.00  0.00     0.095 A 
HETATM    2  S   UNL     1      27.780  41.845  50.767  1.00  0.00    -0.073 SA
HETATM    3  C   UNL     1      27.829  42.987  52.022  1.00  0.00     0.027 A 
HETATM    4  C   UNL     1      27.057  44.097  51.725  1.00  0.00    -0.021 A 
HETATM    5  C   UNL     1      26.903  45.229  52.707  1.00  0.00     0.079 C 
HETATM    6  C   UNL     1      27.232  44.815  54.164  1.00  0.00     0.124 C 
HETATM    7  C   UNL     1      26.087  44.030  54.814  1.00  0.00     0.046 C 
HETATM    8  C   UNL     1      27.514  46.070  55.009  1.00  0.00     0.046 C 
HETATM    9  N   UNL     1      28.513  43.988  54.200  1.00  0.00    -0.054 N 
HETATM   10  H   UNL     1      29.276  44.621  53.928  1.00  0.00     0.279 HD
HETATM   11  H   UNL     1      28.727  43.709  55.165  1.00  0.00     0.279 HD
HETATM   12  C   UNL     1      28.624  42.762  53.285  1.00  0.00     0.153 C 
HETATM   13  C   UNL     1      30.129  42.622  52.976  1.00  0.00     0.052 C 
HETATM   14  C   UNL     1      28.158  41.529  54.074  1.00  0.00     0.052 C 
HETATM   15  C   UNL     1      26.495  44.038  50.381  1.00  0.00     0.081 A 
ENDROOT
BRANCH   1  16
HETATM   16  N   UNL     1      26.530  42.432  48.475  1.00  0.00    -0.302 N 
HETATM   17  C   UNL     1      25.421  41.695  48.106  1.00  0.00     0.321 C 
HETATM   18  N   UNL     1      25.399  41.511  46.735  1.00  0.00    -0.343 N 
HETATM   19  O   UNL     1      24.572  41.218  48.849  1.00  0.00    -0.247 OA
HETATM   20  H   UNL     1      25.792  42.265  46.190  1.00  0.00     0.164 HD
HETATM   21  H   UNL     1      27.267  42.478  47.782  1.00  0.00     0.171 HD
BRANCH  18  22
HETATM   22  C   UNL     1      24.314  40.777  46.108  1.00  0.00     0.120 C 
HETATM   23  C   UNL     1      24.752  39.410  45.612  1.00  0.00     0.026 C 
ENDBRANCH  18  22
ENDBRANCH   1  16
BRANCH  15  24
HETATM   24  C   UNL     1      25.689  45.106  49.766  1.00  0.00     0.296 C 
HETATM   25  O   UNL     1      24.468  45.042  49.694  1.00  0.00    -0.259 OA
BRANCH  24  26
HETATM   26  O   UNL     1      26.431  46.151  49.296  1.00  0.00    -0.318 OA
BRANCH  26  27
HETATM   27  C   UNL     1      26.079  47.450  49.804  1.00  0.00     0.174 C 
HETATM   28  C   UNL     1      27.121  48.472  49.389  1.00  0.00     0.034 C 
ENDBRANCH  26  27
ENDBRANCH  24  26
ENDBRANCH  15  24
TORSDOF 5
ENDMDL
MODEL 8
REMARK VINA RESULT:      -6.7     10.709     12.413
REMARK  5 active torsions:
REMARK  status: ('A' for Active; 'I' for Inactive)
REMARK    1  A    between atoms: C_2  and  N_3 
REMARK       I    between atoms: N_3  and  C_4 
REMARK       I    between atoms: C_4  and  N_5 
REMARK    2  A    between atoms: N_5  and  C_6 
REMARK    3  A    between atoms: C_20  and  C_21 
REMARK    4  A    between atoms: C_21  and  O_22 
REMARK    5  A    between atoms: O_22  and  C_23 
ROOT
HETATM    1  C   UNL     1      30.245  49.459  38.843  1.00  0.00     0.095 A 
HETATM    2  S   UNL     1      29.809  47.844  39.132  1.00  0.00    -0.073 SA
HETATM    3  C   UNL     1      28.156  48.146  38.893  1.00  0.00     0.027 A 
HETATM    4  C   UNL     1      27.934  49.449  38.485  1.00  0.00    -0.021 A 
HETATM    5  C   UNL     1      26.548  49.944  38.163  1.00  0.00     0.079 C 
HETATM    6  C   UNL     1      25.555  48.797  37.844  1.00  0.00     0.124 C 
HETATM    7  C   UNL     1      25.743  48.248  36.426  1.00  0.00     0.046 C 
HETATM    8  C   UNL     1      24.110  49.307  37.991  1.00  0.00     0.046 C 
HETATM    9  N   UNL     1      25.709  47.671  38.861  1.00  0.00    -0.054 N 
HETATM   10  H   UNL     1      25.394  48.049  39.764  1.00  0.00     0.279 HD
HETATM   11  H   UNL     1      25.054  46.909  38.646  1.00  0.00     0.279 HD
HETATM   12  C   UNL     1      27.104  47.083  39.104  1.00  0.00     0.153 C 
HETATM   13  C   UNL     1      27.091  46.599  40.568  1.00  0.00     0.052 C 
HETATM   14  C   UNL     1      27.284  45.871  38.178  1.00  0.00     0.052 C 
HETATM   15  C   UNL     1      29.159  50.241  38.470  1.00  0.00     0.081 A 
ENDROOT
BRANCH   1  16
HETATM   16  N   UNL     1      31.572  49.848  38.954  1.00  0.00    -0.302 N 
HETATM   17  C   UNL     1      32.175  50.432  40.052  1.00  0.00     0.321 C 
HETATM   18  N   UNL     1      33.523  50.632  39.811  1.00  0.00    -0.343 N 
HETATM   19  O   UNL     1      31.634  50.778  41.094  1.00  0.00    -0.247 OA
HETATM   20  H   UNL     1      33.963  49.948  39.213  1.00  0.00     0.164 HD
HETATM   21  H   UNL     1      32.094  49.914  38.089  1.00  0.00     0.171 HD
BRANCH  18  22
HETATM   22  C   UNL     1      34.373  51.220  40.831  1.00  0.00     0.120 C 
HETATM   23  C   UNL     1      35.065  50.170  41.683  1.00  0.00     0.026 C 
ENDBRANCH  18  22
ENDBRANCH   1  16
BRANCH  15  24
HETATM   24  C   UNL     1      29.220  51.675  38.144  1.00  0.00     0.296 C 
HETATM   25  O   UNL     1      29.949  52.114  37.263  1.00  0.00    -0.259 OA
BRANCH  24  26
HETATM   26  O   UNL     1      28.397  52.448  38.912  1.00  0.00    -0.318 OA
BRANCH  26  27
HETATM   27  C   UNL     1      28.839  52.694  40.258  1.00  0.00     0.174 C 
HETATM   28  C   UNL     1      27.775  52.256  41.245  1.00  0.00     0.034 C 
ENDBRANCH  26  27
ENDBRANCH  24  26
ENDBRANCH  15  24
TORSDOF 5
ENDMDL
MODEL 9
REMARK VINA RESULT:      -6.6     10.203     12.838
REMARK  5 active torsions:
REMARK  status: ('A' for Active; 'I' for Inactive)
REMARK    1  A    between atoms: C_2  and  N_3 
REMARK       I    between atoms: N_3  and  C_4 
REMARK       I    between atoms: C_4  and  N_5 
REMARK    2  A    between atoms: N_5  and  C_6 
REMARK    3  A    between atoms: C_20  and  C_21 
REMARK    4  A    between atoms: C_21  and  O_22 
REMARK    5  A    between atoms: O_22  and  C_23 
ROOT
HETATM    1  C   UNL     1      28.026  50.299  40.522  1.00  0.00     0.095 A 
HETATM    2  S   UNL     1      28.356  51.854  41.117  1.00  0.00    -0.073 SA
HETATM    3  C   UNL     1      30.037  51.625  41.061  1.00  0.00     0.027 A 
HETATM    4  C   UNL     1      30.362  50.409  40.488  1.00  0.00    -0.021 A 
HETATM    5  C   UNL     1      31.797  49.997  40.284  1.00  0.00     0.079 C 
HETATM    6  C   UNL     1      32.777  51.199  40.288  1.00  0.00     0.124 C 
HETATM    7  C   UNL     1      32.756  51.966  38.962  1.00  0.00     0.046 C 
HETATM    8  C   UNL     1      34.209  50.699  40.549  1.00  0.00     0.046 C 
HETATM    9  N   UNL     1      32.446  52.144  41.439  1.00  0.00    -0.054 N 
HETATM   10  H   UNL     1      32.654  51.631  42.306  1.00  0.00     0.279 HD
HETATM   11  H   UNL     1      33.092  52.942  41.437  1.00  0.00     0.279 HD
HETATM   12  C   UNL     1      31.008  52.659  41.579  1.00  0.00     0.153 C 
HETATM   13  C   UNL     1      30.809  52.902  43.088  1.00  0.00     0.052 C 
HETATM   14  C   UNL     1      30.904  54.001  40.838  1.00  0.00     0.052 C 
HETATM   15  C   UNL     1      29.183  49.607  40.182  1.00  0.00     0.081 A 
ENDROOT
BRANCH   1  16
HETATM   16  N   UNL     1      26.713  49.873  40.388  1.00  0.00    -0.302 N 
HETATM   17  C   UNL     1      25.947  49.899  39.238  1.00  0.00     0.321 C 
HETATM   18  N   UNL     1      24.703  49.342  39.476  1.00  0.00    -0.343 N 
HETATM   19  O   UNL     1      26.261  50.370  38.153  1.00  0.00    -0.247 OA
HETATM   20  H   UNL     1      24.683  48.599  40.159  1.00  0.00     0.164 HD
HETATM   21  H   UNL     1      26.197  49.731  41.247  1.00  0.00     0.171 HD
BRANCH  18  22
HETATM   22  C   UNL     1      23.724  49.243  38.407  1.00  0.00     0.120 C 
HETATM   23  C   UNL     1      22.501  50.109  38.662  1.00  0.00     0.026 C 
ENDBRANCH  18  22
ENDBRANCH   1  16
BRANCH  15  24
HETATM   24  C   UNL     1      29.222  48.243  39.629  1.00  0.00     0.296 C 
HETATM   25  O   UNL     1      29.625  48.009  38.497  1.00  0.00    -0.259 OA
BRANCH  24  26
HETATM   26  O   UNL     1      28.770  47.288  40.494  1.00  0.00    -0.318 OA
BRANCH  26  27
HETATM   27  C   UNL     1      27.721  46.438  40.000  1.00  0.00     0.174 C 
HETATM   28  C   UNL     1      28.215  45.008  39.892  1.00  0.00     0.034 C 
ENDBRANCH  26  27
ENDBRANCH  24  26
ENDBRANCH  15  24
TORSDOF 5
ENDMDL
MODEL 10
REMARK VINA RESULT:      -6.5      9.524     12.421
REMARK  5 active torsions:
REMARK  status: ('A' for Active; 'I' for Inactive)
REMARK    1  A    between atoms: C_2  and  N_3 
REMARK       I    between atoms: N_3  and  C_4 
REMARK       I    between atoms: C_4  and  N_5 
REMARK    2  A    between atoms: N_5  and  C_6 
REMARK    3  A    between atoms: C_20  and  C_21 
REMARK    4  A    between atoms: C_21  and  O_22 
REMARK    5  A    between atoms: O_22  and  C_23 
ROOT
HETATM    1  C   UNL     1      28.245  49.292  40.888  1.00  0.00     0.095 A 
HETATM    2  S   UNL     1      29.419  48.776  42.000  1.00  0.00    -0.073 SA
HETATM    3  C   UNL     1      30.698  49.453  41.113  1.00  0.00     0.027 A 
HETATM    4  C   UNL     1      30.234  50.169  40.024  1.00  0.00    -0.021 A 
HETATM    5  C   UNL     1      31.179  50.904  39.109  1.00  0.00     0.079 C 
HETATM    6  C   UNL     1      32.553  51.194  39.765  1.00  0.00     0.124 C 
HETATM    7  C   UNL     1      32.492  52.378  40.736  1.00  0.00     0.046 C 
HETATM    8  C   UNL     1      33.594  51.500  38.675  1.00  0.00     0.046 C 
HETATM    9  N   UNL     1      33.061  49.953  40.494  1.00  0.00    -0.054 N 
HETATM   10  H   UNL     1      33.257  49.251  39.769  1.00  0.00     0.279 HD
HETATM   11  H   UNL     1      33.968  50.148  40.933  1.00  0.00     0.279 HD
HETATM   12  C   UNL     1      32.142  49.271  41.515  1.00  0.00     0.153 C 
HETATM   13  C   UNL     1      32.542  47.782  41.491  1.00  0.00     0.052 C 
HETATM   14  C   UNL     1      32.453  49.851  42.903  1.00  0.00     0.052 C 
HETATM   15  C   UNL     1      28.788  50.066  39.868  1.00  0.00     0.081 A 
ENDROOT
BRANCH   1  16
HETATM   16  N   UNL     1      26.913  48.960  41.082  1.00  0.00    -0.302 N 
HETATM   17  C   UNL     1      26.279  47.803  40.673  1.00  0.00     0.321 C 
HETATM   18  N   UNL     1      24.960  47.802  41.092  1.00  0.00    -0.343 N 
HETATM   19  O   UNL     1      26.757  46.897  40.003  1.00  0.00    -0.247 OA
HETATM   20  H   UNL     1      24.783  48.273  41.968  1.00  0.00     0.164 HD
HETATM   21  H   UNL     1      26.297  49.717  41.353  1.00  0.00     0.171 HD
BRANCH  18  22
HETATM   22  C   UNL     1      24.093  46.676  40.793  1.00  0.00     0.120 C 
HETATM   23  C   UNL     1      23.909  45.755  41.988  1.00  0.00     0.026 C 
ENDBRANCH  18  22
ENDBRANCH   1  16
BRANCH  15  24
HETATM   24  C   UNL     1      28.023  50.667  38.763  1.00  0.00     0.296 C 
HETATM   25  O   UNL     1      27.473  49.988  37.905  1.00  0.00    -0.259 OA
BRANCH  24  26
HETATM   26  O   UNL     1      27.993  52.032  38.796  1.00  0.00    -0.318 OA
BRANCH  26  27
HETATM   27  C   UNL     1      28.258  52.636  40.074  1.00  0.00     0.174 C 
HETATM   28  C   UNL     1      29.204  53.809  39.909  1.00  0.00     0.034 C 
ENDBRANCH  26  27
ENDBRANCH  24  26
ENDBRANCH  15  24
TORSDOF 5
ENDMDL
