MODEL 1
REMARK VINA RESULT:      -8.0      0.000      0.000
REMARK  7 active torsions:
REMARK  status: ('A' for Active; 'I' for Inactive)
REMARK    1  A    between atoms: C_3  and  N_4 
REMARK       I    between atoms: N_4  and  C_5 
REMARK       I    between atoms: C_5  and  N_6 
REMARK    2  A    between atoms: N_6  and  C_7 
REMARK    3  A    between atoms: C_7  and  C_8 
REMARK    4  A    between atoms: C_8  and  N_9 
REMARK    5  A    between atoms: C_23  and  N_24 
REMARK       I    between atoms: N_24  and  C_25 
REMARK    6  A    between atoms: C_25  and  C_26 
REMARK    7  A    between atoms: C_26  and  O_27 
ROOT
HETATM    1  N   UNL     1      24.467  48.534  48.978  1.00  0.00    -0.308 N 
HETATM    2  C   UNL     1      25.422  47.980  49.769  1.00  0.00     0.320 C 
HETATM    3  N   UNL     1      25.022  47.265  50.847  1.00  0.00    -0.340 N 
HETATM    4  O   UNL     1      26.608  48.224  49.543  1.00  0.00    -0.247 OA
HETATM    5  H   UNL     1      24.858  49.219  48.343  1.00  0.00     0.170 HD
HETATM    6  H   UNL     1      24.047  47.397  51.085  1.00  0.00     0.164 HD
ENDROOT
BRANCH   1   7
HETATM    7  C   UNL     1      23.073  48.324  48.875  1.00  0.00     0.044 A 
HETATM    8  C   UNL     1      22.189  49.414  49.098  1.00  0.00    -0.008 A 
HETATM    9  C   UNL     1      22.723  50.764  49.525  1.00  0.00     0.053 C 
HETATM   10  C   UNL     1      20.791  49.221  48.937  1.00  0.00     0.043 A 
HETATM   11  C   UNL     1      20.310  47.952  48.601  1.00  0.00     0.030 A 
HETATM   12  C   UNL     1      21.184  46.892  48.375  1.00  0.00     0.005 A 
HETATM   13  C   UNL     1      22.557  47.082  48.494  1.00  0.00     0.030 A 
BRANCH  10  14
HETATM   14  N   UNL     1      19.916  50.320  49.092  1.00  0.00    -0.325 N 
HETATM   15  C   UNL     1      18.962  50.534  50.077  1.00  0.00     0.245 C 
HETATM   16  O   UNL     1      18.741  49.831  51.055  1.00  0.00    -0.271 OA
HETATM   17  H   UNL     1      19.944  51.060  48.397  1.00  0.00     0.169 HD
BRANCH  15  18
HETATM   18  C   UNL     1      18.216  51.855  49.856  1.00  0.00     0.270 C 
BRANCH  18  19
HETATM   19  O   UNL     1      16.811  51.736  50.091  1.00  0.00    -0.387 OA
HETATM   20  C   UNL     1      16.172  53.011  50.104  1.00  0.00     0.202 C 
ENDBRANCH  18  19
ENDBRANCH  15  18
ENDBRANCH  10  14
ENDBRANCH   1   7
BRANCH   3  21
HETATM   21  C   UNL     1      25.828  46.663  51.914  1.00  0.00     0.163 C 
BRANCH  21  22
HETATM   22  C   UNL     1      26.201  45.138  51.894  1.00  0.00     0.143 C 
HETATM   23  C   UNL     1      24.922  44.291  51.652  1.00  0.00     0.041 C 
HETATM   24  C   UNL     1      25.196  43.451  50.407  1.00  0.00     0.003 C 
HETATM   25  C   UNL     1      26.203  44.270  49.622  1.00  0.00     0.003 C 
HETATM   26  C   UNL     1      27.131  44.813  50.701  1.00  0.00     0.041 C 
BRANCH  22  27
HETATM   27  N   UNL     1      26.860  44.726  53.210  1.00  0.00    -0.061 N 
HETATM   28  H   UNL     1      26.205  43.998  53.572  1.00  0.00     0.281 HD
HETATM   29  C   UNL     1      26.954  45.732  54.340  1.00  0.00     0.236 C 
HETATM   30  C   UNL     1      28.376  45.608  54.860  1.00  0.00     0.029 C 
HETATM   31  C   UNL     1      28.772  44.189  54.513  1.00  0.00     0.029 C 
HETATM   32  C   UNL     1      28.192  44.015  53.126  1.00  0.00     0.236 C 
ENDBRANCH  22  27
ENDBRANCH  21  22
ENDBRANCH   3  21
TORSDOF 7
ENDMDL
MODEL 2
REMARK VINA RESULT:      -7.9      2.343      4.367
REMARK  7 active torsions:
REMARK  status: ('A' for Active; 'I' for Inactive)
REMARK    1  A    between atoms: C_3  and  N_4 
REMARK       I    between atoms: N_4  and  C_5 
REMARK       I    between atoms: C_5  and  N_6 
REMARK    2  A    between atoms: N_6  and  C_7 
REMARK    3  A    between atoms: C_7  and  C_8 
REMARK    4  A    between atoms: C_8  and  N_9 
REMARK    5  A    between atoms: C_23  and  N_24 
REMARK       I    between atoms: N_24  and  C_25 
REMARK    6  A    between atoms: C_25  and  C_26 
REMARK    7  A    between atoms: C_26  and  O_27 
ROOT
HETATM    1  N   UNL     1      26.273  44.445  49.487  1.00  0.00    -0.308 N 
HETATM    2  C   UNL     1      26.940  43.702  50.408  1.00  0.00     0.320 C 
HETATM    3  N   UNL     1      27.572  44.351  51.415  1.00  0.00    -0.340 N 
HETATM    4  O   UNL     1      27.035  42.485  50.247  1.00  0.00    -0.247 OA
HETATM    5  H   UNL     1      26.030  43.898  48.670  1.00  0.00     0.170 HD
HETATM    6  H   UNL     1      27.670  45.347  51.260  1.00  0.00     0.164 HD
ENDROOT
BRANCH   1   7
HETATM    7  C   UNL     1      25.858  45.795  49.470  1.00  0.00     0.044 A 
HETATM    8  C   UNL     1      24.469  46.094  49.454  1.00  0.00    -0.008 A 
HETATM    9  C   UNL     1      23.443  44.985  49.368  1.00  0.00     0.053 C 
HETATM   10  C   UNL     1      24.048  47.451  49.496  1.00  0.00     0.043 A 
HETATM   11  C   UNL     1      25.010  48.465  49.514  1.00  0.00     0.030 A 
HETATM   12  C   UNL     1      26.368  48.162  49.540  1.00  0.00     0.005 A 
HETATM   13  C   UNL     1      26.789  46.837  49.536  1.00  0.00     0.030 A 
BRANCH  10  14
HETATM   14  N   UNL     1      22.667  47.747  49.549  1.00  0.00    -0.325 N 
HETATM   15  C   UNL     1      21.801  48.020  48.500  1.00  0.00     0.245 C 
HETATM   16  O   UNL     1      22.059  47.987  47.302  1.00  0.00    -0.271 OA
HETATM   17  H   UNL     1      22.219  47.799  50.459  1.00  0.00     0.169 HD
BRANCH  15  18
HETATM   18  C   UNL     1      20.382  48.309  49.005  1.00  0.00     0.270 C 
BRANCH  18  19
HETATM   19  O   UNL     1      20.337  49.421  49.902  1.00  0.00    -0.387 OA
HETATM   20  C   UNL     1      20.441  50.661  49.206  1.00  0.00     0.202 C 
ENDBRANCH  18  19
ENDBRANCH  15  18
ENDBRANCH  10  14
ENDBRANCH   1   7
BRANCH   3  21
HETATM   21  C   UNL     1      28.446  43.813  52.463  1.00  0.00     0.163 C 
BRANCH  21  22
HETATM   22  C   UNL     1      28.254  44.213  53.970  1.00  0.00     0.143 C 
HETATM   23  C   UNL     1      27.466  45.548  54.060  1.00  0.00     0.041 C 
HETATM   24  C   UNL     1      26.234  45.258  54.914  1.00  0.00     0.003 C 
HETATM   25  C   UNL     1      25.976  43.779  54.703  1.00  0.00     0.003 C 
HETATM   26  C   UNL     1      27.374  43.175  54.707  1.00  0.00     0.041 C 
BRANCH  22  27
HETATM   27  N   UNL     1      29.605  44.355  54.667  1.00  0.00    -0.061 N 
HETATM   28  H   UNL     1      30.134  44.971  54.011  1.00  0.00     0.281 HD
HETATM   29  C   UNL     1      30.492  43.136  54.823  1.00  0.00     0.236 C 
HETATM   30  C   UNL     1      30.983  43.187  56.260  1.00  0.00     0.029 C 
HETATM   31  C   UNL     1      30.933  44.658  56.613  1.00  0.00     0.029 C 
HETATM   32  C   UNL     1      29.634  45.105  55.980  1.00  0.00     0.236 C 
ENDBRANCH  22  27
ENDBRANCH  21  22
ENDBRANCH   3  21
TORSDOF 7
ENDMDL
MODEL 3
REMARK VINA RESULT:      -7.7      3.124      4.725
REMARK  7 active torsions:
REMARK  status: ('A' for Active; 'I' for Inactive)
REMARK    1  A    between atoms: C_3  and  N_4 
REMARK       I    between atoms: N_4  and  C_5 
REMARK       I    between atoms: C_5  and  N_6 
REMARK    2  A    between atoms: N_6  and  C_7 
REMARK    3  A    between atoms: C_7  and  C_8 
REMARK    4  A    between atoms: C_8  and  N_9 
REMARK    5  A    between atoms: C_23  and  N_24 
REMARK       I    between atoms: N_24  and  C_25 
REMARK    6  A    between atoms: C_25  and  C_26 
REMARK    7  A    between atoms: C_26  and  O_27 
ROOT
HETATM    1  N   UNL     1      26.065  43.255  48.943  1.00  0.00    -0.308 N 
HETATM    2  C   UNL     1      26.887  42.816  49.932  1.00  0.00     0.320 C 
HETATM    3  N   UNL     1      26.572  43.131  51.211  1.00  0.00    -0.340 N 
HETATM    4  O   UNL     1      27.933  42.239  49.634  1.00  0.00    -0.247 OA
HETATM    5  H   UNL     1      26.495  43.164  48.031  1.00  0.00     0.170 HD
HETATM    6  H   UNL     1      25.867  43.854  51.290  1.00  0.00     0.164 HD
ENDROOT
BRANCH   1   7
HETATM    7  C   UNL     1      24.756  43.786  48.956  1.00  0.00     0.044 A 
HETATM    8  C   UNL     1      24.572  45.173  49.204  1.00  0.00    -0.008 A 
HETATM    9  C   UNL     1      25.752  46.060  49.536  1.00  0.00     0.053 C 
HETATM   10  C   UNL     1      23.262  45.721  49.158  1.00  0.00     0.043 A 
HETATM   11  C   UNL     1      22.176  44.877  48.909  1.00  0.00     0.030 A 
HETATM   12  C   UNL     1      22.366  43.521  48.658  1.00  0.00     0.005 A 
HETATM   13  C   UNL     1      23.649  42.983  48.664  1.00  0.00     0.030 A 
BRANCH  10  14
HETATM   14  N   UNL     1      23.085  47.112  49.337  1.00  0.00    -0.325 N 
HETATM   15  C   UNL     1      22.617  48.048  48.426  1.00  0.00     0.245 C 
HETATM   16  O   UNL     1      22.198  47.832  47.296  1.00  0.00    -0.271 OA
HETATM   17  H   UNL     1      23.344  47.520  50.230  1.00  0.00     0.169 HD
BRANCH  15  18
HETATM   18  C   UNL     1      22.602  49.458  49.030  1.00  0.00     0.270 C 
BRANCH  18  19
HETATM   19  O   UNL     1      23.393  50.383  48.281  1.00  0.00    -0.387 OA
HETATM   20  C   UNL     1      24.756  49.970  48.210  1.00  0.00     0.202 C 
ENDBRANCH  18  19
ENDBRANCH  15  18
ENDBRANCH  10  14
ENDBRANCH   1   7
BRANCH   3  21
HETATM   21  C   UNL     1      27.330  42.887  52.442  1.00  0.00     0.163 C 
BRANCH  21  22
HETATM   22  C   UNL     1      27.408  43.967  53.579  1.00  0.00     0.143 C 
HETATM   23  C   UNL     1      26.811  45.307  53.070  1.00  0.00     0.041 C 
HETATM   24  C   UNL     1      25.689  45.670  54.039  1.00  0.00     0.003 C 
HETATM   25  C   UNL     1      25.223  44.334  54.584  1.00  0.00     0.003 C 
HETATM   26  C   UNL     1      26.522  43.564  54.783  1.00  0.00     0.041 C 
BRANCH  22  27
HETATM   27  N   UNL     1      28.853  44.175  54.028  1.00  0.00    -0.061 N 
HETATM   28  H   UNL     1      29.227  44.817  53.295  1.00  0.00     0.281 HD
HETATM   29  C   UNL     1      29.811  43.001  54.013  1.00  0.00     0.236 C 
HETATM   30  C   UNL     1      30.546  43.075  55.342  1.00  0.00     0.029 C 
HETATM   31  C   UNL     1      30.488  44.541  55.713  1.00  0.00     0.029 C 
HETATM   32  C   UNL     1      29.077  44.924  55.323  1.00  0.00     0.236 C 
ENDBRANCH  22  27
ENDBRANCH  21  22
ENDBRANCH   3  21
TORSDOF 7
ENDMDL
MODEL 4
REMARK VINA RESULT:      -7.7      2.693      9.491
REMARK  7 active torsions:
REMARK  status: ('A' for Active; 'I' for Inactive)
REMARK    1  A    between atoms: C_3  and  N_4 
REMARK       I    between atoms: N_4  and  C_5 
REMARK       I    between atoms: C_5  and  N_6 
REMARK    2  A    between atoms: N_6  and  C_7 
REMARK    3  A    between atoms: C_7  and  C_8 
REMARK    4  A    between atoms: C_8  and  N_9 
REMARK    5  A    between atoms: C_23  and  N_24 
REMARK       I    between atoms: N_24  and  C_25 
REMARK    6  A    between atoms: C_25  and  C_26 
REMARK    7  A    between atoms: C_26  and  O_27 
ROOT
HETATM    1  N   UNL     1      23.498  45.526  49.106  1.00  0.00    -0.308 N 
HETATM    2  C   UNL     1      22.509  46.239  48.507  1.00  0.00     0.320 C 
HETATM    3  N   UNL     1      22.023  47.325  49.156  1.00  0.00    -0.340 N 
HETATM    4  O   UNL     1      22.020  45.827  47.455  1.00  0.00    -0.247 OA
HETATM    5  H   UNL     1      23.634  44.627  48.659  1.00  0.00     0.170 HD
HETATM    6  H   UNL     1      22.295  47.372  50.130  1.00  0.00     0.164 HD
ENDROOT
BRANCH   1   7
HETATM    7  C   UNL     1      24.353  45.807  50.195  1.00  0.00     0.044 A 
HETATM    8  C   UNL     1      24.821  44.737  51.004  1.00  0.00    -0.008 A 
HETATM    9  C   UNL     1      24.345  43.322  50.761  1.00  0.00     0.053 C 
HETATM   10  C   UNL     1      25.728  45.011  52.063  1.00  0.00     0.043 A 
HETATM   11  C   UNL     1      26.111  46.332  52.312  1.00  0.00     0.030 A 
HETATM   12  C   UNL     1      25.655  47.372  51.508  1.00  0.00     0.005 A 
HETATM   13  C   UNL     1      24.797  47.110  50.446  1.00  0.00     0.030 A 
BRANCH  10  14
HETATM   14  N   UNL     1      26.247  43.940  52.826  1.00  0.00    -0.325 N 
HETATM   15  C   UNL     1      27.554  43.481  52.895  1.00  0.00     0.245 C 
HETATM   16  O   UNL     1      28.537  43.969  52.350  1.00  0.00    -0.271 OA
HETATM   17  H   UNL     1      25.604  43.397  53.394  1.00  0.00     0.169 HD
BRANCH  15  18
HETATM   18  C   UNL     1      27.676  42.276  53.836  1.00  0.00     0.270 C 
BRANCH  18  19
HETATM   19  O   UNL     1      28.905  41.567  53.661  1.00  0.00    -0.387 OA
HETATM   20  C   UNL     1      28.834  40.659  52.564  1.00  0.00     0.202 C 
ENDBRANCH  18  19
ENDBRANCH  15  18
ENDBRANCH  10  14
ENDBRANCH   1   7
BRANCH   3  21
HETATM   21  C   UNL     1      20.897  48.194  48.799  1.00  0.00     0.163 C 
BRANCH  21  22
HETATM   22  C   UNL     1      21.066  49.752  48.709  1.00  0.00     0.143 C 
HETATM   23  C   UNL     1      22.046  50.236  49.812  1.00  0.00     0.041 C 
HETATM   24  C   UNL     1      23.170  50.976  49.090  1.00  0.00     0.003 C 
HETATM   25  C   UNL     1      23.205  50.342  47.713  1.00  0.00     0.003 C 
HETATM   26  C   UNL     1      21.732  50.159  47.373  1.00  0.00     0.041 C 
BRANCH  22  27
HETATM   27  N   UNL     1      19.717  50.451  48.866  1.00  0.00    -0.061 N 
HETATM   28  H   UNL     1      19.056  49.648  48.954  1.00  0.00     0.281 HD
HETATM   29  C   UNL     1      19.162  51.260  47.710  1.00  0.00     0.236 C 
HETATM   30  C   UNL     1      18.663  52.552  48.337  1.00  0.00     0.029 C 
HETATM   31  C   UNL     1      18.342  52.167  49.765  1.00  0.00     0.029 C 
HETATM   32  C   UNL     1      19.493  51.255  50.128  1.00  0.00     0.236 C 
ENDBRANCH  22  27
ENDBRANCH  21  22
ENDBRANCH   3  21
TORSDOF 7
ENDMDL
MODEL 5
REMARK VINA RESULT:      -7.6      2.305      8.917
REMARK  7 active torsions:
REMARK  status: ('A' for Active; 'I' for Inactive)
REMARK    1  A    between atoms: C_3  and  N_4 
REMARK       I    between atoms: N_4  and  C_5 
REMARK       I    between atoms: C_5  and  N_6 
REMARK    2  A    between atoms: N_6  and  C_7 
REMARK    3  A    between atoms: C_7  and  C_8 
REMARK    4  A    between atoms: C_8  and  N_9 
REMARK    5  A    between atoms: C_23  and  N_24 
REMARK       I    between atoms: N_24  and  C_25 
REMARK    6  A    between atoms: C_25  and  C_26 
REMARK    7  A    between atoms: C_26  and  O_27 
ROOT
HETATM    1  N   UNL     1      24.430  47.868  49.486  1.00  0.00    -0.308 N 
HETATM    2  C   UNL     1      23.547  48.899  49.429  1.00  0.00     0.320 C 
HETATM    3  N   UNL     1      22.228  48.617  49.554  1.00  0.00    -0.340 N 
HETATM    4  O   UNL     1      23.957  50.030  49.167  1.00  0.00    -0.247 OA
HETATM    5  H   UNL     1      25.350  48.145  49.164  1.00  0.00     0.170 HD
HETATM    6  H   UNL     1      22.011  47.633  49.459  1.00  0.00     0.164 HD
ENDROOT
BRANCH   1   7
HETATM    7  C   UNL     1      24.305  46.527  49.912  1.00  0.00     0.044 A 
HETATM    8  C   UNL     1      24.995  46.102  51.079  1.00  0.00    -0.008 A 
HETATM    9  C   UNL     1      25.923  47.046  51.812  1.00  0.00     0.053 C 
HETATM   10  C   UNL     1      24.824  44.770  51.544  1.00  0.00     0.043 A 
HETATM   11  C   UNL     1      24.010  43.893  50.821  1.00  0.00     0.030 A 
HETATM   12  C   UNL     1      23.330  44.321  49.684  1.00  0.00     0.005 A 
HETATM   13  C   UNL     1      23.462  45.633  49.243  1.00  0.00     0.030 A 
BRANCH  10  14
HETATM   14  N   UNL     1      25.456  44.366  52.742  1.00  0.00    -0.325 N 
HETATM   15  C   UNL     1      26.586  43.578  52.899  1.00  0.00     0.245 C 
HETATM   16  O   UNL     1      27.303  43.130  52.013  1.00  0.00    -0.271 OA
HETATM   17  H   UNL     1      25.044  44.654  53.625  1.00  0.00     0.169 HD
BRANCH  15  18
HETATM   18  C   UNL     1      26.920  43.368  54.381  1.00  0.00     0.270 C 
BRANCH  18  19
HETATM   19  O   UNL     1      27.219  44.594  55.053  1.00  0.00    -0.387 OA
HETATM   20  C   UNL     1      28.532  45.055  54.742  1.00  0.00     0.202 C 
ENDBRANCH  18  19
ENDBRANCH  15  18
ENDBRANCH  10  14
ENDBRANCH   1   7
BRANCH   3  21
HETATM   21  C   UNL     1      21.071  49.508  49.420  1.00  0.00     0.163 C 
BRANCH  21  22
HETATM   22  C   UNL     1      19.744  49.023  48.735  1.00  0.00     0.143 C 
HETATM   23  C   UNL     1      20.051  48.515  47.300  1.00  0.00     0.041 C 
HETATM   24  C   UNL     1      19.548  47.075  47.241  1.00  0.00     0.003 C 
HETATM   25  C   UNL     1      19.629  46.594  48.676  1.00  0.00     0.003 C 
HETATM   26  C   UNL     1      19.155  47.799  49.478  1.00  0.00     0.041 C 
BRANCH  22  27
HETATM   27  N   UNL     1      18.719  50.155  48.681  1.00  0.00    -0.061 N 
HETATM   28  H   UNL     1      17.872  49.675  48.306  1.00  0.00     0.281 HD
HETATM   29  C   UNL     1      18.940  51.311  47.726  1.00  0.00     0.236 C 
HETATM   30  C   UNL     1      18.643  52.558  48.542  1.00  0.00     0.029 C 
HETATM   31  C   UNL     1      17.679  52.080  49.606  1.00  0.00     0.029 C 
HETATM   32  C   UNL     1      18.260  50.739  49.998  1.00  0.00     0.236 C 
ENDBRANCH  22  27
ENDBRANCH  21  22
ENDBRANCH   3  21
TORSDOF 7
ENDMDL
MODEL 6
REMARK VINA RESULT:      -7.6      2.485      9.129
REMARK  7 active torsions:
REMARK  status: ('A' for Active; 'I' for Inactive)
REMARK    1  A    between atoms: C_3  and  N_4 
REMARK       I    between atoms: N_4  and  C_5 
REMARK       I    between atoms: C_5  and  N_6 
REMARK    2  A    between atoms: N_6  and  C_7 
REMARK    3  A    between atoms: C_7  and  C_8 
REMARK    4  A    between atoms: C_8  and  N_9 
REMARK    5  A    between atoms: C_23  and  N_24 
REMARK       I    between atoms: N_24  and  C_25 
REMARK    6  A    between atoms: C_25  and  C_26 
REMARK    7  A    between atoms: C_26  and  O_27 
ROOT
HETATM    1  N   UNL     1      23.536  48.771  49.082  1.00  0.00    -0.308 N 
HETATM    2  C   UNL     1      22.638  49.691  49.521  1.00  0.00     0.320 C 
HETATM    3  N   UNL     1      21.378  49.274  49.791  1.00  0.00    -0.340 N 
HETATM    4  O   UNL     1      22.963  50.878  49.563  1.00  0.00    -0.247 OA
HETATM    5  H   UNL     1      24.366  49.210  48.701  1.00  0.00     0.170 HD
HETATM    6  H   UNL     1      21.167  48.352  49.428  1.00  0.00     0.164 HD
ENDROOT
BRANCH   1   7
HETATM    7  C   UNL     1      23.528  47.358  49.073  1.00  0.00     0.044 A 
HETATM    8  C   UNL     1      24.443  46.654  49.901  1.00  0.00    -0.008 A 
HETATM    9  C   UNL     1      25.474  47.400  50.720  1.00  0.00     0.053 C 
HETATM   10  C   UNL     1      24.397  45.234  49.939  1.00  0.00     0.043 A 
HETATM   11  C   UNL     1      23.479  44.558  49.131  1.00  0.00     0.030 A 
HETATM   12  C   UNL     1      22.580  45.256  48.330  1.00  0.00     0.005 A 
HETATM   13  C   UNL     1      22.593  46.647  48.315  1.00  0.00     0.030 A 
BRANCH  10  14
HETATM   14  N   UNL     1      25.260  44.535  50.813  1.00  0.00    -0.325 N 
HETATM   15  C   UNL     1      26.481  43.940  50.530  1.00  0.00     0.245 C 
HETATM   16  O   UNL     1      27.086  43.968  49.465  1.00  0.00    -0.271 OA
HETATM   17  H   UNL     1      24.971  44.411  51.779  1.00  0.00     0.169 HD
BRANCH  15  18
HETATM   18  C   UNL     1      27.078  43.268  51.773  1.00  0.00     0.270 C 
BRANCH  18  19
HETATM   19  O   UNL     1      26.335  43.555  52.960  1.00  0.00    -0.387 OA
HETATM   20  C   UNL     1      27.171  43.549  54.115  1.00  0.00     0.202 C 
ENDBRANCH  18  19
ENDBRANCH  15  18
ENDBRANCH  10  14
ENDBRANCH   1   7
BRANCH   3  21
HETATM   21  C   UNL     1      20.199  50.061  50.164  1.00  0.00     0.163 C 
BRANCH  21  22
HETATM   22  C   UNL     1      19.035  50.321  49.143  1.00  0.00     0.143 C 
HETATM   23  C   UNL     1      17.916  51.153  49.825  1.00  0.00     0.041 C 
HETATM   24  C   UNL     1      17.735  52.406  48.972  1.00  0.00     0.003 C 
HETATM   25  C   UNL     1      19.089  52.609  48.321  1.00  0.00     0.003 C 
HETATM   26  C   UNL     1      19.522  51.194  47.961  1.00  0.00     0.041 C 
BRANCH  22  27
HETATM   27  N   UNL     1      18.464  49.001  48.628  1.00  0.00    -0.061 N 
HETATM   28  H   UNL     1      19.321  48.486  48.327  1.00  0.00     0.281 HD
HETATM   29  C   UNL     1      17.584  49.003  47.394  1.00  0.00     0.236 C 
HETATM   30  C   UNL     1      16.408  48.107  47.746  1.00  0.00     0.029 C 
HETATM   31  C   UNL     1      16.965  47.165  48.792  1.00  0.00     0.029 C 
HETATM   32  C   UNL     1      17.818  48.082  49.641  1.00  0.00     0.236 C 
ENDBRANCH  22  27
ENDBRANCH  21  22
ENDBRANCH   3  21
TORSDOF 7
ENDMDL
MODEL 7
REMARK VINA RESULT:      -7.6      2.661      9.585
REMARK  7 active torsions:
REMARK  status: ('A' for Active; 'I' for Inactive)
REMARK    1  A    between atoms: C_3  and  N_4 
REMARK       I    between atoms: N_4  and  C_5 
REMARK       I    between atoms: C_5  and  N_6 
REMARK    2  A    between atoms: N_6  and  C_7 
REMARK    3  A    between atoms: C_7  and  C_8 
REMARK    4  A    between atoms: C_8  and  N_9 
REMARK    5  A    between atoms: C_23  and  N_24 
REMARK       I    between atoms: N_24  and  C_25 
REMARK    6  A    between atoms: C_25  and  C_26 
REMARK    7  A    between atoms: C_26  and  O_27 
ROOT
HETATM    1  N   UNL     1      22.159  46.482  48.716  1.00  0.00    -0.308 N 
HETATM    2  C   UNL     1      20.918  47.036  48.720  1.00  0.00     0.320 C 
HETATM    3  N   UNL     1      20.700  48.108  49.519  1.00  0.00    -0.340 N 
HETATM    4  O   UNL     1      20.014  46.495  48.084  1.00  0.00    -0.247 OA
HETATM    5  H   UNL     1      22.161  45.572  48.271  1.00  0.00     0.170 HD
HETATM    6  H   UNL     1      21.430  48.259  50.206  1.00  0.00     0.164 HD
ENDROOT
BRANCH   1   7
HETATM    7  C   UNL     1      23.408  46.937  49.194  1.00  0.00     0.044 A 
HETATM    8  C   UNL     1      24.204  46.070  49.991  1.00  0.00    -0.008 A 
HETATM    9  C   UNL     1      23.687  44.708  50.399  1.00  0.00     0.053 C 
HETATM   10  C   UNL     1      25.487  46.503  50.422  1.00  0.00     0.043 A 
HETATM   11  C   UNL     1      25.924  47.787  50.087  1.00  0.00     0.030 A 
HETATM   12  C   UNL     1      25.142  48.625  49.297  1.00  0.00     0.005 A 
HETATM   13  C   UNL     1      23.901  48.197  48.839  1.00  0.00     0.030 A 
BRANCH  10  14
HETATM   14  N   UNL     1      26.306  45.617  51.158  1.00  0.00    -0.325 N 
HETATM   15  C   UNL     1      27.095  44.576  50.688  1.00  0.00     0.245 C 
HETATM   16  O   UNL     1      27.287  44.267  49.518  1.00  0.00    -0.271 OA
HETATM   17  H   UNL     1      26.329  45.708  52.169  1.00  0.00     0.169 HD
BRANCH  15  18
HETATM   18  C   UNL     1      27.810  43.853  51.835  1.00  0.00     0.270 C 
BRANCH  18  19
HETATM   19  O   UNL     1      26.906  43.412  52.851  1.00  0.00    -0.387 OA
HETATM   20  C   UNL     1      27.547  43.327  54.122  1.00  0.00     0.202 C 
ENDBRANCH  18  19
ENDBRANCH  15  18
ENDBRANCH  10  14
ENDBRANCH   1   7
BRANCH   3  21
HETATM   21  C   UNL     1      19.449  48.820  49.798  1.00  0.00     0.163 C 
BRANCH  21  22
HETATM   22  C   UNL     1      18.857  49.859  48.781  1.00  0.00     0.143 C 
HETATM   23  C   UNL     1      18.283  51.078  49.553  1.00  0.00     0.041 C 
HETATM   24  C   UNL     1      19.004  52.307  49.005  1.00  0.00     0.003 C 
HETATM   25  C   UNL     1      20.338  51.771  48.524  1.00  0.00     0.003 C 
HETATM   26  C   UNL     1      19.970  50.442  47.877  1.00  0.00     0.041 C 
BRANCH  22  27
HETATM   27  N   UNL     1      17.763  49.217  47.930  1.00  0.00    -0.061 N 
HETATM   28  H   UNL     1      18.312  48.710  47.201  1.00  0.00     0.281 HD
HETATM   29  C   UNL     1      16.825  50.103  47.134  1.00  0.00     0.236 C 
HETATM   30  C   UNL     1      15.439  49.532  47.381  1.00  0.00     0.029 C 
HETATM   31  C   UNL     1      15.693  48.074  47.699  1.00  0.00     0.029 C 
HETATM   32  C   UNL     1      16.924  48.137  48.577  1.00  0.00     0.236 C 
ENDBRANCH  22  27
ENDBRANCH  21  22
ENDBRANCH   3  21
TORSDOF 7
ENDMDL
MODEL 8
REMARK VINA RESULT:      -7.4      3.626     10.005
REMARK  7 active torsions:
REMARK  status: ('A' for Active; 'I' for Inactive)
REMARK    1  A    between atoms: C_3  and  N_4 
REMARK       I    between atoms: N_4  and  C_5 
REMARK       I    between atoms: C_5  and  N_6 
REMARK    2  A    between atoms: N_6  and  C_7 
REMARK    3  A    between atoms: C_7  and  C_8 
REMARK    4  A    between atoms: C_8  and  N_9 
REMARK    5  A    between atoms: C_23  and  N_24 
REMARK       I    between atoms: N_24  and  C_25 
REMARK    6  A    between atoms: C_25  and  C_26 
REMARK    7  A    between atoms: C_26  and  O_27 
ROOT
HETATM    1  N   UNL     1      17.210  47.177  47.875  1.00  0.00    -0.308 N 
HETATM    2  C   UNL     1      16.472  48.317  47.852  1.00  0.00     0.320 C 
HETATM    3  N   UNL     1      17.112  49.489  47.626  1.00  0.00    -0.340 N 
HETATM    4  O   UNL     1      15.274  48.265  48.133  1.00  0.00    -0.247 OA
HETATM    5  H   UNL     1      16.689  46.401  48.265  1.00  0.00     0.170 HD
HETATM    6  H   UNL     1      18.119  49.426  47.714  1.00  0.00     0.164 HD
ENDROOT
BRANCH   1   7
HETATM    7  C   UNL     1      18.527  46.885  47.455  1.00  0.00     0.044 A 
HETATM    8  C   UNL     1      19.614  47.180  48.322  1.00  0.00    -0.008 A 
HETATM    9  C   UNL     1      19.378  47.878  49.643  1.00  0.00     0.053 C 
HETATM   10  C   UNL     1      20.934  46.833  47.927  1.00  0.00     0.043 A 
HETATM   11  C   UNL     1      21.141  46.243  46.676  1.00  0.00     0.030 A 
HETATM   12  C   UNL     1      20.069  45.949  45.838  1.00  0.00     0.005 A 
HETATM   13  C   UNL     1      18.770  46.251  46.232  1.00  0.00     0.030 A 
BRANCH  10  14
HETATM   14  N   UNL     1      22.008  47.064  48.816  1.00  0.00    -0.325 N 
HETATM   15  C   UNL     1      23.036  47.989  48.708  1.00  0.00     0.245 C 
HETATM   16  O   UNL     1      23.173  48.843  47.840  1.00  0.00    -0.271 OA
HETATM   17  H   UNL     1      22.082  46.480  49.644  1.00  0.00     0.169 HD
BRANCH  15  18
HETATM   18  C   UNL     1      24.006  47.889  49.892  1.00  0.00     0.270 C 
BRANCH  18  19
HETATM   19  O   UNL     1      25.175  47.130  49.579  1.00  0.00    -0.387 OA
HETATM   20  C   UNL     1      26.353  47.933  49.636  1.00  0.00     0.202 C 
ENDBRANCH  18  19
ENDBRANCH  15  18
ENDBRANCH  10  14
ENDBRANCH   1   7
BRANCH   3  21
HETATM   21  C   UNL     1      16.587  50.857  47.660  1.00  0.00     0.163 C 
BRANCH  21  22
HETATM   22  C   UNL     1      17.258  51.968  48.544  1.00  0.00     0.143 C 
HETATM   23  C   UNL     1      17.759  51.344  49.875  1.00  0.00     0.041 C 
HETATM   24  C   UNL     1      19.253  51.647  49.952  1.00  0.00     0.003 C 
HETATM   25  C   UNL     1      19.682  51.769  48.502  1.00  0.00     0.003 C 
HETATM   26  C   UNL     1      18.528  52.526  47.857  1.00  0.00     0.041 C 
BRANCH  22  27
HETATM   27  N   UNL     1      16.271  53.097  48.834  1.00  0.00    -0.061 N 
HETATM   28  H   UNL     1      16.795  53.942  48.518  1.00  0.00     0.281 HD
HETATM   29  C   UNL     1      15.901  53.409  50.270  1.00  0.00     0.236 C 
HETATM   30  C   UNL     1      14.390  53.571  50.262  1.00  0.00     0.029 C 
HETATM   31  C   UNL     1      14.075  54.003  48.846  1.00  0.00     0.029 C 
HETATM   32  C   UNL     1      14.994  53.128  48.022  1.00  0.00     0.236 C 
ENDBRANCH  22  27
ENDBRANCH  21  22
ENDBRANCH   3  21
TORSDOF 7
ENDMDL
MODEL 9
REMARK VINA RESULT:      -7.4      1.162      2.696
REMARK  7 active torsions:
REMARK  status: ('A' for Active; 'I' for Inactive)
REMARK    1  A    between atoms: C_3  and  N_4 
REMARK       I    between atoms: N_4  and  C_5 
REMARK       I    between atoms: C_5  and  N_6 
REMARK    2  A    between atoms: N_6  and  C_7 
REMARK    3  A    between atoms: C_7  and  C_8 
REMARK    4  A    between atoms: C_8  and  N_9 
REMARK    5  A    between atoms: C_23  and  N_24 
REMARK       I    between atoms: N_24  and  C_25 
REMARK    6  A    between atoms: C_25  and  C_26 
REMARK    7  A    between atoms: C_26  and  O_27 
ROOT
HETATM    1  N   UNL     1      24.362  48.315  49.160  1.00  0.00    -0.308 N 
HETATM    2  C   UNL     1      25.340  47.818  49.962  1.00  0.00     0.320 C 
HETATM    3  N   UNL     1      24.975  47.035  51.004  1.00  0.00    -0.340 N 
HETATM    4  O   UNL     1      26.506  48.171  49.780  1.00  0.00    -0.247 OA
HETATM    5  H   UNL     1      24.709  49.053  48.559  1.00  0.00     0.170 HD
HETATM    6  H   UNL     1      23.985  47.075  51.216  1.00  0.00     0.164 HD
ENDROOT
BRANCH   1   7
HETATM    7  C   UNL     1      22.996  47.989  49.008  1.00  0.00     0.044 A 
HETATM    8  C   UNL     1      22.016  49.001  49.197  1.00  0.00    -0.008 A 
HETATM    9  C   UNL     1      22.419  50.391  49.640  1.00  0.00     0.053 C 
HETATM   10  C   UNL     1      20.645  48.691  48.987  1.00  0.00     0.043 A 
HETATM   11  C   UNL     1      20.285  47.387  48.637  1.00  0.00     0.030 A 
HETATM   12  C   UNL     1      21.252  46.405  48.445  1.00  0.00     0.005 A 
HETATM   13  C   UNL     1      22.599  46.708  48.611  1.00  0.00     0.030 A 
BRANCH  10  14
HETATM   14  N   UNL     1      19.677  49.713  49.108  1.00  0.00    -0.325 N 
HETATM   15  C   UNL     1      18.827  49.978  50.173  1.00  0.00     0.245 C 
HETATM   16  O   UNL     1      18.803  49.407  51.257  1.00  0.00    -0.271 OA
HETATM   17  H   UNL     1      19.540  50.343  48.323  1.00  0.00     0.169 HD
BRANCH  15  18
HETATM   18  C   UNL     1      17.916  51.176  49.878  1.00  0.00     0.270 C 
BRANCH  18  19
HETATM   19  O   UNL     1      18.279  51.856  48.675  1.00  0.00    -0.387 OA
HETATM   20  C   UNL     1      17.185  51.928  47.763  1.00  0.00     0.202 C 
ENDBRANCH  18  19
ENDBRANCH  15  18
ENDBRANCH  10  14
ENDBRANCH   1   7
BRANCH   3  21
HETATM   21  C   UNL     1      25.800  46.470  52.076  1.00  0.00     0.163 C 
BRANCH  21  22
HETATM   22  C   UNL     1      25.980  44.918  52.235  1.00  0.00     0.143 C 
HETATM   23  C   UNL     1      27.460  44.595  52.575  1.00  0.00     0.041 C 
HETATM   24  C   UNL     1      27.436  43.820  53.889  1.00  0.00     0.003 C 
HETATM   25  C   UNL     1      26.172  44.297  54.578  1.00  0.00     0.003 C 
HETATM   26  C   UNL     1      25.165  44.389  53.439  1.00  0.00     0.041 C 
BRANCH  22  27
HETATM   27  N   UNL     1      25.567  44.193  50.954  1.00  0.00    -0.061 N 
HETATM   28  H   UNL     1      25.046  44.933  50.434  1.00  0.00     0.281 HD
HETATM   29  C   UNL     1      24.586  43.041  51.037  1.00  0.00     0.236 C 
HETATM   30  C   UNL     1      25.179  41.955  50.154  1.00  0.00     0.029 C 
HETATM   31  C   UNL     1      26.018  42.715  49.150  1.00  0.00     0.029 C 
HETATM   32  C   UNL     1      26.670  43.780  50.004  1.00  0.00     0.236 C 
ENDBRANCH  22  27
ENDBRANCH  21  22
ENDBRANCH   3  21
TORSDOF 7
ENDMDL
MODEL 10
REMARK VINA RESULT:      -7.4      2.092      3.425
REMARK  7 active torsions:
REMARK  status: ('A' for Active; 'I' for Inactive)
REMARK    1  A    between atoms: C_3  and  N_4 
REMARK       I    between atoms: N_4  and  C_5 
REMARK       I    between atoms: C_5  and  N_6 
REMARK    2  A    between atoms: N_6  and  C_7 
REMARK    3  A    between atoms: C_7  and  C_8 
REMARK    4  A    between atoms: C_8  and  N_9 
REMARK    5  A    between atoms: C_23  and  N_24 
REMARK       I    between atoms: N_24  and  C_25 
REMARK    6  A    between atoms: C_25  and  C_26 
REMARK    7  A    between atoms: C_26  and  O_27 
ROOT
HETATM    1  N   UNL     1      24.452  49.135  48.707  1.00  0.00    -0.308 N 
HETATM    2  C   UNL     1      25.419  48.392  49.304  1.00  0.00     0.320 C 
HETATM    3  N   UNL     1      25.177  47.908  50.546  1.00  0.00    -0.340 N 
HETATM    4  O   UNL     1      26.511  48.266  48.749  1.00  0.00    -0.247 OA
HETATM    5  H   UNL     1      24.805  49.628  47.896  1.00  0.00     0.170 HD
HETATM    6  H   UNL     1      24.378  48.333  51.000  1.00  0.00     0.164 HD
ENDROOT
BRANCH   1   7
HETATM    7  C   UNL     1      23.082  49.328  48.995  1.00  0.00     0.044 A 
HETATM    8  C   UNL     1      22.172  48.255  48.793  1.00  0.00    -0.008 A 
HETATM    9  C   UNL     1      22.644  46.948  48.194  1.00  0.00     0.053 C 
HETATM   10  C   UNL     1      20.805  48.427  49.139  1.00  0.00     0.043 A 
HETATM   11  C   UNL     1      20.375  49.661  49.635  1.00  0.00     0.030 A 
HETATM   12  C   UNL     1      21.275  50.703  49.839  1.00  0.00     0.005 A 
HETATM   13  C   UNL     1      22.622  50.532  49.538  1.00  0.00     0.030 A 
BRANCH  10  14
HETATM   14  N   UNL     1      19.913  47.340  49.002  1.00  0.00    -0.325 N 
HETATM   15  C   UNL     1      19.053  47.054  47.951  1.00  0.00     0.245 C 
HETATM   16  O   UNL     1      18.951  47.664  46.894  1.00  0.00    -0.271 OA
HETATM   17  H   UNL     1      19.848  46.670  49.763  1.00  0.00     0.169 HD
BRANCH  15  18
HETATM   18  C   UNL     1      18.244  45.779  48.221  1.00  0.00     0.270 C 
BRANCH  18  19
HETATM   19  O   UNL     1      19.000  44.590  47.981  1.00  0.00    -0.387 OA
HETATM   20  C   UNL     1      18.934  44.194  46.613  1.00  0.00     0.202 C 
ENDBRANCH  18  19
ENDBRANCH  15  18
ENDBRANCH  10  14
ENDBRANCH   1   7
BRANCH   3  21
HETATM   21  C   UNL     1      26.074  47.184  51.452  1.00  0.00     0.163 C 
BRANCH  21  22
HETATM   22  C   UNL     1      26.095  45.614  51.497  1.00  0.00     0.143 C 
HETATM   23  C   UNL     1      24.645  45.075  51.631  1.00  0.00     0.041 C 
HETATM   24  C   UNL     1      24.426  44.142  50.444  1.00  0.00     0.003 C 
HETATM   25  C   UNL     1      25.366  44.670  49.378  1.00  0.00     0.003 C 
HETATM   26  C   UNL     1      26.620  45.031  50.163  1.00  0.00     0.041 C 
BRANCH  22  27
HETATM   27  N   UNL     1      26.946  45.119  52.665  1.00  0.00    -0.061 N 
HETATM   28  H   UNL     1      27.843  45.635  52.525  1.00  0.00     0.281 HD
HETATM   29  C   UNL     1      27.363  43.663  52.716  1.00  0.00     0.236 C 
HETATM   30  C   UNL     1      27.108  43.230  54.150  1.00  0.00     0.029 C 
HETATM   31  C   UNL     1      27.218  44.513  54.946  1.00  0.00     0.029 C 
HETATM   32  C   UNL     1      26.509  45.513  54.059  1.00  0.00     0.236 C 
ENDBRANCH  22  27
ENDBRANCH  21  22
ENDBRANCH   3  21
TORSDOF 7
ENDMDL
