MODEL 1
REMARK VINA RESULT:     -11.5      0.000      0.000
REMARK  4 active torsions:
REMARK  status: ('A' for Active; 'I' for Inactive)
REMARK    1  A    between atoms: N_4  and  C_5 
REMARK    2  A    between atoms: C_15  and  N_16 
REMARK       I    between atoms: N_16  and  C_17 
REMARK    3  A    between atoms: C_17  and  C_18 
REMARK       I    between atoms: C_18  and  N_19 
REMARK    4  A    between atoms: N_19  and  C_20 
ROOT
HETATM    1  N   UNL     1      22.336  46.186  49.052  1.00  0.00    -0.303 N 
HETATM    2  C   UNL     1      23.103  47.256  48.628  1.00  0.00     0.315 C 
HETATM    3  O   UNL     1      22.862  48.039  47.717  1.00  0.00    -0.262 OA
HETATM    4  H   UNL     1      22.497  45.873  50.006  1.00  0.00     0.171 HD
ENDROOT
BRANCH   1   5
HETATM    5  C   UNL     1      21.194  45.812  48.369  1.00  0.00     0.152 C 
HETATM    6  N   UNL     1      19.954  46.447  48.417  1.00  0.00    -0.045 N 
HETATM    7  N   UNL     1      18.985  45.677  47.816  1.00  0.00    -0.156 NA
HETATM    8  C   UNL     1      19.671  44.715  47.190  1.00  0.00     0.055 C 
HETATM    9  C   UNL     1      18.966  43.713  46.354  1.00  0.00     0.072 C 
HETATM   10  C   UNL     1      21.055  44.785  47.463  1.00  0.00     0.079 C 
BRANCH   6  11
HETATM   11  C   UNL     1      19.623  47.771  48.791  1.00  0.00     0.732 A 
HETATM   12  N   UNL     1      19.599  48.782  47.973  1.00  0.00    -0.067 NA
HETATM   13  C   UNL     1      19.209  49.960  48.542  1.00  0.00     0.065 A 
HETATM   14  C   UNL     1      18.836  50.133  49.811  1.00  0.00     0.036 A 
HETATM   15  C   UNL     1      19.126  51.236  47.775  1.00  0.00     0.061 C 
HETATM   16  C   UNL     1      18.438  51.523  50.125  1.00  0.00     0.047 C 
HETATM   17  C   UNL     1      18.836  48.985  50.714  1.00  0.00     0.268 A 
HETATM   18  C   UNL     1      18.941  52.278  48.888  1.00  0.00     0.011 C 
HETATM   19  O   UNL     1      18.473  49.062  51.879  1.00  0.00    -0.267 OA
HETATM   20  N   UNL     1      19.266  47.831  50.122  1.00  0.00    -0.152 N 
HETATM   21  H   UNL     1      19.268  46.971  50.662  1.00  0.00     0.188 HD
ENDBRANCH   6  11
ENDBRANCH   1   5
BRANCH   2  22
HETATM   22  C   UNL     1      24.354  47.482  49.503  1.00  0.00     0.310 C 
HETATM   23  N   UNL     1      24.952  46.307  49.899  1.00  0.00    -0.348 N 
HETATM   24  H   UNL     1      24.424  45.478  49.630  1.00  0.00     0.163 HD
HETATM   25  O   UNL     1      24.704  48.620  49.775  1.00  0.00    -0.262 OA
BRANCH  23  26
HETATM   26  C   UNL     1      25.923  46.192  50.987  1.00  0.00     0.084 C 
HETATM   27  C   UNL     1      25.423  47.069  52.165  1.00  0.00     0.025 C 
HETATM   28  C   UNL     1      26.494  47.366  53.222  1.00  0.00     0.002 C 
HETATM   29  C   UNL     1      26.214  46.679  54.565  1.00  0.00     0.000 C 
HETATM   30  C   UNL     1      27.458  46.585  55.464  1.00  0.00     0.000 C 
HETATM   31  C   UNL     1      28.050  45.168  55.511  1.00  0.00     0.000 C 
HETATM   32  C   UNL     1      28.646  44.716  54.177  1.00  0.00     0.000 C 
HETATM   33  C   UNL     1      28.545  43.204  53.981  1.00  0.00     0.000 C 
HETATM   34  C   UNL     1      28.967  42.747  52.579  1.00  0.00     0.000 C 
HETATM   35  C   UNL     1      27.861  42.798  51.512  1.00  0.00     0.000 C 
HETATM   36  C   UNL     1      27.540  44.192  50.955  1.00  0.00     0.002 C 
HETATM   37  C   UNL     1      26.167  44.721  51.409  1.00  0.00     0.025 C 
ENDBRANCH  23  26
ENDBRANCH   2  22
TORSDOF 4
ENDMDL
MODEL 2
REMARK VINA RESULT:     -11.2      0.758      2.333
REMARK  4 active torsions:
REMARK  status: ('A' for Active; 'I' for Inactive)
REMARK    1  A    between atoms: N_4  and  C_5 
REMARK    2  A    between atoms: C_15  and  N_16 
REMARK       I    between atoms: N_16  and  C_17 
REMARK    3  A    between atoms: C_17  and  C_18 
REMARK       I    between atoms: C_18  and  N_19 
REMARK    4  A    between atoms: N_19  and  C_20 
ROOT
HETATM    1  N   UNL     1      22.213  45.635  49.254  1.00  0.00    -0.303 N 
HETATM    2  C   UNL     1      23.180  46.595  49.017  1.00  0.00     0.315 C 
HETATM    3  O   UNL     1      23.214  47.418  48.110  1.00  0.00    -0.262 OA
HETATM    4  H   UNL     1      22.155  45.287  50.207  1.00  0.00     0.171 HD
ENDROOT
BRANCH   1   5
HETATM    5  C   UNL     1      21.174  45.434  48.365  1.00  0.00     0.152 C 
HETATM    6  N   UNL     1      20.013  46.198  48.261  1.00  0.00    -0.045 N 
HETATM    7  N   UNL     1      19.089  45.581  47.448  1.00  0.00    -0.156 NA
HETATM    8  C   UNL     1      19.775  44.591  46.866  1.00  0.00     0.055 C 
HETATM    9  C   UNL     1      19.129  43.729  45.846  1.00  0.00     0.072 C 
HETATM   10  C   UNL     1      21.091  44.490  47.367  1.00  0.00     0.079 C 
BRANCH   6  11
HETATM   11  C   UNL     1      19.754  47.523  48.683  1.00  0.00     0.732 A 
HETATM   12  N   UNL     1      19.876  48.574  47.927  1.00  0.00    -0.067 NA
HETATM   13  C   UNL     1      19.532  49.749  48.530  1.00  0.00     0.065 A 
HETATM   14  C   UNL     1      19.067  49.886  49.772  1.00  0.00     0.036 A 
HETATM   15  C   UNL     1      19.612  51.065  47.834  1.00  0.00     0.061 C 
HETATM   16  C   UNL     1      18.752  51.285  50.134  1.00  0.00     0.047 C 
HETATM   17  C   UNL     1      18.903  48.696  50.604  1.00  0.00     0.268 A 
HETATM   18  C   UNL     1      19.414  52.060  48.987  1.00  0.00     0.011 C 
HETATM   19  O   UNL     1      18.449  48.743  51.739  1.00  0.00    -0.267 OA
HETATM   20  N   UNL     1      19.291  47.544  49.982  1.00  0.00    -0.152 N 
HETATM   21  H   UNL     1      19.181  46.660  50.470  1.00  0.00     0.188 HD
ENDBRANCH   6  11
ENDBRANCH   1   5
BRANCH   2  22
HETATM   22  C   UNL     1      24.270  46.630  50.108  1.00  0.00     0.310 C 
HETATM   23  N   UNL     1      24.812  45.390  50.367  1.00  0.00    -0.348 N 
HETATM   24  H   UNL     1      24.344  44.636  49.866  1.00  0.00     0.163 HD
HETATM   25  O   UNL     1      24.557  47.690  50.641  1.00  0.00    -0.262 OA
BRANCH  23  26
HETATM   26  C   UNL     1      25.596  45.057  51.556  1.00  0.00     0.084 C 
HETATM   27  C   UNL     1      26.610  43.952  51.162  1.00  0.00     0.025 C 
HETATM   28  C   UNL     1      27.237  43.223  52.358  1.00  0.00     0.002 C 
HETATM   29  C   UNL     1      28.732  43.524  52.523  1.00  0.00     0.000 C 
HETATM   30  C   UNL     1      29.262  43.190  53.927  1.00  0.00     0.000 C 
HETATM   31  C   UNL     1      29.498  44.441  54.786  1.00  0.00     0.000 C 
HETATM   32  C   UNL     1      28.207  45.177  55.153  1.00  0.00     0.000 C 
HETATM   33  C   UNL     1      28.424  46.680  55.315  1.00  0.00     0.000 C 
HETATM   34  C   UNL     1      27.118  47.462  55.501  1.00  0.00     0.000 C 
HETATM   35  C   UNL     1      26.405  47.868  54.200  1.00  0.00     0.000 C 
HETATM   36  C   UNL     1      25.628  46.749  53.493  1.00  0.00     0.002 C 
HETATM   37  C   UNL     1      26.287  46.297  52.175  1.00  0.00     0.025 C 
ENDBRANCH  23  26
ENDBRANCH   2  22
TORSDOF 4
ENDMDL
MODEL 3
REMARK VINA RESULT:     -11.1      2.200      3.478
REMARK  4 active torsions:
REMARK  status: ('A' for Active; 'I' for Inactive)
REMARK    1  A    between atoms: N_4  and  C_5 
REMARK    2  A    between atoms: C_15  and  N_16 
REMARK       I    between atoms: N_16  and  C_17 
REMARK    3  A    between atoms: C_17  and  C_18 
REMARK       I    between atoms: C_18  and  N_19 
REMARK    4  A    between atoms: N_19  and  C_20 
ROOT
HETATM    1  N   UNL     1      23.598  44.498  48.694  1.00  0.00    -0.303 N 
HETATM    2  C   UNL     1      23.607  43.914  49.947  1.00  0.00     0.315 C 
HETATM    3  O   UNL     1      22.712  43.272  50.483  1.00  0.00    -0.262 OA
HETATM    4  H   UNL     1      24.509  44.679  48.280  1.00  0.00     0.171 HD
ENDROOT
BRANCH   1   5
HETATM    5  C   UNL     1      22.457  44.497  47.914  1.00  0.00     0.152 C 
HETATM    6  N   UNL     1      21.499  45.508  47.845  1.00  0.00    -0.045 N 
HETATM    7  N   UNL     1      20.381  45.080  47.166  1.00  0.00    -0.156 NA
HETATM    8  C   UNL     1      20.757  43.922  46.613  1.00  0.00     0.055 C 
HETATM    9  C   UNL     1      19.830  43.179  45.725  1.00  0.00     0.072 C 
HETATM   10  C   UNL     1      22.058  43.541  47.008  1.00  0.00     0.079 C 
BRANCH   6  11
HETATM   11  C   UNL     1      21.598  46.880  48.177  1.00  0.00     0.732 A 
HETATM   12  N   UNL     1      22.537  47.674  47.753  1.00  0.00    -0.067 NA
HETATM   13  C   UNL     1      22.411  48.969  48.163  1.00  0.00     0.065 A 
HETATM   14  C   UNL     1      21.421  49.463  48.907  1.00  0.00     0.036 A 
HETATM   15  C   UNL     1      23.391  50.030  47.792  1.00  0.00     0.061 C 
HETATM   16  C   UNL     1      21.544  50.915  49.165  1.00  0.00     0.047 C 
HETATM   17  C   UNL     1      20.354  48.571  49.353  1.00  0.00     0.268 A 
HETATM   18  C   UNL     1      22.983  51.191  48.712  1.00  0.00     0.011 C 
HETATM   19  O   UNL     1      19.397  48.962  50.007  1.00  0.00    -0.267 OA
HETATM   20  N   UNL     1      20.530  47.276  48.955  1.00  0.00    -0.152 N 
HETATM   21  H   UNL     1      19.821  46.588  49.188  1.00  0.00     0.188 HD
ENDBRANCH   6  11
ENDBRANCH   1   5
BRANCH   2  22
HETATM   22  C   UNL     1      24.964  44.058  50.667  1.00  0.00     0.310 C 
HETATM   23  N   UNL     1      25.030  43.339  51.839  1.00  0.00    -0.348 N 
HETATM   24  H   UNL     1      24.144  42.902  52.092  1.00  0.00     0.163 HD
HETATM   25  O   UNL     1      25.834  44.764  50.181  1.00  0.00    -0.262 OA
BRANCH  23  26
HETATM   26  C   UNL     1      26.029  43.545  52.888  1.00  0.00     0.084 C 
HETATM   27  C   UNL     1      27.195  42.554  52.635  1.00  0.00     0.025 C 
HETATM   28  C   UNL     1      28.131  42.369  53.836  1.00  0.00     0.002 C 
HETATM   29  C   UNL     1      29.531  42.949  53.597  1.00  0.00     0.000 C 
HETATM   30  C   UNL     1      30.316  43.183  54.899  1.00  0.00     0.000 C 
HETATM   31  C   UNL     1      30.390  44.667  55.288  1.00  0.00     0.000 C 
HETATM   32  C   UNL     1      29.035  45.259  55.680  1.00  0.00     0.000 C 
HETATM   33  C   UNL     1      28.935  46.747  55.350  1.00  0.00     0.000 C 
HETATM   34  C   UNL     1      27.530  47.321  55.563  1.00  0.00     0.000 C 
HETATM   35  C   UNL     1      26.567  47.158  54.374  1.00  0.00     0.000 C 
HETATM   36  C   UNL     1      25.963  45.757  54.198  1.00  0.00     0.002 C 
HETATM   37  C   UNL     1      26.511  45.015  52.964  1.00  0.00     0.025 C 
ENDBRANCH  23  26
ENDBRANCH   2  22
TORSDOF 4
ENDMDL
MODEL 4
REMARK VINA RESULT:     -11.0      1.733      4.705
REMARK  4 active torsions:
REMARK  status: ('A' for Active; 'I' for Inactive)
REMARK    1  A    between atoms: N_4  and  C_5 
REMARK    2  A    between atoms: C_15  and  N_16 
REMARK       I    between atoms: N_16  and  C_17 
REMARK    3  A    between atoms: C_17  and  C_18 
REMARK       I    between atoms: C_18  and  N_19 
REMARK    4  A    between atoms: N_19  and  C_20 
ROOT
HETATM    1  N   UNL     1      23.007  48.296  49.640  1.00  0.00    -0.303 N 
HETATM    2  C   UNL     1      24.296  48.545  49.207  1.00  0.00     0.315 C 
HETATM    3  O   UNL     1      24.673  49.413  48.428  1.00  0.00    -0.262 OA
HETATM    4  H   UNL     1      22.921  47.794  50.520  1.00  0.00     0.171 HD
ENDROOT
BRANCH   1   5
HETATM    5  C   UNL     1      21.932  48.988  49.115  1.00  0.00     0.152 C 
HETATM    6  N   UNL     1      21.149  48.604  48.028  1.00  0.00    -0.045 N 
HETATM    7  N   UNL     1      20.329  49.633  47.625  1.00  0.00    -0.156 NA
HETATM    8  C   UNL     1      20.427  50.535  48.608  1.00  0.00     0.055 C 
HETATM    9  C   UNL     1      19.616  51.776  48.571  1.00  0.00     0.072 C 
HETATM   10  C   UNL     1      21.374  50.157  49.584  1.00  0.00     0.079 C 
BRANCH   6  11
HETATM   11  C   UNL     1      20.952  47.326  47.455  1.00  0.00     0.732 A 
HETATM   12  N   UNL     1      21.670  46.835  46.488  1.00  0.00    -0.067 NA
HETATM   13  C   UNL     1      21.331  45.565  46.120  1.00  0.00     0.065 A 
HETATM   14  C   UNL     1      20.382  44.813  46.680  1.00  0.00     0.036 A 
HETATM   15  C   UNL     1      22.028  44.830  45.025  1.00  0.00     0.061 C 
HETATM   16  C   UNL     1      20.269  43.464  46.083  1.00  0.00     0.047 C 
HETATM   17  C   UNL     1      19.602  45.362  47.787  1.00  0.00     0.268 A 
HETATM   18  C   UNL     1      21.114  43.614  44.812  1.00  0.00     0.011 C 
HETATM   19  O   UNL     1      18.742  44.717  48.370  1.00  0.00    -0.267 OA
HETATM   20  N   UNL     1      19.943  46.646  48.104  1.00  0.00    -0.152 N 
HETATM   21  H   UNL     1      19.479  47.100  48.884  1.00  0.00     0.188 HD
ENDBRANCH   6  11
ENDBRANCH   1   5
BRANCH   2  22
HETATM   22  C   UNL     1      25.343  47.639  49.889  1.00  0.00     0.310 C 
HETATM   23  N   UNL     1      24.784  46.738  50.767  1.00  0.00    -0.348 N 
HETATM   24  H   UNL     1      23.782  46.873  50.896  1.00  0.00     0.163 HD
HETATM   25  O   UNL     1      26.527  47.780  49.624  1.00  0.00    -0.262 OA
BRANCH  23  26
HETATM   26  C   UNL     1      25.527  46.003  51.791  1.00  0.00     0.084 C 
HETATM   27  C   UNL     1      26.271  44.836  51.093  1.00  0.00     0.025 C 
HETATM   28  C   UNL     1      26.779  43.753  52.055  1.00  0.00     0.002 C 
HETATM   29  C   UNL     1      28.309  43.712  52.155  1.00  0.00     0.000 C 
HETATM   30  C   UNL     1      28.811  42.979  53.409  1.00  0.00     0.000 C 
HETATM   31  C   UNL     1      29.337  43.940  54.487  1.00  0.00     0.000 C 
HETATM   32  C   UNL     1      28.244  44.815  55.104  1.00  0.00     0.000 C 
HETATM   33  C   UNL     1      28.775  46.173  55.557  1.00  0.00     0.000 C 
HETATM   34  C   UNL     1      27.670  47.135  56.009  1.00  0.00     0.000 C 
HETATM   35  C   UNL     1      27.008  47.950  54.885  1.00  0.00     0.000 C 
HETATM   36  C   UNL     1      25.987  47.188  54.027  1.00  0.00     0.002 C 
HETATM   37  C   UNL     1      26.485  46.917  52.595  1.00  0.00     0.025 C 
ENDBRANCH  23  26
ENDBRANCH   2  22
TORSDOF 4
ENDMDL
MODEL 5
REMARK VINA RESULT:     -10.7      1.243      1.291
REMARK  4 active torsions:
REMARK  status: ('A' for Active; 'I' for Inactive)
REMARK    1  A    between atoms: N_4  and  C_5 
REMARK    2  A    between atoms: C_15  and  N_16 
REMARK       I    between atoms: N_16  and  C_17 
REMARK    3  A    between atoms: C_17  and  C_18 
REMARK       I    between atoms: C_18  and  N_19 
REMARK    4  A    between atoms: N_19  and  C_20 
ROOT
HETATM    1  N   UNL     1      22.598  45.891  48.235  1.00  0.00    -0.303 N 
HETATM    2  C   UNL     1      23.073  45.146  49.299  1.00  0.00     0.315 C 
HETATM    3  O   UNL     1      22.600  44.116  49.765  1.00  0.00    -0.262 OA
HETATM    4  H   UNL     1      23.276  46.490  47.772  1.00  0.00     0.171 HD
ENDROOT
BRANCH   1   5
HETATM    5  C   UNL     1      21.400  45.575  47.621  1.00  0.00     0.152 C 
HETATM    6  N   UNL     1      20.171  46.198  47.831  1.00  0.00    -0.045 N 
HETATM    7  N   UNL     1      19.151  45.481  47.248  1.00  0.00    -0.156 NA
HETATM    8  C   UNL     1      19.778  44.581  46.483  1.00  0.00     0.055 C 
HETATM    9  C   UNL     1      19.001  43.655  45.623  1.00  0.00     0.072 C 
HETATM   10  C   UNL     1      21.180  44.633  46.642  1.00  0.00     0.079 C 
BRANCH   6  11
HETATM   11  C   UNL     1      19.878  47.481  48.349  1.00  0.00     0.732 A 
HETATM   12  N   UNL     1      19.981  48.588  47.674  1.00  0.00    -0.067 NA
HETATM   13  C   UNL     1      19.604  49.706  48.360  1.00  0.00     0.065 A 
HETATM   14  C   UNL     1      19.126  49.739  49.605  1.00  0.00     0.036 A 
HETATM   15  C   UNL     1      19.659  51.073  47.766  1.00  0.00     0.061 C 
HETATM   16  C   UNL     1      18.775  51.100  50.067  1.00  0.00     0.047 C 
HETATM   17  C   UNL     1      18.983  48.487  50.344  1.00  0.00     0.268 A 
HETATM   18  C   UNL     1      19.428  51.973  48.988  1.00  0.00     0.011 C 
HETATM   19  O   UNL     1      18.520  48.438  51.475  1.00  0.00    -0.267 OA
HETATM   20  N   UNL     1      19.403  47.393  49.642  1.00  0.00    -0.152 N 
HETATM   21  H   UNL     1      19.311  46.473  50.060  1.00  0.00     0.188 HD
ENDBRANCH   6  11
ENDBRANCH   1   5
BRANCH   2  22
HETATM   22  C   UNL     1      24.402  45.688  49.865  1.00  0.00     0.310 C 
HETATM   23  N   UNL     1      25.026  44.801  50.714  1.00  0.00    -0.348 N 
HETATM   24  H   UNL     1      24.467  43.971  50.907  1.00  0.00     0.163 HD
HETATM   25  O   UNL     1      24.785  46.802  49.545  1.00  0.00    -0.262 OA
BRANCH  23  26
HETATM   26  C   UNL     1      26.094  45.155  51.649  1.00  0.00     0.084 C 
HETATM   27  C   UNL     1      25.514  46.166  52.673  1.00  0.00     0.025 C 
HETATM   28  C   UNL     1      26.579  46.924  53.476  1.00  0.00     0.002 C 
HETATM   29  C   UNL     1      26.596  46.537  54.960  1.00  0.00     0.000 C 
HETATM   30  C   UNL     1      27.905  46.921  55.668  1.00  0.00     0.000 C 
HETATM   31  C   UNL     1      28.816  45.712  55.929  1.00  0.00     0.000 C 
HETATM   32  C   UNL     1      29.374  45.086  54.650  1.00  0.00     0.000 C 
HETATM   33  C   UNL     1      29.614  43.584  54.796  1.00  0.00     0.000 C 
HETATM   34  C   UNL     1      29.998  42.902  53.478  1.00  0.00     0.000 C 
HETATM   35  C   UNL     1      28.816  42.464  52.597  1.00  0.00     0.000 C 
HETATM   36  C   UNL     1      28.126  43.586  51.808  1.00  0.00     0.002 C 
HETATM   37  C   UNL     1      26.715  43.912  52.335  1.00  0.00     0.025 C 
ENDBRANCH  23  26
ENDBRANCH   2  22
TORSDOF 4
ENDMDL
MODEL 6
REMARK VINA RESULT:     -10.7      1.956      3.404
REMARK  4 active torsions:
REMARK  status: ('A' for Active; 'I' for Inactive)
REMARK    1  A    between atoms: N_4  and  C_5 
REMARK    2  A    between atoms: C_15  and  N_16 
REMARK       I    between atoms: N_16  and  C_17 
REMARK    3  A    between atoms: C_17  and  C_18 
REMARK       I    between atoms: C_18  and  N_19 
REMARK    4  A    between atoms: N_19  and  C_20 
ROOT
HETATM    1  N   UNL     1      21.877  44.312  49.054  1.00  0.00    -0.303 N 
HETATM    2  C   UNL     1      23.258  44.259  49.097  1.00  0.00     0.315 C 
HETATM    3  O   UNL     1      24.048  44.515  48.196  1.00  0.00    -0.262 OA
HETATM    4  H   UNL     1      21.407  44.412  49.949  1.00  0.00     0.171 HD
ENDROOT
BRANCH   1   5
HETATM    5  C   UNL     1      21.210  44.580  47.873  1.00  0.00     0.152 C 
HETATM    6  N   UNL     1      20.571  45.772  47.533  1.00  0.00    -0.045 N 
HETATM    7  N   UNL     1      19.807  45.613  46.400  1.00  0.00    -0.156 NA
HETATM    8  C   UNL     1      20.178  44.423  45.917  1.00  0.00     0.055 C 
HETATM    9  C   UNL     1      19.618  43.924  44.637  1.00  0.00     0.072 C 
HETATM   10  C   UNL     1      21.087  43.762  46.772  1.00  0.00     0.079 C 
BRANCH   6  11
HETATM   11  C   UNL     1      20.753  47.079  48.043  1.00  0.00     0.732 A 
HETATM   12  N   UNL     1      19.937  47.667  48.867  1.00  0.00    -0.067 NA
HETATM   13  C   UNL     1      20.332  48.912  49.263  1.00  0.00     0.065 A 
HETATM   14  C   UNL     1      21.461  49.526  48.908  1.00  0.00     0.036 A 
HETATM   15  C   UNL     1      19.529  49.753  50.196  1.00  0.00     0.061 C 
HETATM   16  C   UNL     1      21.627  50.860  49.525  1.00  0.00     0.047 C 
HETATM   17  C   UNL     1      22.388  48.844  48.007  1.00  0.00     0.268 A 
HETATM   18  C   UNL     1      20.224  51.118  50.090  1.00  0.00     0.011 C 
HETATM   19  O   UNL     1      23.457  49.332  47.668  1.00  0.00    -0.267 OA
HETATM   20  N   UNL     1      21.944  47.618  47.602  1.00  0.00    -0.152 N 
HETATM   21  H   UNL     1      22.536  47.053  47.002  1.00  0.00     0.188 HD
ENDBRANCH   6  11
ENDBRANCH   1   5
BRANCH   2  22
HETATM   22  C   UNL     1      23.802  43.908  50.497  1.00  0.00     0.310 C 
HETATM   23  N   UNL     1      24.789  44.770  50.922  1.00  0.00    -0.348 N 
HETATM   24  H   UNL     1      25.067  45.443  50.209  1.00  0.00     0.163 HD
HETATM   25  O   UNL     1      23.352  42.944  51.096  1.00  0.00    -0.262 OA
BRANCH  23  26
HETATM   26  C   UNL     1      25.712  44.499  52.025  1.00  0.00     0.084 C 
HETATM   27  C   UNL     1      26.689  43.386  51.564  1.00  0.00     0.025 C 
HETATM   28  C   UNL     1      27.463  42.720  52.709  1.00  0.00     0.002 C 
HETATM   29  C   UNL     1      28.962  43.043  52.683  1.00  0.00     0.000 C 
HETATM   30  C   UNL     1      29.658  42.779  54.028  1.00  0.00     0.000 C 
HETATM   31  C   UNL     1      29.975  44.072  54.796  1.00  0.00     0.000 C 
HETATM   32  C   UNL     1      28.726  44.811  55.279  1.00  0.00     0.000 C 
HETATM   33  C   UNL     1      28.938  46.322  55.346  1.00  0.00     0.000 C 
HETATM   34  C   UNL     1      27.651  47.101  55.649  1.00  0.00     0.000 C 
HETATM   35  C   UNL     1      26.785  47.439  54.424  1.00  0.00     0.000 C 
HETATM   36  C   UNL     1      25.946  46.280  53.865  1.00  0.00     0.002 C 
HETATM   37  C   UNL     1      26.452  45.774  52.501  1.00  0.00     0.025 C 
ENDBRANCH  23  26
ENDBRANCH   2  22
TORSDOF 4
ENDMDL
MODEL 7
REMARK VINA RESULT:     -10.6      1.761      4.140
REMARK  4 active torsions:
REMARK  status: ('A' for Active; 'I' for Inactive)
REMARK    1  A    between atoms: N_4  and  C_5 
REMARK    2  A    between atoms: C_15  and  N_16 
REMARK       I    between atoms: N_16  and  C_17 
REMARK    3  A    between atoms: C_17  and  C_18 
REMARK       I    between atoms: C_18  and  N_19 
REMARK    4  A    between atoms: N_19  and  C_20 
ROOT
HETATM    1  N   UNL     1      22.763  49.171  49.449  1.00  0.00    -0.303 N 
HETATM    2  C   UNL     1      23.861  49.222  48.610  1.00  0.00     0.315 C 
HETATM    3  O   UNL     1      23.960  49.808  47.538  1.00  0.00    -0.262 OA
HETATM    4  H   UNL     1      22.956  48.951  50.422  1.00  0.00     0.171 HD
ENDROOT
BRANCH   1   5
HETATM    5  C   UNL     1      21.555  49.731  49.078  1.00  0.00     0.152 C 
HETATM    6  N   UNL     1      20.665  49.230  48.130  1.00  0.00    -0.045 N 
HETATM    7  N   UNL     1      19.690  50.156  47.834  1.00  0.00    -0.156 NA
HETATM    8  C   UNL     1      19.836  51.098  48.772  1.00  0.00     0.055 C 
HETATM    9  C   UNL     1      18.902  52.248  48.832  1.00  0.00     0.072 C 
HETATM   10  C   UNL     1      20.953  50.854  49.601  1.00  0.00     0.079 C 
BRANCH   6  11
HETATM   11  C   UNL     1      20.522  47.918  47.620  1.00  0.00     0.732 A 
HETATM   12  N   UNL     1      21.402  47.319  46.873  1.00  0.00    -0.067 NA
HETATM   13  C   UNL     1      21.076  46.039  46.532  1.00  0.00     0.065 A 
HETATM   14  C   UNL     1      19.985  45.376  46.920  1.00  0.00     0.036 A 
HETATM   15  C   UNL     1      21.948  45.187  45.672  1.00  0.00     0.061 C 
HETATM   16  C   UNL     1      19.925  43.989  46.411  1.00  0.00     0.047 C 
HETATM   17  C   UNL     1      19.018  46.047  47.786  1.00  0.00     0.268 A 
HETATM   18  C   UNL     1      21.033  43.998  45.350  1.00  0.00     0.011 C 
HETATM   19  O   UNL     1      18.015  45.490  48.209  1.00  0.00    -0.267 OA
HETATM   20  N   UNL     1      19.357  47.337  48.078  1.00  0.00    -0.152 N 
HETATM   21  H   UNL     1      18.763  47.874  48.702  1.00  0.00     0.188 HD
ENDBRANCH   6  11
ENDBRANCH   1   5
BRANCH   2  22
HETATM   22  C   UNL     1      25.097  48.505  49.193  1.00  0.00     0.310 C 
HETATM   23  N   UNL     1      24.790  47.297  49.777  1.00  0.00    -0.348 N 
HETATM   24  H   UNL     1      23.788  47.112  49.814  1.00  0.00     0.163 HD
HETATM   25  O   UNL     1      26.196  49.030  49.108  1.00  0.00    -0.262 OA
BRANCH  23  26
HETATM   26  C   UNL     1      25.668  46.569  50.695  1.00  0.00     0.084 C 
HETATM   27  C   UNL     1      25.348  47.045  52.136  1.00  0.00     0.025 C 
HETATM   28  C   UNL     1      26.421  46.677  53.169  1.00  0.00     0.002 C 
HETATM   29  C   UNL     1      25.939  45.632  54.183  1.00  0.00     0.000 C 
HETATM   30  C   UNL     1      27.093  44.929  54.917  1.00  0.00     0.000 C 
HETATM   31  C   UNL     1      27.332  43.497  54.414  1.00  0.00     0.000 C 
HETATM   32  C   UNL     1      27.851  43.439  52.976  1.00  0.00     0.000 C 
HETATM   33  C   UNL     1      27.402  42.172  52.249  1.00  0.00     0.000 C 
HETATM   34  C   UNL     1      27.753  42.174  50.756  1.00  0.00     0.000 C 
HETATM   35  C   UNL     1      26.729  42.868  49.843  1.00  0.00     0.000 C 
HETATM   36  C   UNL     1      26.766  44.403  49.849  1.00  0.00     0.002 C 
HETATM   37  C   UNL     1      25.541  45.033  50.539  1.00  0.00     0.025 C 
ENDBRANCH  23  26
ENDBRANCH   2  22
TORSDOF 4
ENDMDL
MODEL 8
REMARK VINA RESULT:     -10.6      2.785      9.563
REMARK  4 active torsions:
REMARK  status: ('A' for Active; 'I' for Inactive)
REMARK    1  A    between atoms: N_4  and  C_5 
REMARK    2  A    between atoms: C_15  and  N_16 
REMARK       I    between atoms: N_16  and  C_17 
REMARK    3  A    between atoms: C_17  and  C_18 
REMARK       I    between atoms: C_18  and  N_19 
REMARK    4  A    between atoms: N_19  and  C_20 
ROOT
HETATM    1  N   UNL     1      25.626  44.826  49.789  1.00  0.00    -0.303 N 
HETATM    2  C   UNL     1      24.327  45.077  50.195  1.00  0.00     0.315 C 
HETATM    3  O   UNL     1      23.656  44.443  51.001  1.00  0.00    -0.262 OA
HETATM    4  H   UNL     1      26.133  45.618  49.404  1.00  0.00     0.171 HD
ENDROOT
BRANCH   1   5
HETATM    5  C   UNL     1      26.298  43.695  50.211  1.00  0.00     0.152 C 
HETATM    6  N   UNL     1      27.202  43.613  51.269  1.00  0.00    -0.045 N 
HETATM    7  N   UNL     1      27.865  42.407  51.258  1.00  0.00    -0.156 NA
HETATM    8  C   UNL     1      27.193  41.672  50.365  1.00  0.00     0.055 C 
HETATM    9  C   UNL     1      27.568  40.257  50.123  1.00  0.00     0.072 C 
HETATM   10  C   UNL     1      26.177  42.413  49.723  1.00  0.00     0.079 C 
BRANCH   6  11
HETATM   11  C   UNL     1      27.369  44.460  52.391  1.00  0.00     0.732 A 
HETATM   12  N   UNL     1      26.617  45.487  52.655  1.00  0.00    -0.067 NA
HETATM   13  C   UNL     1      26.932  46.136  53.813  1.00  0.00     0.065 A 
HETATM   14  C   UNL     1      27.891  45.786  54.672  1.00  0.00     0.036 A 
HETATM   15  C   UNL     1      26.195  47.343  54.287  1.00  0.00     0.061 C 
HETATM   16  C   UNL     1      27.972  46.668  55.857  1.00  0.00     0.047 C 
HETATM   17  C   UNL     1      28.709  44.611  54.383  1.00  0.00     0.268 A 
HETATM   18  C   UNL     1      27.090  47.848  55.428  1.00  0.00     0.011 C 
HETATM   19  O   UNL     1      29.581  44.212  55.142  1.00  0.00    -0.267 OA
HETATM   20  N   UNL     1      28.391  44.008  53.199  1.00  0.00    -0.152 N 
HETATM   21  H   UNL     1      28.883  43.163  52.929  1.00  0.00     0.188 HD
ENDBRANCH   6  11
ENDBRANCH   1   5
BRANCH   2  22
HETATM   22  C   UNL     1      23.746  46.368  49.582  1.00  0.00     0.310 C 
HETATM   23  N   UNL     1      22.428  46.239  49.206  1.00  0.00    -0.348 N 
HETATM   24  H   UNL     1      22.074  45.288  49.306  1.00  0.00     0.163 HD
HETATM   25  O   UNL     1      24.454  47.357  49.472  1.00  0.00    -0.262 OA
BRANCH  23  26
HETATM   26  C   UNL     1      21.725  47.153  48.305  1.00  0.00     0.084 C 
HETATM   27  C   UNL     1      20.758  46.311  47.433  1.00  0.00     0.025 C 
HETATM   28  C   UNL     1      20.235  47.046  46.191  1.00  0.00     0.002 C 
HETATM   29  C   UNL     1      18.736  47.359  46.270  1.00  0.00     0.000 C 
HETATM   30  C   UNL     1      18.298  48.458  45.289  1.00  0.00     0.000 C 
HETATM   31  C   UNL     1      18.033  49.803  45.984  1.00  0.00     0.000 C 
HETATM   32  C   UNL     1      19.296  50.445  46.563  1.00  0.00     0.000 C 
HETATM   33  C   UNL     1      19.002  51.287  47.802  1.00  0.00     0.000 C 
HETATM   34  C   UNL     1      20.268  51.790  48.506  1.00  0.00     0.000 C 
HETATM   35  C   UNL     1      20.889  50.812  49.517  1.00  0.00     0.000 C 
HETATM   36  C   UNL     1      21.693  49.653  48.910  1.00  0.00     0.002 C 
HETATM   37  C   UNL     1      20.996  48.288  49.067  1.00  0.00     0.025 C 
ENDBRANCH  23  26
ENDBRANCH   2  22
TORSDOF 4
ENDMDL
MODEL 9
REMARK VINA RESULT:     -10.5      3.327      9.648
REMARK  4 active torsions:
REMARK  status: ('A' for Active; 'I' for Inactive)
REMARK    1  A    between atoms: N_4  and  C_5 
REMARK    2  A    between atoms: C_15  and  N_16 
REMARK       I    between atoms: N_16  and  C_17 
REMARK    3  A    between atoms: C_17  and  C_18 
REMARK       I    between atoms: C_18  and  N_19 
REMARK    4  A    between atoms: N_19  and  C_20 
ROOT
HETATM    1  N   UNL     1      25.538  42.714  51.031  1.00  0.00    -0.303 N 
HETATM    2  C   UNL     1      25.519  43.781  50.151  1.00  0.00     0.315 C 
HETATM    3  O   UNL     1      26.368  44.086  49.322  1.00  0.00    -0.262 OA
HETATM    4  H   UNL     1      24.635  42.413  51.386  1.00  0.00     0.171 HD
ENDROOT
BRANCH   1   5
HETATM    5  C   UNL     1      26.646  41.893  51.133  1.00  0.00     0.152 C 
HETATM    6  N   UNL     1      27.842  42.192  51.783  1.00  0.00    -0.045 N 
HETATM    7  N   UNL     1      28.810  41.261  51.484  1.00  0.00    -0.156 NA
HETATM    8  C   UNL     1      28.142  40.278  50.871  1.00  0.00     0.055 C 
HETATM    9  C   UNL     1      28.843  39.039  50.454  1.00  0.00     0.072 C 
HETATM   10  C   UNL     1      26.781  40.603  50.674  1.00  0.00     0.079 C 
BRANCH   6  11
HETATM   11  C   UNL     1      28.114  43.140  52.798  1.00  0.00     0.732 A 
HETATM   12  N   UNL     1      27.401  44.204  53.021  1.00  0.00    -0.067 NA
HETATM   13  C   UNL     1      27.821  44.956  54.079  1.00  0.00     0.065 A 
HETATM   14  C   UNL     1      28.845  44.671  54.886  1.00  0.00     0.036 A 
HETATM   15  C   UNL     1      27.143  46.218  54.491  1.00  0.00     0.061 C 
HETATM   16  C   UNL     1      29.038  45.663  55.966  1.00  0.00     0.047 C 
HETATM   17  C   UNL     1      29.621  43.457  54.647  1.00  0.00     0.268 A 
HETATM   18  C   UNL     1      28.137  46.813  55.498  1.00  0.00     0.011 C 
HETATM   19  O   UNL     1      30.550  43.116  55.366  1.00  0.00    -0.267 OA
HETATM   20  N   UNL     1      29.196  42.749  53.559  1.00  0.00    -0.152 N 
HETATM   21  H   UNL     1      29.653  41.871  53.333  1.00  0.00     0.188 HD
ENDBRANCH   6  11
ENDBRANCH   1   5
BRANCH   2  22
HETATM   22  C   UNL     1      24.209  44.592  50.220  1.00  0.00     0.310 C 
HETATM   23  N   UNL     1      24.044  45.441  49.148  1.00  0.00    -0.348 N 
HETATM   24  H   UNL     1      24.854  45.466  48.530  1.00  0.00     0.163 HD
HETATM   25  O   UNL     1      23.454  44.441  51.168  1.00  0.00    -0.262 OA
BRANCH  23  26
HETATM   26  C   UNL     1      23.100  46.558  49.107  1.00  0.00     0.084 C 
HETATM   27  C   UNL     1      23.920  47.873  49.108  1.00  0.00     0.025 C 
HETATM   28  C   UNL     1      23.099  49.123  49.452  1.00  0.00     0.002 C 
HETATM   29  C   UNL     1      22.934  50.075  48.261  1.00  0.00     0.000 C 
HETATM   30  C   UNL     1      21.773  51.068  48.440  1.00  0.00     0.000 C 
HETATM   31  C   UNL     1      20.547  50.706  47.588  1.00  0.00     0.000 C 
HETATM   32  C   UNL     1      19.864  49.410  48.029  1.00  0.00     0.000 C 
HETATM   33  C   UNL     1      19.199  48.680  46.863  1.00  0.00     0.000 C 
HETATM   34  C   UNL     1      18.668  47.293  47.242  1.00  0.00     0.000 C 
HETATM   35  C   UNL     1      19.695  46.151  47.159  1.00  0.00     0.000 C 
HETATM   36  C   UNL     1      20.699  46.078  48.319  1.00  0.00     0.002 C 
HETATM   37  C   UNL     1      22.131  46.467  47.902  1.00  0.00     0.025 C 
ENDBRANCH  23  26
ENDBRANCH   2  22
TORSDOF 4
ENDMDL
MODEL 10
REMARK VINA RESULT:     -10.4      2.734      9.460
REMARK  4 active torsions:
REMARK  status: ('A' for Active; 'I' for Inactive)
REMARK    1  A    between atoms: N_4  and  C_5 
REMARK    2  A    between atoms: C_15  and  N_16 
REMARK       I    between atoms: N_16  and  C_17 
REMARK    3  A    between atoms: C_17  and  C_18 
REMARK       I    between atoms: C_18  and  N_19 
REMARK    4  A    between atoms: N_19  and  C_20 
ROOT
HETATM    1  N   UNL     1      24.849  47.086  51.721  1.00  0.00    -0.303 N 
HETATM    2  C   UNL     1      25.269  47.361  50.433  1.00  0.00     0.315 C 
HETATM    3  O   UNL     1      26.252  46.915  49.853  1.00  0.00    -0.262 OA
HETATM    4  H   UNL     1      23.865  47.253  51.914  1.00  0.00     0.171 HD
ENDROOT
BRANCH   1   5
HETATM    5  C   UNL     1      25.612  46.306  52.570  1.00  0.00     0.152 C 
HETATM    6  N   UNL     1      25.629  44.913  52.625  1.00  0.00    -0.045 N 
HETATM    7  N   UNL     1      26.308  44.474  53.738  1.00  0.00    -0.156 NA
HETATM    8  C   UNL     1      26.910  45.571  54.209  1.00  0.00     0.055 C 
HETATM    9  C   UNL     1      27.812  45.486  55.384  1.00  0.00     0.072 C 
HETATM   10  C   UNL     1      26.548  46.729  53.486  1.00  0.00     0.079 C 
BRANCH   6  11
HETATM   11  C   UNL     1      25.246  43.960  51.652  1.00  0.00     0.732 A 
HETATM   12  N   UNL     1      24.156  44.026  50.946  1.00  0.00    -0.067 NA
HETATM   13  C   UNL     1      24.010  43.020  50.035  1.00  0.00     0.065 A 
HETATM   14  C   UNL     1      24.883  42.038  49.804  1.00  0.00     0.036 A 
HETATM   15  C   UNL     1      22.824  42.912  49.138  1.00  0.00     0.061 C 
HETATM   16  C   UNL     1      24.459  41.112  48.731  1.00  0.00     0.047 C 
HETATM   17  C   UNL     1      26.120  41.990  50.580  1.00  0.00     0.268 A 
HETATM   18  C   UNL     1      22.988  41.506  48.543  1.00  0.00     0.011 C 
HETATM   19  O   UNL     1      26.980  41.141  50.397  1.00  0.00    -0.267 OA
HETATM   20  N   UNL     1      26.216  42.990  51.506  1.00  0.00    -0.152 N 
HETATM   21  H   UNL     1      27.057  43.060  52.070  1.00  0.00     0.188 HD
ENDBRANCH   6  11
ENDBRANCH   1   5
BRANCH   2  22
HETATM   22  C   UNL     1      24.295  48.279  49.666  1.00  0.00     0.310 C 
HETATM   23  N   UNL     1      23.037  47.736  49.532  1.00  0.00    -0.348 N 
HETATM   24  H   UNL     1      22.975  46.779  49.877  1.00  0.00     0.163 HD
HETATM   25  O   UNL     1      24.684  49.359  49.250  1.00  0.00    -0.262 OA
BRANCH  23  26
HETATM   26  C   UNL     1      22.025  48.202  48.583  1.00  0.00     0.084 C 
HETATM   27  C   UNL     1      21.331  46.954  47.979  1.00  0.00     0.025 C 
HETATM   28  C   UNL     1      20.526  47.242  46.704  1.00  0.00     0.002 C 
HETATM   29  C   UNL     1      19.013  47.091  46.906  1.00  0.00     0.000 C 
HETATM   30  C   UNL     1      18.188  47.795  45.817  1.00  0.00     0.000 C 
HETATM   31  C   UNL     1      17.547  49.102  46.310  1.00  0.00     0.000 C 
HETATM   32  C   UNL     1      18.568  50.196  46.624  1.00  0.00     0.000 C 
HETATM   33  C   UNL     1      18.092  51.130  47.736  1.00  0.00     0.000 C 
HETATM   34  C   UNL     1      19.169  52.121  48.196  1.00  0.00     0.000 C 
HETATM   35  C   UNL     1      20.131  51.591  49.273  1.00  0.00     0.000 C 
HETATM   36  C   UNL     1      21.227  50.639  48.773  1.00  0.00     0.002 C 
HETATM   37  C   UNL     1      21.016  49.183  49.230  1.00  0.00     0.025 C 
ENDBRANCH  23  26
ENDBRANCH   2  22
TORSDOF 4
ENDMDL
