MODEL 1
REMARK VINA RESULT:      -8.5      0.000      0.000
REMARK  4 active torsions:
REMARK  status: ('A' for Active; 'I' for Inactive)
REMARK    1  A    between atoms: C_5  and  C_6 
REMARK    2  A    between atoms: C_6  and  N_7 
REMARK    3  A    between atoms: C_6  and  C_18 
REMARK    4  A    between atoms: N_7  and  C_8 
ROOT
HETATM    1  C   UNL     1      25.812  46.219  51.219  1.00  0.00     0.290 C 
ENDROOT
BRANCH   1   2
HETATM    2  C   UNL     1      25.418  44.843  50.677  1.00  0.00     0.021 A 
HETATM    3  C   UNL     1      24.111  44.336  50.812  1.00  0.00     0.055 A 
HETATM    4  C   UNL     1      23.757  43.105  50.260  1.00  0.00     0.117 A 
HETATM    5  C   UNL     1      24.664  42.357  49.526  1.00  0.00     0.045 A 
HETATM    6  F   UNL     1      22.512  42.644  50.435  1.00  0.00    -0.206 F 
HETATM    7  C   UNL     1      25.945  42.859  49.328  1.00  0.00     0.046 A 
HETATM    8  C   UNL     1      26.305  44.089  49.886  1.00  0.00     0.125 A 
HETATM    9  F   UNL     1      27.546  44.531  49.635  1.00  0.00    -0.205 F 
ENDBRANCH   1   2
BRANCH   1  10
HETATM   10  N   UNL     1      25.331  46.540  52.583  1.00  0.00     0.101 NA
HETATM   11  H   UNL     1      24.394  46.142  52.659  1.00  0.00     0.317 HD
BRANCH  10  12
HETATM   12  C   UNL     1      26.130  46.155  53.749  1.00  0.00     0.225 C 
HETATM   13  C   UNL     1      27.219  45.107  53.440  1.00  0.00     0.069 C 
HETATM   14  C   UNL     1      28.076  44.874  54.670  1.00  0.00     0.190 C 
HETATM   15  N   UNL     1      28.712  46.178  55.062  1.00  0.00    -0.067 N 
HETATM   16  C   UNL     1      29.293  43.989  54.504  1.00  0.00     0.035 C 
HETATM   17  H   UNL     1      29.195  46.556  54.232  1.00  0.00     0.280 HD
HETATM   18  C   UNL     1      27.704  47.195  55.484  1.00  0.00     0.237 C 
HETATM   19  C   UNL     1      29.792  45.821  56.049  1.00  0.00     0.235 C 
HETATM   20  C   UNL     1      26.771  47.452  54.304  1.00  0.00     0.063 C 
HETATM   21  C   UNL     1      30.158  44.377  55.702  1.00  0.00     0.030 C 
ENDBRANCH  10  12
ENDBRANCH   1  10
BRANCH   1  22
HETATM   22  C   UNL     1      25.668  47.429  50.294  1.00  0.00    -0.018 A 
HETATM   23  C   UNL     1      24.388  47.829  49.880  1.00  0.00     0.029 A 
HETATM   24  C   UNL     1      24.266  48.891  48.997  1.00  0.00     0.116 A 
HETATM   25  N   UNL     1      25.317  49.570  48.496  1.00  0.00    -0.273 NA
HETATM   26  C   UNL     1      26.541  49.188  48.905  1.00  0.00     0.116 A 
HETATM   27  C   UNL     1      26.765  48.135  49.779  1.00  0.00     0.029 A 
ENDBRANCH   1  22
TORSDOF 4
ENDMDL
MODEL 2
REMARK VINA RESULT:      -8.3      3.046      7.342
REMARK  4 active torsions:
REMARK  status: ('A' for Active; 'I' for Inactive)
REMARK    1  A    between atoms: C_5  and  C_6 
REMARK    2  A    between atoms: C_6  and  N_7 
REMARK    3  A    between atoms: C_6  and  C_18 
REMARK    4  A    between atoms: N_7  and  C_8 
ROOT
HETATM    1  C   UNL     1      28.329  44.925  54.062  1.00  0.00     0.290 C 
ENDROOT
BRANCH   1   2
HETATM    2  C   UNL     1      28.919  45.274  55.430  1.00  0.00     0.021 A 
HETATM    3  C   UNL     1      28.195  46.008  56.389  1.00  0.00     0.055 A 
HETATM    4  C   UNL     1      28.729  46.265  57.652  1.00  0.00     0.117 A 
HETATM    5  C   UNL     1      29.971  45.774  58.022  1.00  0.00     0.045 A 
HETATM    6  F   UNL     1      28.020  46.992  58.526  1.00  0.00    -0.206 F 
HETATM    7  C   UNL     1      30.685  44.999  57.116  1.00  0.00     0.046 A 
HETATM    8  C   UNL     1      30.156  44.745  55.847  1.00  0.00     0.125 A 
HETATM    9  F   UNL     1      30.880  43.967  55.030  1.00  0.00    -0.205 F 
ENDBRANCH   1   2
BRANCH   1  10
HETATM   10  N   UNL     1      26.983  45.475  53.778  1.00  0.00     0.101 NA
HETATM   11  H   UNL     1      26.959  46.407  54.195  1.00  0.00     0.317 HD
BRANCH  10  12
HETATM   12  C   UNL     1      26.494  45.534  52.399  1.00  0.00     0.225 C 
HETATM   13  C   UNL     1      25.301  44.598  52.120  1.00  0.00     0.069 C 
HETATM   14  C   UNL     1      24.782  44.827  50.713  1.00  0.00     0.190 C 
HETATM   15  N   UNL     1      24.350  46.262  50.592  1.00  0.00    -0.067 N 
HETATM   16  C   UNL     1      23.512  44.102  50.321  1.00  0.00     0.035 C 
HETATM   17  H   UNL     1      23.691  46.459  51.361  1.00  0.00     0.280 HD
HETATM   18  C   UNL     1      25.493  47.211  50.738  1.00  0.00     0.237 C 
HETATM   19  C   UNL     1      23.545  46.337  49.322  1.00  0.00     0.235 C 
HETATM   20  C   UNL     1      26.100  47.007  52.124  1.00  0.00     0.063 C 
HETATM   21  C   UNL     1      23.014  44.916  49.127  1.00  0.00     0.030 C 
ENDBRANCH  10  12
ENDBRANCH   1  10
BRANCH   1  22
HETATM   22  C   UNL     1      28.439  43.480  53.574  1.00  0.00    -0.018 A 
HETATM   23  C   UNL     1      27.671  42.484  54.197  1.00  0.00     0.029 A 
HETATM   24  C   UNL     1      27.815  41.166  53.789  1.00  0.00     0.116 A 
HETATM   25  N   UNL     1      28.667  40.774  52.822  1.00  0.00    -0.273 NA
HETATM   26  C   UNL     1      29.394  41.735  52.222  1.00  0.00     0.116 A 
HETATM   27  C   UNL     1      29.325  43.077  52.564  1.00  0.00     0.029 A 
ENDBRANCH   1  22
TORSDOF 4
ENDMDL
MODEL 3
REMARK VINA RESULT:      -8.3      3.847      6.673
REMARK  4 active torsions:
REMARK  status: ('A' for Active; 'I' for Inactive)
REMARK    1  A    between atoms: C_5  and  C_6 
REMARK    2  A    between atoms: C_6  and  N_7 
REMARK    3  A    between atoms: C_6  and  C_18 
REMARK    4  A    between atoms: N_7  and  C_8 
ROOT
HETATM    1  C   UNL     1      26.999  43.396  53.354  1.00  0.00     0.290 C 
ENDROOT
BRANCH   1   2
HETATM    2  C   UNL     1      28.099  43.958  54.256  1.00  0.00     0.021 A 
HETATM    3  C   UNL     1      29.270  43.231  54.545  1.00  0.00     0.055 A 
HETATM    4  C   UNL     1      30.288  43.786  55.322  1.00  0.00     0.117 A 
HETATM    5  C   UNL     1      30.201  45.083  55.803  1.00  0.00     0.045 A 
HETATM    6  F   UNL     1      31.373  43.051  55.599  1.00  0.00    -0.206 F 
HETATM    7  C   UNL     1      29.082  45.844  55.486  1.00  0.00     0.046 A 
HETATM    8  C   UNL     1      28.058  45.289  54.714  1.00  0.00     0.125 A 
HETATM    9  F   UNL     1      27.019  46.084  54.420  1.00  0.00    -0.205 F 
ENDBRANCH   1   2
BRANCH   1  10
HETATM   10  N   UNL     1      27.017  41.929  53.148  1.00  0.00     0.101 NA
HETATM   11  H   UNL     1      26.058  41.606  53.285  1.00  0.00     0.317 HD
BRANCH  10  12
HETATM   12  C   UNL     1      27.556  41.373  51.905  1.00  0.00     0.225 C 
HETATM   13  C   UNL     1      28.607  40.265  52.121  1.00  0.00     0.069 C 
HETATM   14  C   UNL     1      29.003  39.662  50.787  1.00  0.00     0.190 C 
HETATM   15  N   UNL     1      27.774  39.087  50.139  1.00  0.00    -0.067 N 
HETATM   16  C   UNL     1      29.913  38.452  50.821  1.00  0.00     0.035 C 
HETATM   17  H   UNL     1      27.330  38.448  50.817  1.00  0.00     0.280 HD
HETATM   18  C   UNL     1      26.770  40.137  49.801  1.00  0.00     0.237 C 
HETATM   19  C   UNL     1      28.277  38.221  49.015  1.00  0.00     0.235 C 
HETATM   20  C   UNL     1      26.352  40.824  51.098  1.00  0.00     0.063 C 
HETATM   21  C   UNL     1      29.689  37.822  49.447  1.00  0.00     0.030 C 
ENDBRANCH  10  12
ENDBRANCH   1  10
BRANCH   1  22
HETATM   22  C   UNL     1      26.695  44.124  52.044  1.00  0.00    -0.018 A 
HETATM   23  C   UNL     1      25.367  44.461  51.736  1.00  0.00     0.029 A 
HETATM   24  C   UNL     1      25.089  45.070  50.522  1.00  0.00     0.116 A 
HETATM   25  N   UNL     1      26.028  45.356  49.599  1.00  0.00    -0.273 NA
HETATM   26  C   UNL     1      27.301  45.039  49.904  1.00  0.00     0.116 A 
HETATM   27  C   UNL     1      27.676  44.423  51.088  1.00  0.00     0.029 A 
ENDBRANCH   1  22
TORSDOF 4
ENDMDL
MODEL 4
REMARK VINA RESULT:      -8.2      0.838      1.984
REMARK  4 active torsions:
REMARK  status: ('A' for Active; 'I' for Inactive)
REMARK    1  A    between atoms: C_5  and  C_6 
REMARK    2  A    between atoms: C_6  and  N_7 
REMARK    3  A    between atoms: C_6  and  C_18 
REMARK    4  A    between atoms: N_7  and  C_8 
ROOT
HETATM    1  C   UNL     1      25.990  45.861  51.097  1.00  0.00     0.290 C 
ENDROOT
BRANCH   1   2
HETATM    2  C   UNL     1      25.806  44.481  50.462  1.00  0.00     0.021 A 
HETATM    3  C   UNL     1      26.901  43.709  50.027  1.00  0.00     0.055 A 
HETATM    4  C   UNL     1      26.716  42.429  49.504  1.00  0.00     0.117 A 
HETATM    5  C   UNL     1      25.456  41.855  49.432  1.00  0.00     0.045 A 
HETATM    6  F   UNL     1      27.780  41.738  49.074  1.00  0.00    -0.206 F 
HETATM    7  C   UNL     1      24.363  42.571  49.907  1.00  0.00     0.046 A 
HETATM    8  C   UNL     1      24.544  43.857  50.425  1.00  0.00     0.125 A 
HETATM    9  F   UNL     1      23.456  44.484  50.892  1.00  0.00    -0.205 F 
ENDBRANCH   1   2
BRANCH   1  10
HETATM   10  N   UNL     1      25.385  46.042  52.437  1.00  0.00     0.101 NA
HETATM   11  H   UNL     1      24.550  45.453  52.458  1.00  0.00     0.317 HD
BRANCH  10  12
HETATM   12  C   UNL     1      26.188  45.807  53.639  1.00  0.00     0.225 C 
HETATM   13  C   UNL     1      27.329  44.789  53.438  1.00  0.00     0.069 C 
HETATM   14  C   UNL     1      28.182  44.714  54.689  1.00  0.00     0.190 C 
HETATM   15  N   UNL     1      28.751  46.079  54.961  1.00  0.00    -0.067 N 
HETATM   16  C   UNL     1      29.442  43.878  54.615  1.00  0.00     0.035 C 
HETATM   17  H   UNL     1      29.225  46.400  54.103  1.00  0.00     0.280 HD
HETATM   18  C   UNL     1      27.692  47.080  55.279  1.00  0.00     0.237 C 
HETATM   19  C   UNL     1      29.836  45.868  55.984  1.00  0.00     0.235 C 
HETATM   20  C   UNL     1      26.761  47.180  54.074  1.00  0.00     0.063 C 
HETATM   21  C   UNL     1      30.274  44.418  55.777  1.00  0.00     0.030 C 
ENDBRANCH  10  12
ENDBRANCH   1  10
BRANCH   1  22
HETATM   22  C   UNL     1      25.756  47.096  50.225  1.00  0.00    -0.018 A 
HETATM   23  C   UNL     1      26.860  47.815  49.741  1.00  0.00     0.029 A 
HETATM   24  C   UNL     1      26.643  48.965  48.999  1.00  0.00     0.116 A 
HETATM   25  N   UNL     1      25.419  49.450  48.714  1.00  0.00    -0.273 NA
HETATM   26  C   UNL     1      24.363  48.750  49.173  1.00  0.00     0.116 A 
HETATM   27  C   UNL     1      24.479  47.593  49.928  1.00  0.00     0.029 A 
ENDBRANCH   1  22
TORSDOF 4
ENDMDL
MODEL 5
REMARK VINA RESULT:      -8.1      2.340      3.756
REMARK  4 active torsions:
REMARK  status: ('A' for Active; 'I' for Inactive)
REMARK    1  A    between atoms: C_5  and  C_6 
REMARK    2  A    between atoms: C_6  and  N_7 
REMARK    3  A    between atoms: C_6  and  C_18 
REMARK    4  A    between atoms: N_7  and  C_8 
ROOT
HETATM    1  C   UNL     1      27.557  43.668  51.893  1.00  0.00     0.290 C 
ENDROOT
BRANCH   1   2
HETATM    2  C   UNL     1      27.293  42.339  51.181  1.00  0.00     0.021 A 
HETATM    3  C   UNL     1      28.314  41.394  50.964  1.00  0.00     0.055 A 
HETATM    4  C   UNL     1      28.040  40.164  50.365  1.00  0.00     0.117 A 
HETATM    5  C   UNL     1      26.750  39.812  50.000  1.00  0.00     0.045 A 
HETATM    6  F   UNL     1      29.043  39.304  50.150  1.00  0.00    -0.206 F 
HETATM    7  C   UNL     1      25.713  40.702  50.254  1.00  0.00     0.046 A 
HETATM    8  C   UNL     1      25.985  41.939  50.848  1.00  0.00     0.125 A 
HETATM    9  F   UNL     1      24.939  42.740  51.092  1.00  0.00    -0.205 F 
ENDBRANCH   1   2
BRANCH   1  10
HETATM   10  N   UNL     1      27.553  43.620  53.374  1.00  0.00     0.101 NA
HETATM   11  H   UNL     1      27.410  42.642  53.630  1.00  0.00     0.317 HD
BRANCH  10  12
HETATM   12  C   UNL     1      28.684  44.170  54.125  1.00  0.00     0.225 C 
HETATM   13  C   UNL     1      28.270  45.002  55.355  1.00  0.00     0.069 C 
HETATM   14  C   UNL     1      29.501  45.412  56.140  1.00  0.00     0.190 C 
HETATM   15  N   UNL     1      30.224  44.168  56.579  1.00  0.00    -0.067 N 
HETATM   16  C   UNL     1      29.273  46.104  57.467  1.00  0.00     0.035 C 
HETATM   17  H   UNL     1      29.546  43.567  57.072  1.00  0.00     0.280 HD
HETATM   18  C   UNL     1      30.750  43.383  55.424  1.00  0.00     0.237 C 
HETATM   19  C   UNL     1      31.215  44.621  57.618  1.00  0.00     0.235 C 
HETATM   20  C   UNL     1      29.564  42.969  54.557  1.00  0.00     0.063 C 
HETATM   21  C   UNL     1      30.607  45.905  58.186  1.00  0.00     0.030 C 
ENDBRANCH  10  12
ENDBRANCH   1  10
BRANCH   1  22
HETATM   22  C   UNL     1      26.831  44.916  51.388  1.00  0.00    -0.018 A 
HETATM   23  C   UNL     1      27.048  45.353  50.072  1.00  0.00     0.029 A 
HETATM   24  C   UNL     1      26.432  46.516  49.637  1.00  0.00     0.116 A 
HETATM   25  N   UNL     1      25.632  47.272  50.413  1.00  0.00    -0.273 NA
HETATM   26  C   UNL     1      25.419  46.843  51.672  1.00  0.00     0.116 A 
HETATM   27  C   UNL     1      25.995  45.696  52.200  1.00  0.00     0.029 A 
ENDBRANCH   1  22
TORSDOF 4
ENDMDL
MODEL 6
REMARK VINA RESULT:      -8.1      2.554      4.971
REMARK  4 active torsions:
REMARK  status: ('A' for Active; 'I' for Inactive)
REMARK    1  A    between atoms: C_5  and  C_6 
REMARK    2  A    between atoms: C_6  and  N_7 
REMARK    3  A    between atoms: C_6  and  C_18 
REMARK    4  A    between atoms: N_7  and  C_8 
ROOT
HETATM    1  C   UNL     1      26.136  43.135  51.248  1.00  0.00     0.290 C 
ENDROOT
BRANCH   1   2
HETATM    2  C   UNL     1      26.198  44.631  50.932  1.00  0.00     0.021 A 
HETATM    3  C   UNL     1      27.124  45.162  50.014  1.00  0.00     0.055 A 
HETATM    4  C   UNL     1      27.125  46.520  49.696  1.00  0.00     0.117 A 
HETATM    5  C   UNL     1      26.190  47.387  50.239  1.00  0.00     0.045 A 
HETATM    6  F   UNL     1      28.041  46.991  48.840  1.00  0.00    -0.206 F 
HETATM    7  C   UNL     1      25.227  46.881  51.105  1.00  0.00     0.046 A 
HETATM    8  C   UNL     1      25.228  45.522  51.431  1.00  0.00     0.125 A 
HETATM    9  F   UNL     1      24.257  45.092  52.249  1.00  0.00    -0.205 F 
ENDBRANCH   1   2
BRANCH   1  10
HETATM   10  N   UNL     1      26.770  42.716  52.521  1.00  0.00     0.101 NA
HETATM   11  H   UNL     1      27.001  41.727  52.415  1.00  0.00     0.317 HD
BRANCH  10  12
HETATM   12  C   UNL     1      27.932  43.446  53.033  1.00  0.00     0.225 C 
HETATM   13  C   UNL     1      27.619  44.343  54.248  1.00  0.00     0.069 C 
HETATM   14  C   UNL     1      28.900  44.949  54.787  1.00  0.00     0.190 C 
HETATM   15  N   UNL     1      29.821  43.832  55.195  1.00  0.00    -0.067 N 
HETATM   16  C   UNL     1      28.801  45.736  56.077  1.00  0.00     0.035 C 
HETATM   17  H   UNL     1      29.302  43.213  55.836  1.00  0.00     0.280 HD
HETATM   18  C   UNL     1      30.250  43.000  54.033  1.00  0.00     0.237 C 
HETATM   19  C   UNL     1      30.901  44.479  56.020  1.00  0.00     0.235 C 
HETATM   20  C   UNL     1      29.001  42.388  53.405  1.00  0.00     0.063 C 
HETATM   21  C   UNL     1      30.244  45.741  56.581  1.00  0.00     0.030 C 
ENDBRANCH  10  12
ENDBRANCH   1  10
BRANCH   1  22
HETATM   22  C   UNL     1      26.461  42.145  50.129  1.00  0.00    -0.018 A 
HETATM   23  C   UNL     1      25.520  41.926  49.110  1.00  0.00     0.029 A 
HETATM   24  C   UNL     1      25.795  40.986  48.129  1.00  0.00     0.116 A 
HETATM   25  N   UNL     1      26.924  40.251  48.095  1.00  0.00    -0.273 NA
HETATM   26  C   UNL     1      27.827  40.473  49.069  1.00  0.00     0.116 A 
HETATM   27  C   UNL     1      27.640  41.385  50.096  1.00  0.00     0.029 A 
ENDBRANCH   1  22
TORSDOF 4
ENDMDL
MODEL 7
REMARK VINA RESULT:      -8.1      2.657      4.978
REMARK  4 active torsions:
REMARK  status: ('A' for Active; 'I' for Inactive)
REMARK    1  A    between atoms: C_5  and  C_6 
REMARK    2  A    between atoms: C_6  and  N_7 
REMARK    3  A    between atoms: C_6  and  C_18 
REMARK    4  A    between atoms: N_7  and  C_8 
ROOT
HETATM    1  C   UNL     1      27.266  43.122  51.574  1.00  0.00     0.290 C 
ENDROOT
BRANCH   1   2
HETATM    2  C   UNL     1      26.277  44.175  51.070  1.00  0.00     0.021 A 
HETATM    3  C   UNL     1      26.705  45.394  50.512  1.00  0.00     0.055 A 
HETATM    4  C   UNL     1      25.788  46.315  50.004  1.00  0.00     0.117 A 
HETATM    5  C   UNL     1      24.429  46.046  49.993  1.00  0.00     0.045 A 
HETATM    6  F   UNL     1      26.234  47.477  49.509  1.00  0.00    -0.206 F 
HETATM    7  C   UNL     1      23.981  44.826  50.485  1.00  0.00     0.046 A 
HETATM    8  C   UNL     1      24.897  43.904  51.001  1.00  0.00     0.125 A 
HETATM    9  F   UNL     1      24.404  42.735  51.434  1.00  0.00    -0.205 F 
ENDBRANCH   1   2
BRANCH   1  10
HETATM   10  N   UNL     1      28.517  43.645  52.173  1.00  0.00     0.101 NA
HETATM   11  H   UNL     1      28.665  44.571  51.768  1.00  0.00     0.317 HD
BRANCH  10  12
HETATM   12  C   UNL     1      28.658  43.711  53.629  1.00  0.00     0.225 C 
HETATM   13  C   UNL     1      30.049  43.285  54.141  1.00  0.00     0.069 C 
HETATM   14  C   UNL     1      30.141  43.515  55.637  1.00  0.00     0.190 C 
HETATM   15  N   UNL     1      29.916  44.976  55.911  1.00  0.00    -0.067 N 
HETATM   16  C   UNL     1      31.492  43.297  56.286  1.00  0.00     0.035 C 
HETATM   17  H   UNL     1      30.574  45.511  55.324  1.00  0.00     0.280 HD
HETATM   18  C   UNL     1      28.539  45.415  55.540  1.00  0.00     0.237 C 
HETATM   19  C   UNL     1      30.353  45.193  57.335  1.00  0.00     0.235 C 
HETATM   20  C   UNL     1      28.354  45.172  54.045  1.00  0.00     0.063 C 
HETATM   21  C   UNL     1      31.369  44.078  57.593  1.00  0.00     0.030 C 
ENDBRANCH  10  12
ENDBRANCH   1  10
BRANCH   1  22
HETATM   22  C   UNL     1      27.555  41.914  50.682  1.00  0.00    -0.018 A 
HETATM   23  C   UNL     1      28.199  40.793  51.230  1.00  0.00     0.029 A 
HETATM   24  C   UNL     1      28.509  39.723  50.404  1.00  0.00     0.116 A 
HETATM   25  N   UNL     1      28.235  39.694  49.086  1.00  0.00    -0.273 NA
HETATM   26  C   UNL     1      27.609  40.768  48.568  1.00  0.00     0.116 A 
HETATM   27  C   UNL     1      27.264  41.887  49.310  1.00  0.00     0.029 A 
ENDBRANCH   1  22
TORSDOF 4
ENDMDL
MODEL 8
REMARK VINA RESULT:      -8.0      1.970      2.949
REMARK  4 active torsions:
REMARK  status: ('A' for Active; 'I' for Inactive)
REMARK    1  A    between atoms: C_5  and  C_6 
REMARK    2  A    between atoms: C_6  and  N_7 
REMARK    3  A    between atoms: C_6  and  C_18 
REMARK    4  A    between atoms: N_7  and  C_8 
ROOT
HETATM    1  C   UNL     1      27.147  43.854  51.621  1.00  0.00     0.290 C 
ENDROOT
BRANCH   1   2
HETATM    2  C   UNL     1      26.666  42.608  50.874  1.00  0.00     0.021 A 
HETATM    3  C   UNL     1      25.424  42.568  50.211  1.00  0.00     0.055 A 
HETATM    4  C   UNL     1      25.031  41.443  49.487  1.00  0.00     0.117 A 
HETATM    5  C   UNL     1      25.863  40.341  49.360  1.00  0.00     0.045 A 
HETATM    6  F   UNL     1      23.830  41.433  48.895  1.00  0.00    -0.206 F 
HETATM    7  C   UNL     1      27.118  40.374  49.956  1.00  0.00     0.046 A 
HETATM    8  C   UNL     1      27.513  41.498  50.688  1.00  0.00     0.125 A 
HETATM    9  F   UNL     1      28.745  41.479  51.215  1.00  0.00    -0.205 F 
ENDBRANCH   1   2
BRANCH   1  10
HETATM   10  N   UNL     1      27.220  43.736  53.096  1.00  0.00     0.101 NA
HETATM   11  H   UNL     1      27.074  42.749  53.314  1.00  0.00     0.317 HD
BRANCH  10  12
HETATM   12  C   UNL     1      28.398  44.233  53.810  1.00  0.00     0.225 C 
HETATM   13  C   UNL     1      28.063  45.042  55.079  1.00  0.00     0.069 C 
HETATM   14  C   UNL     1      29.338  45.396  55.819  1.00  0.00     0.190 C 
HETATM   15  N   UNL     1      30.043  44.122  56.192  1.00  0.00    -0.067 N 
HETATM   16  C   UNL     1      29.189  46.059  57.172  1.00  0.00     0.035 C 
HETATM   17  H   UNL     1      29.370  43.526  56.699  1.00  0.00     0.280 HD
HETATM   18  C   UNL     1      30.495  43.355  54.995  1.00  0.00     0.237 C 
HETATM   19  C   UNL     1      31.091  44.519  57.198  1.00  0.00     0.235 C 
HETATM   20  C   UNL     1      29.261  42.997  54.171  1.00  0.00     0.063 C 
HETATM   21  C   UNL     1      30.546  45.802  57.826  1.00  0.00     0.030 C 
ENDBRANCH  10  12
ENDBRANCH   1  10
BRANCH   1  22
HETATM   22  C   UNL     1      26.568  45.210  51.213  1.00  0.00    -0.018 A 
HETATM   23  C   UNL     1      25.613  45.826  52.038  1.00  0.00     0.029 A 
HETATM   24  C   UNL     1      25.050  47.028  51.637  1.00  0.00     0.116 A 
HETATM   25  N   UNL     1      25.359  47.648  50.481  1.00  0.00    -0.273 NA
HETATM   26  C   UNL     1      26.282  47.057  49.699  1.00  0.00     0.116 A 
HETATM   27  C   UNL     1      26.896  45.853  50.011  1.00  0.00     0.029 A 
ENDBRANCH   1  22
TORSDOF 4
ENDMDL
MODEL 9
REMARK VINA RESULT:      -7.9     11.735     13.062
REMARK  4 active torsions:
REMARK  status: ('A' for Active; 'I' for Inactive)
REMARK    1  A    between atoms: C_5  and  C_6 
REMARK    2  A    between atoms: C_6  and  N_7 
REMARK    3  A    between atoms: C_6  and  C_18 
REMARK    4  A    between atoms: N_7  and  C_8 
ROOT
HETATM    1  C   UNL     1      29.363  48.779  41.187  1.00  0.00     0.290 C 
ENDROOT
BRANCH   1   2
HETATM    2  C   UNL     1      29.105  50.208  40.705  1.00  0.00     0.021 A 
HETATM    3  C   UNL     1      28.345  51.123  41.459  1.00  0.00     0.055 A 
HETATM    4  C   UNL     1      28.171  52.439  41.030  1.00  0.00     0.117 A 
HETATM    5  C   UNL     1      28.771  52.903  39.870  1.00  0.00     0.045 A 
HETATM    6  F   UNL     1      27.417  53.270  41.760  1.00  0.00    -0.206 F 
HETATM    7  C   UNL     1      29.573  52.038  39.135  1.00  0.00     0.046 A 
HETATM    8  C   UNL     1      29.745  50.717  39.559  1.00  0.00     0.125 A 
HETATM    9  F   UNL     1      30.553  49.942  38.822  1.00  0.00    -0.205 F 
ENDBRANCH   1   2
BRANCH   1  10
HETATM   10  N   UNL     1      30.649  48.554  41.888  1.00  0.00     0.101 NA
HETATM   11  H   UNL     1      31.001  47.653  41.562  1.00  0.00     0.317 HD
BRANCH  10  12
HETATM   12  C   UNL     1      31.709  49.561  41.809  1.00  0.00     0.225 C 
HETATM   13  C   UNL     1      31.978  50.291  43.140  1.00  0.00     0.069 C 
HETATM   14  C   UNL     1      33.175  51.211  42.994  1.00  0.00     0.190 C 
HETATM   15  N   UNL     1      34.369  50.383  42.610  1.00  0.00    -0.067 N 
HETATM   16  C   UNL     1      33.678  51.893  44.248  1.00  0.00     0.035 C 
HETATM   17  H   UNL     1      34.459  49.621  43.300  1.00  0.00     0.280 HD
HETATM   18  C   UNL     1      34.209  49.745  41.271  1.00  0.00     0.237 C 
HETATM   19  C   UNL     1      35.564  51.276  42.815  1.00  0.00     0.235 C 
HETATM   20  C   UNL     1      32.988  48.831  41.327  1.00  0.00     0.063 C 
HETATM   21  C   UNL     1      35.106  52.283  43.871  1.00  0.00     0.030 C 
ENDBRANCH  10  12
ENDBRANCH   1  10
BRANCH   1  22
HETATM   22  C   UNL     1      29.060  47.626  40.228  1.00  0.00    -0.018 A 
HETATM   23  C   UNL     1      27.747  47.443  39.766  1.00  0.00     0.029 A 
HETATM   24  C   UNL     1      27.466  46.364  38.943  1.00  0.00     0.116 A 
HETATM   25  N   UNL     1      28.387  45.459  38.558  1.00  0.00    -0.273 NA
HETATM   26  C   UNL     1      29.646  45.645  38.996  1.00  0.00     0.116 A 
HETATM   27  C   UNL     1      30.024  46.689  39.828  1.00  0.00     0.029 A 
ENDBRANCH   1  22
TORSDOF 4
ENDMDL
MODEL 10
REMARK VINA RESULT:      -7.8      3.716      6.910
REMARK  4 active torsions:
REMARK  status: ('A' for Active; 'I' for Inactive)
REMARK    1  A    between atoms: C_5  and  C_6 
REMARK    2  A    between atoms: C_6  and  N_7 
REMARK    3  A    between atoms: C_6  and  C_18 
REMARK    4  A    between atoms: N_7  and  C_8 
ROOT
HETATM    1  C   UNL     1      27.097  42.965  52.956  1.00  0.00     0.290 C 
ENDROOT
BRANCH   1   2
HETATM    2  C   UNL     1      28.217  43.534  53.828  1.00  0.00     0.021 A 
HETATM    3  C   UNL     1      28.033  44.681  54.624  1.00  0.00     0.055 A 
HETATM    4  C   UNL     1      29.049  45.151  55.457  1.00  0.00     0.117 A 
HETATM    5  C   UNL     1      30.260  44.483  55.562  1.00  0.00     0.045 A 
HETATM    6  F   UNL     1      28.844  46.262  56.176  1.00  0.00    -0.206 F 
HETATM    7  C   UNL     1      30.450  43.317  54.831  1.00  0.00     0.046 A 
HETATM    8  C   UNL     1      29.436  42.847  53.991  1.00  0.00     0.125 A 
HETATM    9  F   UNL     1      29.670  41.702  53.335  1.00  0.00    -0.205 F 
ENDBRANCH   1   2
BRANCH   1  10
HETATM   10  N   UNL     1      27.235  41.540  52.574  1.00  0.00     0.101 NA
HETATM   11  H   UNL     1      26.433  41.054  52.978  1.00  0.00     0.317 HD
BRANCH  10  12
HETATM   12  C   UNL     1      27.379  41.173  51.163  1.00  0.00     0.225 C 
HETATM   13  C   UNL     1      28.497  40.144  50.898  1.00  0.00     0.069 C 
HETATM   14  C   UNL     1      28.479  39.727  49.439  1.00  0.00     0.190 C 
HETATM   15  N   UNL     1      27.138  39.122  49.132  1.00  0.00    -0.067 N 
HETATM   16  C   UNL     1      29.410  38.605  49.033  1.00  0.00     0.035 C 
HETATM   17  H   UNL     1      26.962  38.377  49.823  1.00  0.00     0.280 HD
HETATM   18  C   UNL     1      26.029  40.112  49.260  1.00  0.00     0.237 C 
HETATM   19  C   UNL     1      27.301  38.432  47.803  1.00  0.00     0.235 C 
HETATM   20  C   UNL     1      26.010  40.614  50.702  1.00  0.00     0.063 C 
HETATM   21  C   UNL     1      28.794  38.113  47.724  1.00  0.00     0.030 C 
ENDBRANCH  10  12
ENDBRANCH   1  10
BRANCH   1  22
HETATM   22  C   UNL     1      26.607  43.799  51.771  1.00  0.00    -0.018 A 
HETATM   23  C   UNL     1      27.545  44.368  50.896  1.00  0.00     0.029 A 
HETATM   24  C   UNL     1      27.099  45.170  49.857  1.00  0.00     0.116 A 
HETATM   25  N   UNL     1      25.800  45.449  49.635  1.00  0.00    -0.273 NA
HETATM   26  C   UNL     1      24.904  44.892  50.472  1.00  0.00     0.116 A 
HETATM   27  C   UNL     1      25.253  44.083  51.543  1.00  0.00     0.029 A 
ENDBRANCH   1  22
TORSDOF 4
ENDMDL
