MODEL 1
REMARK VINA RESULT:     -10.3      0.000      0.000
REMARK  4 active torsions:
REMARK  status: ('A' for Active; 'I' for Inactive)
REMARK    1  A    between atoms: C_3  and  C_4 
REMARK    2  A    between atoms: C_14  and  N_15 
REMARK       I    between atoms: N_15  and  C_16 
REMARK    3  A    between atoms: C_16  and  C_17 
REMARK    4  A    between atoms: C_20  and  N_21 
ROOT
HETATM    1  N   UNL     1      25.818  46.400  51.377  1.00  0.00    -0.322 N 
HETATM    2  C   UNL     1      25.841  46.901  52.664  1.00  0.00     0.256 C 
HETATM    3  O   UNL     1      25.131  47.794  53.111  1.00  0.00    -0.267 OA
HETATM    4  H   UNL     1      26.581  45.792  51.101  1.00  0.00     0.169 HD
ENDROOT
BRANCH   1   5
HETATM    5  C   UNL     1      24.838  46.655  50.382  1.00  0.00     0.049 A 
HETATM    6  C   UNL     1      24.302  45.577  49.641  1.00  0.00     0.037 A 
HETATM    7  C   UNL     1      23.232  45.804  48.760  1.00  0.00     0.017 A 
HETATM    8  C   UNL     1      22.723  47.089  48.575  1.00  0.00     0.001 A 
HETATM    9  C   UNL     1      23.280  48.157  49.269  1.00  0.00     0.002 A 
HETATM   10  C   UNL     1      24.328  47.942  50.169  1.00  0.00     0.030 A 
BRANCH   6  11
HETATM   11  C   UNL     1      24.866  44.228  49.692  1.00  0.00     0.141 A 
HETATM   12  N   UNL     1      25.247  43.566  50.766  1.00  0.00    -0.228 NA
HETATM   13  C   UNL     1      25.681  42.341  50.320  1.00  0.00     0.086 A 
HETATM   14  C   UNL     1      25.551  42.242  48.940  1.00  0.00     0.062 A 
HETATM   15  C   UNL     1      26.200  41.255  51.039  1.00  0.00     0.034 A 
HETATM   16  N   UNL     1      25.004  43.441  48.569  1.00  0.00    -0.338 N 
HETATM   17  C   UNL     1      25.921  41.109  48.212  1.00  0.00     0.032 A 
HETATM   18  H   UNL     1      24.735  43.712  47.634  1.00  0.00     0.167 HD
HETATM   19  C   UNL     1      26.443  40.038  48.946  1.00  0.00     0.002 A 
HETATM   20  C   UNL     1      26.580  40.105  50.335  1.00  0.00     0.002 A 
ENDBRANCH   6  11
ENDBRANCH   1   5
BRANCH   2  21
HETATM   21  C   UNL     1      26.900  46.327  53.537  1.00  0.00     0.032 A 
HETATM   22  C   UNL     1      27.131  44.954  53.609  1.00  0.00     0.019 A 
HETATM   23  C   UNL     1      28.128  44.453  54.460  1.00  0.00     0.031 A 
HETATM   24  C   UNL     1      28.923  45.296  55.259  1.00  0.00     0.045 A 
HETATM   25  C   UNL     1      28.662  46.674  55.169  1.00  0.00     0.031 A 
HETATM   26  C   UNL     1      27.661  47.186  54.328  1.00  0.00     0.019 A 
BRANCH  24  27
HETATM   27  N   UNL     1      29.935  44.773  56.133  1.00  0.00    -0.252 N 
HETATM   28  C   UNL     1      30.791  43.739  55.812  1.00  0.00     0.231 C 
HETATM   29  O   UNL     1      30.942  43.149  54.751  1.00  0.00    -0.273 OA
HETATM   30  C   UNL     1      31.586  43.365  57.026  1.00  0.00     0.113 C 
HETATM   31  C   UNL     1      31.394  44.529  57.957  1.00  0.00     0.113 C 
HETATM   32  C   UNL     1      30.194  45.238  57.406  1.00  0.00     0.231 C 
HETATM   33  O   UNL     1      29.616  46.098  58.059  1.00  0.00    -0.273 OA
ENDBRANCH  24  27
ENDBRANCH   2  21
TORSDOF 4
ENDMDL
MODEL 2
REMARK VINA RESULT:     -10.1      1.039      1.980
REMARK  4 active torsions:
REMARK  status: ('A' for Active; 'I' for Inactive)
REMARK    1  A    between atoms: C_3  and  C_4 
REMARK    2  A    between atoms: C_14  and  N_15 
REMARK       I    between atoms: N_15  and  C_16 
REMARK    3  A    between atoms: C_16  and  C_17 
REMARK    4  A    between atoms: C_20  and  N_21 
ROOT
HETATM    1  N   UNL     1      25.809  45.703  51.228  1.00  0.00    -0.322 N 
HETATM    2  C   UNL     1      25.769  46.563  52.309  1.00  0.00     0.256 C 
HETATM    3  O   UNL     1      25.068  47.562  52.418  1.00  0.00    -0.267 OA
HETATM    4  H   UNL     1      26.563  45.026  51.202  1.00  0.00     0.169 HD
ENDROOT
BRANCH   1   5
HETATM    5  C   UNL     1      24.906  45.668  50.134  1.00  0.00     0.049 A 
HETATM    6  C   UNL     1      24.782  44.485  49.371  1.00  0.00     0.037 A 
HETATM    7  C   UNL     1      23.790  44.398  48.381  1.00  0.00     0.017 A 
HETATM    8  C   UNL     1      22.956  45.482  48.111  1.00  0.00     0.001 A 
HETATM    9  C   UNL     1      23.107  46.663  48.831  1.00  0.00     0.002 A 
HETATM   10  C   UNL     1      24.073  46.755  49.837  1.00  0.00     0.030 A 
BRANCH   6  11
HETATM   11  C   UNL     1      25.702  43.355  49.513  1.00  0.00     0.141 A 
HETATM   12  N   UNL     1      26.087  42.781  50.636  1.00  0.00    -0.228 NA
HETATM   13  C   UNL     1      26.924  41.756  50.267  1.00  0.00     0.086 A 
HETATM   14  C   UNL     1      27.046  41.690  48.885  1.00  0.00     0.062 A 
HETATM   15  C   UNL     1      27.619  40.833  51.061  1.00  0.00     0.034 A 
HETATM   16  N   UNL     1      26.237  42.696  48.428  1.00  0.00    -0.338 N 
HETATM   17  C   UNL     1      27.841  40.748  48.227  1.00  0.00     0.032 A 
HETATM   18  H   UNL     1      26.051  42.922  47.462  1.00  0.00     0.167 HD
HETATM   19  C   UNL     1      28.532  39.839  49.036  1.00  0.00     0.002 A 
HETATM   20  C   UNL     1      28.424  39.877  50.430  1.00  0.00     0.002 A 
ENDBRANCH   6  11
ENDBRANCH   1   5
BRANCH   2  21
HETATM   21  C   UNL     1      26.746  46.256  53.387  1.00  0.00     0.032 A 
HETATM   22  C   UNL     1      27.424  47.261  54.075  1.00  0.00     0.019 A 
HETATM   23  C   UNL     1      28.352  46.927  55.074  1.00  0.00     0.031 A 
HETATM   24  C   UNL     1      28.631  45.591  55.418  1.00  0.00     0.045 A 
HETATM   25  C   UNL     1      27.937  44.600  54.702  1.00  0.00     0.031 A 
HETATM   26  C   UNL     1      27.013  44.924  53.695  1.00  0.00     0.019 A 
BRANCH  24  27
HETATM   27  N   UNL     1      29.589  45.258  56.435  1.00  0.00    -0.252 N 
HETATM   28  C   UNL     1      29.552  45.729  57.731  1.00  0.00     0.231 C 
HETATM   29  O   UNL     1      28.699  46.401  58.296  1.00  0.00    -0.273 OA
HETATM   30  C   UNL     1      30.799  45.302  58.445  1.00  0.00     0.113 C 
HETATM   31  C   UNL     1      31.365  44.221  57.568  1.00  0.00     0.113 C 
HETATM   32  C   UNL     1      30.669  44.418  56.255  1.00  0.00     0.231 C 
HETATM   33  O   UNL     1      31.066  43.857  55.242  1.00  0.00    -0.273 OA
ENDBRANCH  24  27
ENDBRANCH   2  21
TORSDOF 4
ENDMDL
MODEL 3
REMARK VINA RESULT:     -10.1      3.194      8.608
REMARK  4 active torsions:
REMARK  status: ('A' for Active; 'I' for Inactive)
REMARK    1  A    between atoms: C_3  and  C_4 
REMARK    2  A    between atoms: C_14  and  N_15 
REMARK       I    between atoms: N_15  and  C_16 
REMARK    3  A    between atoms: C_16  and  C_17 
REMARK    4  A    between atoms: C_20  and  N_21 
ROOT
HETATM    1  N   UNL     1      26.203  43.824  49.883  1.00  0.00    -0.322 N 
HETATM    2  C   UNL     1      24.825  43.830  49.784  1.00  0.00     0.256 C 
HETATM    3  O   UNL     1      24.086  42.855  49.848  1.00  0.00    -0.267 OA
HETATM    4  H   UNL     1      26.690  44.677  49.632  1.00  0.00     0.169 HD
ENDROOT
BRANCH   1   5
HETATM    5  C   UNL     1      27.022  42.740  50.292  1.00  0.00     0.049 A 
HETATM    6  C   UNL     1      27.529  42.710  51.611  1.00  0.00     0.037 A 
HETATM    7  C   UNL     1      28.219  41.573  52.065  1.00  0.00     0.017 A 
HETATM    8  C   UNL     1      28.447  40.493  51.214  1.00  0.00     0.001 A 
HETATM    9  C   UNL     1      27.988  40.541  49.901  1.00  0.00     0.002 A 
HETATM   10  C   UNL     1      27.278  41.655  49.444  1.00  0.00     0.030 A 
BRANCH   6  11
HETATM   11  C   UNL     1      27.436  43.854  52.518  1.00  0.00     0.141 A 
HETATM   12  N   UNL     1      26.416  44.679  52.653  1.00  0.00    -0.228 NA
HETATM   13  C   UNL     1      26.779  45.569  53.635  1.00  0.00     0.086 A 
HETATM   14  C   UNL     1      28.046  45.277  54.125  1.00  0.00     0.062 A 
HETATM   15  C   UNL     1      26.074  46.658  54.166  1.00  0.00     0.034 A 
HETATM   16  N   UNL     1      28.428  44.166  53.422  1.00  0.00    -0.338 N 
HETATM   17  C   UNL     1      28.674  46.021  55.127  1.00  0.00     0.032 A 
HETATM   18  H   UNL     1      29.288  43.649  53.540  1.00  0.00     0.167 HD
HETATM   19  C   UNL     1      27.958  47.108  55.640  1.00  0.00     0.002 A 
HETATM   20  C   UNL     1      26.679  47.423  55.172  1.00  0.00     0.002 A 
ENDBRANCH   6  11
ENDBRANCH   1   5
BRANCH   2  21
HETATM   21  C   UNL     1      24.227  45.160  49.492  1.00  0.00     0.032 A 
HETATM   22  C   UNL     1      23.212  45.319  48.549  1.00  0.00     0.019 A 
HETATM   23  C   UNL     1      22.687  46.595  48.290  1.00  0.00     0.031 A 
HETATM   24  C   UNL     1      23.152  47.744  48.956  1.00  0.00     0.045 A 
HETATM   25  C   UNL     1      24.181  47.552  49.895  1.00  0.00     0.031 A 
HETATM   26  C   UNL     1      24.718  46.281  50.156  1.00  0.00     0.019 A 
BRANCH  24  27
HETATM   27  N   UNL     1      22.616  49.047  48.678  1.00  0.00    -0.252 N 
HETATM   28  C   UNL     1      23.283  50.040  47.991  1.00  0.00     0.231 C 
HETATM   29  O   UNL     1      24.362  50.003  47.414  1.00  0.00    -0.273 OA
HETATM   30  C   UNL     1      22.477  51.302  48.045  1.00  0.00     0.113 C 
HETATM   31  C   UNL     1      21.114  50.841  48.481  1.00  0.00     0.113 C 
HETATM   32  C   UNL     1      21.359  49.478  49.051  1.00  0.00     0.231 C 
HETATM   33  O   UNL     1      20.501  48.910  49.716  1.00  0.00    -0.273 OA
ENDBRANCH  24  27
ENDBRANCH   2  21
TORSDOF 4
ENDMDL
MODEL 4
REMARK VINA RESULT:      -9.7      2.112      5.037
REMARK  4 active torsions:
REMARK  status: ('A' for Active; 'I' for Inactive)
REMARK    1  A    between atoms: C_3  and  C_4 
REMARK    2  A    between atoms: C_14  and  N_15 
REMARK       I    between atoms: N_15  and  C_16 
REMARK    3  A    between atoms: C_16  and  C_17 
REMARK    4  A    between atoms: C_20  and  N_21 
ROOT
HETATM    1  N   UNL     1      28.553  41.396  50.647  1.00  0.00    -0.322 N 
HETATM    2  C   UNL     1      27.847  41.378  51.835  1.00  0.00     0.256 C 
HETATM    3  O   UNL     1      26.760  40.848  52.028  1.00  0.00    -0.267 OA
HETATM    4  H   UNL     1      29.346  42.024  50.588  1.00  0.00     0.169 HD
ENDROOT
BRANCH   1   5
HETATM    5  C   UNL     1      28.279  40.632  49.483  1.00  0.00     0.049 A 
HETATM    6  C   UNL     1      27.378  41.134  48.517  1.00  0.00     0.037 A 
HETATM    7  C   UNL     1      27.214  40.453  47.300  1.00  0.00     0.017 A 
HETATM    8  C   UNL     1      27.896  39.263  47.052  1.00  0.00     0.001 A 
HETATM    9  C   UNL     1      28.749  38.744  48.021  1.00  0.00     0.002 A 
HETATM   10  C   UNL     1      28.942  39.425  49.226  1.00  0.00     0.030 A 
BRANCH   6  11
HETATM   11  C   UNL     1      26.537  42.307  48.758  1.00  0.00     0.141 A 
HETATM   12  N   UNL     1      26.898  43.440  49.327  1.00  0.00    -0.228 NA
HETATM   13  C   UNL     1      25.783  44.244  49.306  1.00  0.00     0.086 A 
HETATM   14  C   UNL     1      24.716  43.595  48.699  1.00  0.00     0.062 A 
HETATM   15  C   UNL     1      25.607  45.548  49.789  1.00  0.00     0.034 A 
HETATM   16  N   UNL     1      25.228  42.379  48.333  1.00  0.00    -0.338 N 
HETATM   17  C   UNL     1      23.452  44.171  48.546  1.00  0.00     0.032 A 
HETATM   18  H   UNL     1      24.741  41.652  47.829  1.00  0.00     0.167 HD
HETATM   19  C   UNL     1      23.294  45.470  49.039  1.00  0.00     0.002 A 
HETATM   20  C   UNL     1      24.351  46.151  49.649  1.00  0.00     0.002 A 
ENDBRANCH   6  11
ENDBRANCH   1   5
BRANCH   2  21
HETATM   21  C   UNL     1      28.465  42.159  52.939  1.00  0.00     0.032 A 
HETATM   22  C   UNL     1      29.842  42.365  53.014  1.00  0.00     0.019 A 
HETATM   23  C   UNL     1      30.387  43.093  54.083  1.00  0.00     0.031 A 
HETATM   24  C   UNL     1      29.584  43.636  55.104  1.00  0.00     0.045 A 
HETATM   25  C   UNL     1      28.201  43.406  55.004  1.00  0.00     0.031 A 
HETATM   26  C   UNL     1      27.647  42.672  53.943  1.00  0.00     0.019 A 
BRANCH  24  27
HETATM   27  N   UNL     1      30.152  44.372  56.199  1.00  0.00    -0.252 N 
HETATM   28  C   UNL     1      31.087  43.870  57.081  1.00  0.00     0.231 C 
HETATM   29  O   UNL     1      31.680  42.799  57.067  1.00  0.00    -0.273 OA
HETATM   30  C   UNL     1      31.312  44.866  58.178  1.00  0.00     0.113 C 
HETATM   31  C   UNL     1      30.722  46.138  57.637  1.00  0.00     0.113 C 
HETATM   32  C   UNL     1      29.846  45.681  56.512  1.00  0.00     0.231 C 
HETATM   33  O   UNL     1      29.029  46.437  56.002  1.00  0.00    -0.273 OA
ENDBRANCH  24  27
ENDBRANCH   2  21
TORSDOF 4
ENDMDL
MODEL 5
REMARK VINA RESULT:      -9.6      2.864      8.103
REMARK  4 active torsions:
REMARK  status: ('A' for Active; 'I' for Inactive)
REMARK    1  A    between atoms: C_3  and  C_4 
REMARK    2  A    between atoms: C_14  and  N_15 
REMARK       I    between atoms: N_15  and  C_16 
REMARK    3  A    between atoms: C_16  and  C_17 
REMARK    4  A    between atoms: C_20  and  N_21 
ROOT
HETATM    1  N   UNL     1      26.738  44.209  52.149  1.00  0.00    -0.322 N 
HETATM    2  C   UNL     1      25.392  44.397  52.399  1.00  0.00     0.256 C 
HETATM    3  O   UNL     1      24.816  44.209  53.464  1.00  0.00    -0.267 OA
HETATM    4  H   UNL     1      27.037  44.230  51.181  1.00  0.00     0.169 HD
ENDROOT
BRANCH   1   5
HETATM    5  C   UNL     1      27.757  43.975  53.108  1.00  0.00     0.049 A 
HETATM    6  C   UNL     1      28.559  42.815  53.003  1.00  0.00     0.037 A 
HETATM    7  C   UNL     1      29.658  42.651  53.861  1.00  0.00     0.017 A 
HETATM    8  C   UNL     1      29.942  43.597  54.844  1.00  0.00     0.001 A 
HETATM    9  C   UNL     1      29.126  44.716  54.978  1.00  0.00     0.002 A 
HETATM   10  C   UNL     1      28.044  44.905  54.115  1.00  0.00     0.030 A 
BRANCH   6  11
HETATM   11  C   UNL     1      28.248  41.724  52.079  1.00  0.00     0.141 A 
HETATM   12  N   UNL     1      27.121  41.536  51.421  1.00  0.00    -0.228 NA
HETATM   13  C   UNL     1      27.311  40.405  50.665  1.00  0.00     0.086 A 
HETATM   14  C   UNL     1      28.588  39.892  50.851  1.00  0.00     0.062 A 
HETATM   15  C   UNL     1      26.432  39.753  49.788  1.00  0.00     0.034 A 
HETATM   16  N   UNL     1      29.174  40.764  51.729  1.00  0.00    -0.338 N 
HETATM   17  C   UNL     1      29.056  38.741  50.213  1.00  0.00     0.032 A 
HETATM   18  H   UNL     1      30.124  40.726  52.067  1.00  0.00     0.167 HD
HETATM   19  C   UNL     1      28.163  38.100  49.347  1.00  0.00     0.002 A 
HETATM   20  C   UNL     1      26.874  38.595  49.134  1.00  0.00     0.002 A 
ENDBRANCH   6  11
ENDBRANCH   1   5
BRANCH   2  21
HETATM   21  C   UNL     1      24.586  44.790  51.213  1.00  0.00     0.032 A 
HETATM   22  C   UNL     1      24.711  46.047  50.622  1.00  0.00     0.019 A 
HETATM   23  C   UNL     1      23.918  46.385  49.513  1.00  0.00     0.031 A 
HETATM   24  C   UNL     1      22.983  45.488  48.962  1.00  0.00     0.045 A 
HETATM   25  C   UNL     1      22.876  44.232  49.584  1.00  0.00     0.031 A 
HETATM   26  C   UNL     1      23.658  43.888  50.698  1.00  0.00     0.019 A 
BRANCH  24  27
HETATM   27  N   UNL     1      22.170  45.846  47.834  1.00  0.00    -0.252 N 
HETATM   28  C   UNL     1      22.275  45.279  46.580  1.00  0.00     0.231 C 
HETATM   29  O   UNL     1      22.960  44.339  46.201  1.00  0.00    -0.273 OA
HETATM   30  C   UNL     1      21.384  46.021  45.630  1.00  0.00     0.113 C 
HETATM   31  C   UNL     1      20.469  46.804  46.529  1.00  0.00     0.113 C 
HETATM   32  C   UNL     1      21.171  46.797  47.853  1.00  0.00     0.231 C 
HETATM   33  O   UNL     1      20.819  47.546  48.756  1.00  0.00    -0.273 OA
ENDBRANCH  24  27
ENDBRANCH   2  21
TORSDOF 4
ENDMDL
MODEL 6
REMARK VINA RESULT:      -9.6      2.969      8.313
REMARK  4 active torsions:
REMARK  status: ('A' for Active; 'I' for Inactive)
REMARK    1  A    between atoms: C_3  and  C_4 
REMARK    2  A    between atoms: C_14  and  N_15 
REMARK       I    between atoms: N_15  and  C_16 
REMARK    3  A    between atoms: C_16  and  C_17 
REMARK    4  A    between atoms: C_20  and  N_21 
ROOT
HETATM    1  N   UNL     1      25.152  46.351  52.177  1.00  0.00    -0.322 N 
HETATM    2  C   UNL     1      25.244  47.024  50.973  1.00  0.00     0.256 C 
HETATM    3  O   UNL     1      26.034  47.919  50.698  1.00  0.00    -0.267 OA
HETATM    4  H   UNL     1      24.337  45.766  52.320  1.00  0.00     0.169 HD
ENDROOT
BRANCH   1   5
HETATM    5  C   UNL     1      26.078  46.398  53.250  1.00  0.00     0.049 A 
HETATM    6  C   UNL     1      27.024  45.358  53.400  1.00  0.00     0.037 A 
HETATM    7  C   UNL     1      28.032  45.470  54.371  1.00  0.00     0.017 A 
HETATM    8  C   UNL     1      28.084  46.576  55.219  1.00  0.00     0.001 A 
HETATM    9  C   UNL     1      27.128  47.578  55.102  1.00  0.00     0.002 A 
HETATM   10  C   UNL     1      26.134  47.492  54.123  1.00  0.00     0.030 A 
BRANCH   6  11
HETATM   11  C   UNL     1      26.956  44.114  52.632  1.00  0.00     0.141 A 
HETATM   12  N   UNL     1      25.907  43.628  51.998  1.00  0.00    -0.228 NA
HETATM   13  C   UNL     1      26.331  42.464  51.404  1.00  0.00     0.086 A 
HETATM   14  C   UNL     1      27.676  42.236  51.667  1.00  0.00     0.062 A 
HETATM   15  C   UNL     1      25.621  41.546  50.619  1.00  0.00     0.034 A 
HETATM   16  N   UNL     1      28.057  43.312  52.422  1.00  0.00    -0.338 N 
HETATM   17  C   UNL     1      28.373  41.122  51.194  1.00  0.00     0.032 A 
HETATM   18  H   UNL     1      28.986  43.502  52.768  1.00  0.00     0.167 HD
HETATM   19  C   UNL     1      27.647  40.213  50.418  1.00  0.00     0.002 A 
HETATM   20  C   UNL     1      26.294  40.419  50.131  1.00  0.00     0.002 A 
ENDBRANCH   6  11
ENDBRANCH   1   5
BRANCH   2  21
HETATM   21  C   UNL     1      24.211  46.651  49.970  1.00  0.00     0.032 A 
HETATM   22  C   UNL     1      23.445  47.611  49.310  1.00  0.00     0.019 A 
HETATM   23  C   UNL     1      22.467  47.215  48.384  1.00  0.00     0.031 A 
HETATM   24  C   UNL     1      22.223  45.861  48.087  1.00  0.00     0.045 A 
HETATM   25  C   UNL     1      23.007  44.917  48.774  1.00  0.00     0.031 A 
HETATM   26  C   UNL     1      23.981  45.302  49.708  1.00  0.00     0.019 A 
BRANCH  24  27
HETATM   27  N   UNL     1      21.215  45.465  47.145  1.00  0.00    -0.252 N 
HETATM   28  C   UNL     1      21.354  45.529  45.773  1.00  0.00     0.231 C 
HETATM   29  O   UNL     1      22.335  45.814  45.099  1.00  0.00    -0.273 OA
HETATM   30  C   UNL     1      20.043  45.193  45.130  1.00  0.00     0.113 C 
HETATM   31  C   UNL     1      19.252  44.553  46.235  1.00  0.00     0.113 C 
HETATM   32  C   UNL     1      19.975  44.962  47.482  1.00  0.00     0.231 C 
HETATM   33  O   UNL     1      19.464  44.811  48.585  1.00  0.00    -0.273 OA
ENDBRANCH  24  27
ENDBRANCH   2  21
TORSDOF 4
ENDMDL
MODEL 7
REMARK VINA RESULT:      -9.6      3.506      5.542
REMARK  4 active torsions:
REMARK  status: ('A' for Active; 'I' for Inactive)
REMARK    1  A    between atoms: C_3  and  C_4 
REMARK    2  A    between atoms: C_14  and  N_15 
REMARK       I    between atoms: N_15  and  C_16 
REMARK    3  A    between atoms: C_16  and  C_17 
REMARK    4  A    between atoms: C_20  and  N_21 
ROOT
HETATM    1  N   UNL     1      22.558  48.268  49.523  1.00  0.00    -0.322 N 
HETATM    2  C   UNL     1      23.938  48.223  49.474  1.00  0.00     0.256 C 
HETATM    3  O   UNL     1      24.663  48.885  48.741  1.00  0.00    -0.267 OA
HETATM    4  H   UNL     1      22.088  47.538  50.046  1.00  0.00     0.169 HD
ENDROOT
BRANCH   1   5
HETATM    5  C   UNL     1      21.716  49.229  48.907  1.00  0.00     0.049 A 
HETATM    6  C   UNL     1      20.813  48.819  47.899  1.00  0.00     0.037 A 
HETATM    7  C   UNL     1      19.879  49.735  47.389  1.00  0.00     0.017 A 
HETATM    8  C   UNL     1      19.862  51.056  47.832  1.00  0.00     0.001 A 
HETATM    9  C   UNL     1      20.780  51.473  48.791  1.00  0.00     0.002 A 
HETATM   10  C   UNL     1      21.698  50.566  49.327  1.00  0.00     0.030 A 
BRANCH   6  11
HETATM   11  C   UNL     1      20.856  47.485  47.299  1.00  0.00     0.141 A 
HETATM   12  N   UNL     1      21.908  46.878  46.787  1.00  0.00    -0.228 NA
HETATM   13  C   UNL     1      21.466  45.644  46.373  1.00  0.00     0.086 A 
HETATM   14  C   UNL     1      20.114  45.484  46.648  1.00  0.00     0.062 A 
HETATM   15  C   UNL     1      22.167  44.601  45.752  1.00  0.00     0.034 A 
HETATM   16  N   UNL     1      19.757  46.654  47.263  1.00  0.00    -0.338 N 
HETATM   17  C   UNL     1      19.396  44.329  46.330  1.00  0.00     0.032 A 
HETATM   18  H   UNL     1      18.847  46.880  47.638  1.00  0.00     0.167 HD
HETATM   19  C   UNL     1      20.110  43.301  45.705  1.00  0.00     0.002 A 
HETATM   20  C   UNL     1      21.473  43.430  45.421  1.00  0.00     0.002 A 
ENDBRANCH   6  11
ENDBRANCH   1   5
BRANCH   2  21
HETATM   21  C   UNL     1      24.560  47.200  50.356  1.00  0.00     0.032 A 
HETATM   22  C   UNL     1      24.222  45.850  50.269  1.00  0.00     0.019 A 
HETATM   23  C   UNL     1      24.820  44.918  51.133  1.00  0.00     0.031 A 
HETATM   24  C   UNL     1      25.766  45.299  52.103  1.00  0.00     0.045 A 
HETATM   25  C   UNL     1      26.080  46.667  52.170  1.00  0.00     0.031 A 
HETATM   26  C   UNL     1      25.482  47.608  51.317  1.00  0.00     0.019 A 
BRANCH  24  27
HETATM   27  N   UNL     1      26.365  44.340  52.988  1.00  0.00    -0.252 N 
HETATM   28  C   UNL     1      25.815  43.925  54.184  1.00  0.00     0.231 C 
HETATM   29  O   UNL     1      24.722  44.179  54.672  1.00  0.00    -0.273 OA
HETATM   30  C   UNL     1      26.800  43.053  54.902  1.00  0.00     0.113 C 
HETATM   31  C   UNL     1      27.800  42.689  53.842  1.00  0.00     0.113 C 
HETATM   32  C   UNL     1      27.566  43.700  52.761  1.00  0.00     0.231 C 
HETATM   33  O   UNL     1      28.370  43.843  51.847  1.00  0.00    -0.273 OA
ENDBRANCH  24  27
ENDBRANCH   2  21
TORSDOF 4
ENDMDL
MODEL 8
REMARK VINA RESULT:      -9.5      2.945      7.431
REMARK  4 active torsions:
REMARK  status: ('A' for Active; 'I' for Inactive)
REMARK    1  A    between atoms: C_3  and  C_4 
REMARK    2  A    between atoms: C_14  and  N_15 
REMARK       I    between atoms: N_15  and  C_16 
REMARK    3  A    between atoms: C_16  and  C_17 
REMARK    4  A    between atoms: C_20  and  N_21 
ROOT
HETATM    1  N   UNL     1      28.052  44.084  53.109  1.00  0.00    -0.322 N 
HETATM    2  C   UNL     1      27.636  42.788  53.348  1.00  0.00     0.256 C 
HETATM    3  O   UNL     1      27.279  42.325  54.424  1.00  0.00    -0.267 OA
HETATM    4  H   UNL     1      28.489  44.273  52.213  1.00  0.00     0.169 HD
ENDROOT
BRANCH   1   5
HETATM    5  C   UNL     1      27.946  45.188  53.992  1.00  0.00     0.049 A 
HETATM    6  C   UNL     1      26.887  46.111  53.829  1.00  0.00     0.037 A 
HETATM    7  C   UNL     1      26.693  47.122  54.785  1.00  0.00     0.017 A 
HETATM    8  C   UNL     1      27.560  47.253  55.869  1.00  0.00     0.001 A 
HETATM    9  C   UNL     1      28.629  46.374  56.006  1.00  0.00     0.002 A 
HETATM   10  C   UNL     1      28.819  45.347  55.077  1.00  0.00     0.030 A 
BRANCH   6  11
HETATM   11  C   UNL     1      26.016  46.110  52.654  1.00  0.00     0.141 A 
HETATM   12  N   UNL     1      25.370  45.080  52.144  1.00  0.00    -0.228 NA
HETATM   13  C   UNL     1      24.666  45.570  51.071  1.00  0.00     0.086 A 
HETATM   14  C   UNL     1      24.873  46.936  50.924  1.00  0.00     0.062 A 
HETATM   15  C   UNL     1      23.823  44.905  50.170  1.00  0.00     0.034 A 
HETATM   16  N   UNL     1      25.709  47.260  51.959  1.00  0.00    -0.338 N 
HETATM   17  C   UNL     1      24.288  47.698  49.911  1.00  0.00     0.032 A 
HETATM   18  H   UNL     1      26.045  48.184  52.190  1.00  0.00     0.167 HD
HETATM   19  C   UNL     1      23.454  47.016  49.018  1.00  0.00     0.002 A 
HETATM   20  C   UNL     1      23.222  45.643  49.143  1.00  0.00     0.002 A 
ENDBRANCH   6  11
ENDBRANCH   1   5
BRANCH   2  21
HETATM   21  C   UNL     1      27.723  41.879  52.174  1.00  0.00     0.032 A 
HETATM   22  C   UNL     1      28.719  40.908  52.066  1.00  0.00     0.019 A 
HETATM   23  C   UNL     1      28.776  40.083  50.933  1.00  0.00     0.031 A 
HETATM   24  C   UNL     1      27.850  40.195  49.878  1.00  0.00     0.045 A 
HETATM   25  C   UNL     1      26.863  41.187  50.013  1.00  0.00     0.031 A 
HETATM   26  C   UNL     1      26.802  42.024  51.139  1.00  0.00     0.019 A 
BRANCH  24  27
HETATM   27  N   UNL     1      27.922  39.352  48.719  1.00  0.00    -0.252 N 
HETATM   28  C   UNL     1      27.733  37.985  48.729  1.00  0.00     0.231 C 
HETATM   29  O   UNL     1      27.381  37.251  49.643  1.00  0.00    -0.273 OA
HETATM   30  C   UNL     1      28.050  37.435  47.371  1.00  0.00     0.113 C 
HETATM   31  C   UNL     1      28.056  38.647  46.483  1.00  0.00     0.113 C 
HETATM   32  C   UNL     1      28.182  39.795  47.437  1.00  0.00     0.231 C 
HETATM   33  O   UNL     1      28.456  40.920  47.037  1.00  0.00    -0.273 OA
ENDBRANCH  24  27
ENDBRANCH   2  21
TORSDOF 4
ENDMDL
MODEL 9
REMARK VINA RESULT:      -9.5      2.649      7.652
REMARK  4 active torsions:
REMARK  status: ('A' for Active; 'I' for Inactive)
REMARK    1  A    between atoms: C_3  and  C_4 
REMARK    2  A    between atoms: C_14  and  N_15 
REMARK       I    between atoms: N_15  and  C_16 
REMARK    3  A    between atoms: C_16  and  C_17 
REMARK    4  A    between atoms: C_20  and  N_21 
ROOT
HETATM    1  N   UNL     1      27.285  44.793  52.335  1.00  0.00    -0.322 N 
HETATM    2  C   UNL     1      25.907  44.719  52.389  1.00  0.00     0.256 C 
HETATM    3  O   UNL     1      25.245  43.921  53.042  1.00  0.00    -0.267 OA
HETATM    4  H   UNL     1      27.690  45.382  51.616  1.00  0.00     0.169 HD
ENDROOT
BRANCH   1   5
HETATM    5  C   UNL     1      28.207  44.121  53.178  1.00  0.00     0.049 A 
HETATM    6  C   UNL     1      28.787  42.906  52.746  1.00  0.00     0.037 A 
HETATM    7  C   UNL     1      29.805  42.312  53.509  1.00  0.00     0.017 A 
HETATM    8  C   UNL     1      30.219  42.884  54.712  1.00  0.00     0.001 A 
HETATM    9  C   UNL     1      29.617  44.054  55.161  1.00  0.00     0.002 A 
HETATM   10  C   UNL     1      28.620  44.670  54.398  1.00  0.00     0.030 A 
BRANCH   6  11
HETATM   11  C   UNL     1      28.319  42.187  51.561  1.00  0.00     0.141 A 
HETATM   12  N   UNL     1      27.575  42.665  50.584  1.00  0.00    -0.228 NA
HETATM   13  C   UNL     1      27.418  41.633  49.690  1.00  0.00     0.086 A 
HETATM   14  C   UNL     1      28.092  40.498  50.121  1.00  0.00     0.062 A 
HETATM   15  C   UNL     1      26.710  41.592  48.480  1.00  0.00     0.034 A 
HETATM   16  N   UNL     1      28.680  40.884  51.295  1.00  0.00    -0.338 N 
HETATM   17  C   UNL     1      28.100  39.293  49.413  1.00  0.00     0.032 A 
HETATM   18  H   UNL     1      29.286  40.321  51.874  1.00  0.00     0.167 HD
HETATM   19  C   UNL     1      27.384  39.269  48.211  1.00  0.00     0.002 A 
HETATM   20  C   UNL     1      26.701  40.398  47.749  1.00  0.00     0.002 A 
ENDBRANCH   6  11
ENDBRANCH   1   5
BRANCH   2  21
HETATM   21  C   UNL     1      25.196  45.665  51.488  1.00  0.00     0.032 A 
HETATM   22  C   UNL     1      24.402  45.221  50.431  1.00  0.00     0.019 A 
HETATM   23  C   UNL     1      23.763  46.148  49.593  1.00  0.00     0.031 A 
HETATM   24  C   UNL     1      23.892  47.538  49.780  1.00  0.00     0.045 A 
HETATM   25  C   UNL     1      24.704  47.954  50.850  1.00  0.00     0.031 A 
HETATM   26  C   UNL     1      25.354  47.035  51.688  1.00  0.00     0.019 A 
BRANCH  24  27
HETATM   27  N   UNL     1      23.242  48.479  48.913  1.00  0.00    -0.252 N 
HETATM   28  C   UNL     1      23.890  49.467  48.200  1.00  0.00     0.231 C 
HETATM   29  O   UNL     1      25.088  49.681  48.072  1.00  0.00    -0.273 OA
HETATM   30  C   UNL     1      22.870  50.350  47.546  1.00  0.00     0.113 C 
HETATM   31  C   UNL     1      21.599  49.552  47.623  1.00  0.00     0.113 C 
HETATM   32  C   UNL     1      21.884  48.518  48.669  1.00  0.00     0.231 C 
HETATM   33  O   UNL     1      20.981  47.847  49.154  1.00  0.00    -0.273 OA
ENDBRANCH  24  27
ENDBRANCH   2  21
TORSDOF 4
ENDMDL
MODEL 10
REMARK VINA RESULT:      -9.4      2.199      3.319
REMARK  4 active torsions:
REMARK  status: ('A' for Active; 'I' for Inactive)
REMARK    1  A    between atoms: C_3  and  C_4 
REMARK    2  A    between atoms: C_14  and  N_15 
REMARK       I    between atoms: N_15  and  C_16 
REMARK    3  A    between atoms: C_16  and  C_17 
REMARK    4  A    between atoms: C_20  and  N_21 
ROOT
HETATM    1  N   UNL     1      25.136  43.748  49.666  1.00  0.00    -0.322 N 
HETATM    2  C   UNL     1      24.844  43.470  50.987  1.00  0.00     0.256 C 
HETATM    3  O   UNL     1      23.772  43.073  51.428  1.00  0.00    -0.267 OA
HETATM    4  H   UNL     1      26.002  44.239  49.475  1.00  0.00     0.169 HD
ENDROOT
BRANCH   1   5
HETATM    5  C   UNL     1      24.343  43.428  48.534  1.00  0.00     0.049 A 
HETATM    6  C   UNL     1      24.489  42.165  47.916  1.00  0.00     0.037 A 
HETATM    7  C   UNL     1      23.608  41.789  46.888  1.00  0.00     0.017 A 
HETATM    8  C   UNL     1      22.621  42.665  46.440  1.00  0.00     0.001 A 
HETATM    9  C   UNL     1      22.506  43.926  47.016  1.00  0.00     0.002 A 
HETATM   10  C   UNL     1      23.359  44.304  48.057  1.00  0.00     0.030 A 
BRANCH   6  11
HETATM   11  C   UNL     1      25.577  41.246  48.249  1.00  0.00     0.141 A 
HETATM   12  N   UNL     1      26.871  41.495  48.198  1.00  0.00    -0.228 NA
HETATM   13  C   UNL     1      27.492  40.346  48.625  1.00  0.00     0.086 A 
HETATM   14  C   UNL     1      26.560  39.373  48.960  1.00  0.00     0.062 A 
HETATM   15  C   UNL     1      28.859  40.060  48.756  1.00  0.00     0.034 A 
HETATM   16  N   UNL     1      25.351  39.978  48.742  1.00  0.00    -0.338 N 
HETATM   17  C   UNL     1      26.907  38.100  49.419  1.00  0.00     0.032 A 
HETATM   18  H   UNL     1      24.441  39.578  48.915  1.00  0.00     0.167 HD
HETATM   19  C   UNL     1      28.275  37.830  49.538  1.00  0.00     0.002 A 
HETATM   20  C   UNL     1      29.237  38.791  49.215  1.00  0.00     0.002 A 
ENDBRANCH   6  11
ENDBRANCH   1   5
BRANCH   2  21
HETATM   21  C   UNL     1      25.941  43.773  51.945  1.00  0.00     0.032 A 
HETATM   22  C   UNL     1      27.281  43.752  51.560  1.00  0.00     0.019 A 
HETATM   23  C   UNL     1      28.287  44.027  52.501  1.00  0.00     0.031 A 
HETATM   24  C   UNL     1      27.992  44.329  53.844  1.00  0.00     0.045 A 
HETATM   25  C   UNL     1      26.633  44.336  54.201  1.00  0.00     0.031 A 
HETATM   26  C   UNL     1      25.620  44.054  53.271  1.00  0.00     0.019 A 
BRANCH  24  27
HETATM   27  N   UNL     1      29.028  44.600  54.800  1.00  0.00    -0.252 N 
HETATM   28  C   UNL     1      30.061  43.737  55.104  1.00  0.00     0.231 C 
HETATM   29  O   UNL     1      30.366  42.670  54.587  1.00  0.00    -0.273 OA
HETATM   30  C   UNL     1      30.840  44.289  56.259  1.00  0.00     0.113 C 
HETATM   31  C   UNL     1      30.405  45.726  56.334  1.00  0.00     0.113 C 
HETATM   32  C   UNL     1      29.135  45.761  55.538  1.00  0.00     0.231 C 
HETATM   33  O   UNL     1      28.387  46.729  55.590  1.00  0.00    -0.273 OA
ENDBRANCH  24  27
ENDBRANCH   2  21
TORSDOF 4
ENDMDL
