MODEL 1
REMARK VINA RESULT:      -9.6      0.000      0.000
REMARK  5 active torsions:
REMARK  status: ('A' for Active; 'I' for Inactive)
REMARK    1  A    between atoms: C_2  and  C_3 
REMARK    2  A    between atoms: C_6  and  C_7 
REMARK    3  A    between atoms: C_7  and  N_8 
REMARK    4  A    between atoms: C_7  and  C_21 
REMARK       I    between atoms: N_8  and  C_9 
REMARK       I    between atoms: C_9  and  N_10 
REMARK    5  A    between atoms: N_10  and  N_11 
ROOT
HETATM    1  N   UNL     1      26.767  46.105  53.496  1.00  0.00    -0.333 N 
HETATM    2  C   UNL     1      26.076  46.861  52.602  1.00  0.00     0.335 C 
HETATM    3  N   UNL     1      26.149  46.460  51.304  1.00  0.00    -0.244 N 
HETATM    4  O   UNL     1      25.426  47.818  53.008  1.00  0.00    -0.246 OA
HETATM    5  H   UNL     1      26.702  46.467  54.438  1.00  0.00     0.165 HD
HETATM    6  H   UNL     1      27.033  46.107  50.968  1.00  0.00     0.192 HD
ENDROOT
BRANCH   1   7
HETATM    7  C   UNL     1      27.404  44.807  53.295  1.00  0.00     0.122 C 
BRANCH   7   8
HETATM    8  C   UNL     1      28.584  44.585  54.229  1.00  0.00    -0.035 A 
HETATM    9  C   UNL     1      28.874  45.444  55.299  1.00  0.00     0.010 A 
HETATM   10  C   UNL     1      29.933  45.170  56.170  1.00  0.00     0.007 A 
HETATM   11  C   UNL     1      30.728  44.032  55.994  1.00  0.00    -0.059 A 
HETATM   12  C   UNL     1      30.447  43.173  54.927  1.00  0.00     0.007 A 
HETATM   13  C   UNL     1      29.390  43.447  54.054  1.00  0.00     0.010 A 
BRANCH  11  14
HETATM   14  C   UNL     1      31.836  43.712  56.964  1.00  0.00     0.034 C 
HETATM   15  C   UNL     1      31.719  44.526  58.244  1.00  0.00     0.010 C 
ENDBRANCH  11  14
ENDBRANCH   7   8
BRANCH   7  16
HETATM   16  C   UNL     1      26.379  43.640  53.348  1.00  0.00     0.005 C 
HETATM   17  C   UNL     1      25.129  43.940  54.182  1.00  0.00     0.012 C 
HETATM   18  C   UNL     1      25.968  43.211  51.934  1.00  0.00     0.012 C 
ENDBRANCH   7  16
ENDBRANCH   1   7
BRANCH   3  19
HETATM   19  N   UNL     1      25.439  47.141  50.376  1.00  0.00    -0.244 N 
HETATM   20  C   UNL     1      25.944  48.190  49.662  1.00  0.00     0.086 A 
HETATM   21  C   UNL     1      24.829  48.669  48.974  1.00  0.00     0.086 A 
HETATM   22  C   UNL     1      27.218  48.758  49.546  1.00  0.00     0.034 A 
HETATM   23  C   UNL     1      24.980  49.766  48.113  1.00  0.00     0.034 A 
HETATM   24  N   UNL     1      23.696  47.948  49.288  1.00  0.00    -0.240 NA
HETATM   25  C   UNL     1      26.247  50.350  47.978  1.00  0.00     0.002 A 
HETATM   26  C   UNL     1      27.344  49.854  48.685  1.00  0.00     0.002 A 
HETATM   27  C   UNL     1      24.102  47.030  50.142  1.00  0.00     0.234 A 
ENDBRANCH   3  19
TORSDOF 5
ENDMDL
MODEL 2
REMARK VINA RESULT:      -8.9      3.429      7.345
REMARK  5 active torsions:
REMARK  status: ('A' for Active; 'I' for Inactive)
REMARK    1  A    between atoms: C_2  and  C_3 
REMARK    2  A    between atoms: C_6  and  C_7 
REMARK    3  A    between atoms: C_7  and  N_8 
REMARK    4  A    between atoms: C_7  and  C_21 
REMARK       I    between atoms: N_8  and  C_9 
REMARK       I    between atoms: C_9  and  N_10 
REMARK    5  A    between atoms: N_10  and  N_11 
ROOT
HETATM    1  N   UNL     1      26.598  42.936  52.715  1.00  0.00    -0.333 N 
HETATM    2  C   UNL     1      27.046  43.618  53.802  1.00  0.00     0.335 C 
HETATM    3  N   UNL     1      28.271  44.196  53.677  1.00  0.00    -0.244 N 
HETATM    4  O   UNL     1      26.331  43.691  54.795  1.00  0.00    -0.246 OA
HETATM    5  H   UNL     1      25.699  42.502  52.876  1.00  0.00     0.165 HD
HETATM    6  H   UNL     1      28.983  43.689  53.171  1.00  0.00     0.192 HD
ENDROOT
BRANCH   1   7
HETATM    7  C   UNL     1      27.148  42.909  51.363  1.00  0.00     0.122 C 
BRANCH   7   8
HETATM    8  C   UNL     1      27.760  41.562  51.007  1.00  0.00    -0.035 A 
HETATM    9  C   UNL     1      27.659  41.001  49.725  1.00  0.00     0.010 A 
HETATM   10  C   UNL     1      28.287  39.789  49.424  1.00  0.00     0.007 A 
HETATM   11  C   UNL     1      29.030  39.107  50.395  1.00  0.00    -0.059 A 
HETATM   12  C   UNL     1      29.131  39.659  51.676  1.00  0.00     0.007 A 
HETATM   13  C   UNL     1      28.502  40.870  51.979  1.00  0.00     0.010 A 
BRANCH  11  14
HETATM   14  C   UNL     1      29.749  37.828  50.054  1.00  0.00     0.034 C 
HETATM   15  C   UNL     1      29.856  36.902  51.257  1.00  0.00     0.010 C 
ENDBRANCH  11  14
ENDBRANCH   7   8
BRANCH   7  16
HETATM   16  C   UNL     1      26.116  43.390  50.304  1.00  0.00     0.005 C 
HETATM   17  C   UNL     1      24.683  43.508  50.835  1.00  0.00     0.012 C 
HETATM   18  C   UNL     1      26.551  44.723  49.684  1.00  0.00     0.012 C 
ENDBRANCH   7  16
ENDBRANCH   1   7
BRANCH   3  19
HETATM   19  N   UNL     1      28.747  44.933  54.707  1.00  0.00    -0.244 N 
HETATM   20  C   UNL     1      29.699  44.484  55.577  1.00  0.00     0.086 A 
HETATM   21  C   UNL     1      29.743  45.492  56.542  1.00  0.00     0.086 A 
HETATM   22  C   UNL     1      30.502  43.339  55.628  1.00  0.00     0.034 A 
HETATM   23  C   UNL     1      30.640  45.369  57.613  1.00  0.00     0.034 A 
HETATM   24  N   UNL     1      28.833  46.490  56.268  1.00  0.00    -0.240 NA
HETATM   25  C   UNL     1      31.458  44.233  57.684  1.00  0.00     0.002 A 
HETATM   26  C   UNL     1      31.386  43.236  56.708  1.00  0.00     0.002 A 
HETATM   27  C   UNL     1      28.244  46.119  55.149  1.00  0.00     0.234 A 
ENDBRANCH   3  19
TORSDOF 5
ENDMDL
MODEL 3
REMARK VINA RESULT:      -8.9      1.418      1.674
REMARK  5 active torsions:
REMARK  status: ('A' for Active; 'I' for Inactive)
REMARK    1  A    between atoms: C_2  and  C_3 
REMARK    2  A    between atoms: C_6  and  C_7 
REMARK    3  A    between atoms: C_7  and  N_8 
REMARK    4  A    between atoms: C_7  and  C_21 
REMARK       I    between atoms: N_8  and  C_9 
REMARK       I    between atoms: C_9  and  N_10 
REMARK    5  A    between atoms: N_10  and  N_11 
ROOT
HETATM    1  N   UNL     1      26.422  43.897  52.327  1.00  0.00    -0.333 N 
HETATM    2  C   UNL     1      25.632  44.806  51.696  1.00  0.00     0.335 C 
HETATM    3  N   UNL     1      26.279  45.712  50.914  1.00  0.00    -0.244 N 
HETATM    4  O   UNL     1      24.417  44.744  51.845  1.00  0.00    -0.246 OA
HETATM    5  H   UNL     1      25.891  43.270  52.918  1.00  0.00     0.165 HD
HETATM    6  H   UNL     1      27.163  46.073  51.241  1.00  0.00     0.192 HD
ENDROOT
BRANCH   1   7
HETATM    7  C   UNL     1      27.840  43.622  52.123  1.00  0.00     0.122 C 
BRANCH   7   8
HETATM    8  C   UNL     1      28.674  43.900  53.365  1.00  0.00    -0.035 A 
HETATM    9  C   UNL     1      28.323  44.877  54.309  1.00  0.00     0.010 A 
HETATM   10  C   UNL     1      29.084  45.059  55.467  1.00  0.00     0.007 A 
HETATM   11  C   UNL     1      30.216  44.272  55.710  1.00  0.00    -0.059 A 
HETATM   12  C   UNL     1      30.574  43.299  54.772  1.00  0.00     0.007 A 
HETATM   13  C   UNL     1      29.815  43.117  53.612  1.00  0.00     0.010 A 
BRANCH  11  14
HETATM   14  C   UNL     1      31.005  44.435  56.984  1.00  0.00     0.034 C 
HETATM   15  C   UNL     1      32.018  43.315  57.167  1.00  0.00     0.010 C 
ENDBRANCH  11  14
ENDBRANCH   7   8
BRANCH   7  16
HETATM   16  C   UNL     1      28.081  42.195  51.555  1.00  0.00     0.005 C 
HETATM   17  C   UNL     1      27.640  41.065  52.492  1.00  0.00     0.012 C 
HETATM   18  C   UNL     1      27.405  42.030  50.189  1.00  0.00     0.012 C 
ENDBRANCH   7  16
ENDBRANCH   1   7
BRANCH   3  19
HETATM   19  N   UNL     1      25.542  46.608  50.218  1.00  0.00    -0.244 N 
HETATM   20  C   UNL     1      26.064  47.739  49.658  1.00  0.00     0.086 A 
HETATM   21  C   UNL     1      24.932  48.419  49.206  1.00  0.00     0.086 A 
HETATM   22  C   UNL     1      27.365  48.230  49.502  1.00  0.00     0.034 A 
HETATM   23  C   UNL     1      25.093  49.649  48.553  1.00  0.00     0.034 A 
HETATM   24  N   UNL     1      23.777  47.729  49.510  1.00  0.00    -0.240 NA
HETATM   25  C   UNL     1      26.386  50.161  48.382  1.00  0.00     0.002 A 
HETATM   26  C   UNL     1      27.501  49.462  48.851  1.00  0.00     0.002 A 
HETATM   27  C   UNL     1      24.184  46.637  50.125  1.00  0.00     0.234 A 
ENDBRANCH   3  19
TORSDOF 5
ENDMDL
MODEL 4
REMARK VINA RESULT:      -8.7      3.700      5.968
REMARK  5 active torsions:
REMARK  status: ('A' for Active; 'I' for Inactive)
REMARK    1  A    between atoms: C_2  and  C_3 
REMARK    2  A    between atoms: C_6  and  C_7 
REMARK    3  A    between atoms: C_7  and  N_8 
REMARK    4  A    between atoms: C_7  and  C_21 
REMARK       I    between atoms: N_8  and  C_9 
REMARK       I    between atoms: C_9  and  N_10 
REMARK    5  A    between atoms: N_10  and  N_11 
ROOT
HETATM    1  N   UNL     1      27.396  44.164  51.718  1.00  0.00    -0.333 N 
HETATM    2  C   UNL     1      27.160  43.278  50.715  1.00  0.00     0.335 C 
HETATM    3  N   UNL     1      26.742  42.042  51.102  1.00  0.00    -0.244 N 
HETATM    4  O   UNL     1      27.310  43.639  49.553  1.00  0.00    -0.246 OA
HETATM    5  H   UNL     1      27.734  45.054  51.374  1.00  0.00     0.165 HD
HETATM    6  H   UNL     1      27.153  41.643  51.933  1.00  0.00     0.192 HD
ENDROOT
BRANCH   1   7
HETATM    7  C   UNL     1      27.066  44.049  53.136  1.00  0.00     0.122 C 
BRANCH   7   8
HETATM    8  C   UNL     1      28.303  44.008  54.022  1.00  0.00    -0.035 A 
HETATM    9  C   UNL     1      28.628  45.041  54.914  1.00  0.00     0.010 A 
HETATM   10  C   UNL     1      29.741  44.937  55.753  1.00  0.00     0.007 A 
HETATM   11  C   UNL     1      30.557  43.800  55.722  1.00  0.00    -0.059 A 
HETATM   12  C   UNL     1      30.240  42.768  54.832  1.00  0.00     0.007 A 
HETATM   13  C   UNL     1      29.129  42.872  53.991  1.00  0.00     0.010 A 
BRANCH  11  14
HETATM   14  C   UNL     1      31.725  43.667  56.664  1.00  0.00     0.034 C 
HETATM   15  C   UNL     1      31.473  44.384  57.982  1.00  0.00     0.010 C 
ENDBRANCH  11  14
ENDBRANCH   7   8
BRANCH   7  16
HETATM   16  C   UNL     1      26.049  45.134  53.587  1.00  0.00     0.005 C 
HETATM   17  C   UNL     1      25.417  45.920  52.433  1.00  0.00     0.012 C 
HETATM   18  C   UNL     1      24.949  44.521  54.461  1.00  0.00     0.012 C 
ENDBRANCH   7  16
ENDBRANCH   1   7
BRANCH   3  19
HETATM   19  N   UNL     1      26.440  41.133  50.146  1.00  0.00    -0.244 N 
HETATM   20  C   UNL     1      27.300  40.153  49.740  1.00  0.00     0.086 A 
HETATM   21  C   UNL     1      26.639  39.585  48.651  1.00  0.00     0.086 A 
HETATM   22  C   UNL     1      28.550  39.714  50.191  1.00  0.00     0.034 A 
HETATM   23  C   UNL     1      27.239  38.514  47.973  1.00  0.00     0.034 A 
HETATM   24  N   UNL     1      25.440  40.221  48.403  1.00  0.00    -0.240 NA
HETATM   25  C   UNL     1      28.490  38.054  48.408  1.00  0.00     0.002 A 
HETATM   26  C   UNL     1      29.132  38.648  49.497  1.00  0.00     0.002 A 
HETATM   27  C   UNL     1      25.352  41.156  49.327  1.00  0.00     0.234 A 
ENDBRANCH   3  19
TORSDOF 5
ENDMDL
MODEL 5
REMARK VINA RESULT:      -8.4      2.038      7.259
REMARK  5 active torsions:
REMARK  status: ('A' for Active; 'I' for Inactive)
REMARK    1  A    between atoms: C_2  and  C_3 
REMARK    2  A    between atoms: C_6  and  C_7 
REMARK    3  A    between atoms: C_7  and  N_8 
REMARK    4  A    between atoms: C_7  and  C_21 
REMARK       I    between atoms: N_8  and  C_9 
REMARK       I    between atoms: C_9  and  N_10 
REMARK    5  A    between atoms: N_10  and  N_11 
ROOT
HETATM    1  N   UNL     1      25.358  43.445  52.490  1.00  0.00    -0.333 N 
HETATM    2  C   UNL     1      26.054  44.025  53.503  1.00  0.00     0.335 C 
HETATM    3  N   UNL     1      27.210  44.649  53.147  1.00  0.00    -0.244 N 
HETATM    4  O   UNL     1      25.602  43.975  54.641  1.00  0.00    -0.246 OA
HETATM    5  H   UNL     1      24.526  42.970  52.816  1.00  0.00     0.165 HD
HETATM    6  H   UNL     1      27.779  44.218  52.433  1.00  0.00     0.192 HD
ENDROOT
BRANCH   1   7
HETATM    7  C   UNL     1      25.562  43.573  51.050  1.00  0.00     0.122 C 
BRANCH   7   8
HETATM    8  C   UNL     1      25.645  45.023  50.598  1.00  0.00    -0.035 A 
HETATM    9  C   UNL     1      26.813  45.583  50.060  1.00  0.00     0.010 A 
HETATM   10  C   UNL     1      26.829  46.903  49.602  1.00  0.00     0.007 A 
HETATM   11  C   UNL     1      25.679  47.698  49.670  1.00  0.00    -0.059 A 
HETATM   12  C   UNL     1      24.511  47.148  50.208  1.00  0.00     0.007 A 
HETATM   13  C   UNL     1      24.495  45.828  50.669  1.00  0.00     0.010 A 
BRANCH  11  14
HETATM   14  C   UNL     1      25.684  49.103  49.127  1.00  0.00     0.034 C 
HETATM   15  C   UNL     1      27.068  49.522  48.655  1.00  0.00     0.010 C 
ENDBRANCH  11  14
ENDBRANCH   7   8
BRANCH   7  16
HETATM   16  C   UNL     1      26.769  42.728  50.555  1.00  0.00     0.005 C 
HETATM   17  C   UNL     1      26.998  41.437  51.348  1.00  0.00     0.012 C 
HETATM   18  C   UNL     1      26.633  42.403  49.063  1.00  0.00     0.012 C 
ENDBRANCH   7  16
ENDBRANCH   1   7
BRANCH   3  19
HETATM   19  N   UNL     1      27.919  45.291  54.104  1.00  0.00    -0.244 N 
HETATM   20  C   UNL     1      28.963  44.722  54.776  1.00  0.00     0.086 A 
HETATM   21  C   UNL     1      29.262  45.672  55.754  1.00  0.00     0.086 A 
HETATM   22  C   UNL     1      29.658  43.516  54.642  1.00  0.00     0.034 A 
HETATM   23  C   UNL     1      30.316  45.422  56.645  1.00  0.00     0.034 A 
HETATM   24  N   UNL     1      28.410  46.754  55.682  1.00  0.00    -0.240 NA
HETATM   25  C   UNL     1      31.030  44.221  56.529  1.00  0.00     0.002 A 
HETATM   26  C   UNL     1      30.703  43.286  55.545  1.00  0.00     0.002 A 
HETATM   27  C   UNL     1      27.607  46.489  54.671  1.00  0.00     0.234 A 
ENDBRANCH   3  19
TORSDOF 5
ENDMDL
MODEL 6
REMARK VINA RESULT:      -8.4      2.207      3.309
REMARK  5 active torsions:
REMARK  status: ('A' for Active; 'I' for Inactive)
REMARK    1  A    between atoms: C_2  and  C_3 
REMARK    2  A    between atoms: C_6  and  C_7 
REMARK    3  A    between atoms: C_7  and  N_8 
REMARK    4  A    between atoms: C_7  and  C_21 
REMARK       I    between atoms: N_8  and  C_9 
REMARK       I    between atoms: C_9  and  N_10 
REMARK    5  A    between atoms: N_10  and  N_11 
ROOT
HETATM    1  N   UNL     1      25.961  43.080  52.162  1.00  0.00    -0.333 N 
HETATM    2  C   UNL     1      25.119  44.065  51.752  1.00  0.00     0.335 C 
HETATM    3  N   UNL     1      25.682  45.056  51.009  1.00  0.00    -0.244 N 
HETATM    4  O   UNL     1      23.931  43.994  52.046  1.00  0.00    -0.246 OA
HETATM    5  H   UNL     1      25.494  42.389  52.735  1.00  0.00     0.165 HD
HETATM    6  H   UNL     1      26.609  45.367  51.263  1.00  0.00     0.192 HD
ENDROOT
BRANCH   1   7
HETATM    7  C   UNL     1      27.336  42.822  51.747  1.00  0.00     0.122 C 
BRANCH   7   8
HETATM    8  C   UNL     1      28.342  43.093  52.856  1.00  0.00    -0.035 A 
HETATM    9  C   UNL     1      29.621  42.517  52.875  1.00  0.00     0.010 A 
HETATM   10  C   UNL     1      30.536  42.840  53.881  1.00  0.00     0.007 A 
HETATM   11  C   UNL     1      30.197  43.744  54.894  1.00  0.00    -0.059 A 
HETATM   12  C   UNL     1      28.922  44.319  54.884  1.00  0.00     0.007 A 
HETATM   13  C   UNL     1      28.005  43.995  53.879  1.00  0.00     0.010 A 
BRANCH  11  14
HETATM   14  C   UNL     1      31.202  44.131  55.947  1.00  0.00     0.034 C 
HETATM   15  C   UNL     1      31.349  43.052  57.011  1.00  0.00     0.010 C 
ENDBRANCH  11  14
ENDBRANCH   7   8
BRANCH   7  16
HETATM   16  C   UNL     1      27.502  41.405  51.130  1.00  0.00     0.005 C 
HETATM   17  C   UNL     1      26.200  40.601  51.047  1.00  0.00     0.012 C 
HETATM   18  C   UNL     1      28.151  41.486  49.743  1.00  0.00     0.012 C 
ENDBRANCH   7  16
ENDBRANCH   1   7
BRANCH   3  19
HETATM   19  N   UNL     1      24.885  46.036  50.527  1.00  0.00    -0.244 N 
HETATM   20  C   UNL     1      24.029  45.862  49.477  1.00  0.00     0.086 A 
HETATM   21  C   UNL     1      23.560  47.153  49.235  1.00  0.00     0.086 A 
HETATM   22  C   UNL     1      23.627  44.749  48.730  1.00  0.00     0.034 A 
HETATM   23  C   UNL     1      22.630  47.358  48.205  1.00  0.00     0.034 A 
HETATM   24  N   UNL     1      24.135  48.066  50.094  1.00  0.00    -0.240 NA
HETATM   25  C   UNL     1      22.209  46.258  47.445  1.00  0.00     0.002 A 
HETATM   26  C   UNL     1      22.702  44.977  47.705  1.00  0.00     0.002 A 
HETATM   27  C   UNL     1      24.934  47.355  50.863  1.00  0.00     0.234 A 
ENDBRANCH   3  19
TORSDOF 5
ENDMDL
MODEL 7
REMARK VINA RESULT:      -8.2      3.924      6.561
REMARK  5 active torsions:
REMARK  status: ('A' for Active; 'I' for Inactive)
REMARK    1  A    between atoms: C_2  and  C_3 
REMARK    2  A    between atoms: C_6  and  C_7 
REMARK    3  A    between atoms: C_7  and  N_8 
REMARK    4  A    between atoms: C_7  and  C_21 
REMARK       I    between atoms: N_8  and  C_9 
REMARK       I    between atoms: C_9  and  N_10 
REMARK    5  A    between atoms: N_10  and  N_11 
ROOT
HETATM    1  N   UNL     1      23.610  47.800  48.501  1.00  0.00    -0.333 N 
HETATM    2  C   UNL     1      22.274  48.000  48.353  1.00  0.00     0.335 C 
HETATM    3  N   UNL     1      21.621  48.479  49.447  1.00  0.00    -0.244 N 
HETATM    4  O   UNL     1      21.754  47.768  47.268  1.00  0.00    -0.246 OA
HETATM    5  H   UNL     1      24.037  47.416  47.669  1.00  0.00     0.165 HD
HETATM    6  H   UNL     1      21.900  48.132  50.353  1.00  0.00     0.192 HD
ENDROOT
BRANCH   1   7
HETATM    7  C   UNL     1      24.482  48.221  49.595  1.00  0.00     0.122 C 
BRANCH   7   8
HETATM    8  C   UNL     1      25.162  47.047  50.284  1.00  0.00    -0.035 A 
HETATM    9  C   UNL     1      25.532  45.879  49.600  1.00  0.00     0.010 A 
HETATM   10  C   UNL     1      26.209  44.849  50.259  1.00  0.00     0.007 A 
HETATM   11  C   UNL     1      26.532  44.958  51.616  1.00  0.00    -0.059 A 
HETATM   12  C   UNL     1      26.162  46.118  52.305  1.00  0.00     0.007 A 
HETATM   13  C   UNL     1      25.483  47.148  51.648  1.00  0.00     0.010 A 
BRANCH  11  14
HETATM   14  C   UNL     1      27.307  43.869  52.312  1.00  0.00     0.034 C 
HETATM   15  C   UNL     1      27.737  44.287  53.711  1.00  0.00     0.010 C 
ENDBRANCH  11  14
ENDBRANCH   7   8
BRANCH   7  16
HETATM   16  C   UNL     1      25.494  49.312  49.147  1.00  0.00     0.005 C 
HETATM   17  C   UNL     1      26.920  48.794  48.931  1.00  0.00     0.012 C 
HETATM   18  C   UNL     1      25.004  50.024  47.880  1.00  0.00     0.012 C 
ENDBRANCH   7  16
ENDBRANCH   1   7
BRANCH   3  19
HETATM   19  N   UNL     1      20.299  48.748  49.344  1.00  0.00    -0.244 N 
HETATM   20  C   UNL     1      19.804  49.993  49.080  1.00  0.00     0.086 A 
HETATM   21  C   UNL     1      18.428  49.824  49.236  1.00  0.00     0.086 A 
HETATM   22  C   UNL     1      20.390  51.216  48.733  1.00  0.00     0.034 A 
HETATM   23  C   UNL     1      17.579  50.921  49.027  1.00  0.00     0.034 A 
HETATM   24  N   UNL     1      18.119  48.531  49.604  1.00  0.00    -0.240 NA
HETATM   25  C   UNL     1      18.142  52.155  48.675  1.00  0.00     0.002 A 
HETATM   26  C   UNL     1      19.525  52.297  48.534  1.00  0.00     0.002 A 
HETATM   27  C   UNL     1      19.277  47.907  49.663  1.00  0.00     0.234 A 
ENDBRANCH   3  19
TORSDOF 5
ENDMDL
MODEL 8
REMARK VINA RESULT:      -8.2      2.611      3.490
REMARK  5 active torsions:
REMARK  status: ('A' for Active; 'I' for Inactive)
REMARK    1  A    between atoms: C_2  and  C_3 
REMARK    2  A    between atoms: C_6  and  C_7 
REMARK    3  A    between atoms: C_7  and  N_8 
REMARK    4  A    between atoms: C_7  and  C_21 
REMARK       I    between atoms: N_8  and  C_9 
REMARK       I    between atoms: C_9  and  N_10 
REMARK    5  A    between atoms: N_10  and  N_11 
ROOT
HETATM    1  N   UNL     1      25.607  42.730  51.517  1.00  0.00    -0.333 N 
HETATM    2  C   UNL     1      24.635  43.317  50.769  1.00  0.00     0.335 C 
HETATM    3  N   UNL     1      25.066  44.062  49.715  1.00  0.00    -0.244 N 
HETATM    4  O   UNL     1      23.461  43.129  51.065  1.00  0.00    -0.246 OA
HETATM    5  H   UNL     1      25.231  42.217  52.303  1.00  0.00     0.165 HD
HETATM    6  H   UNL     1      25.900  44.617  49.839  1.00  0.00     0.192 HD
ENDROOT
BRANCH   1   7
HETATM    7  C   UNL     1      27.034  42.611  51.231  1.00  0.00     0.122 C 
BRANCH   7   8
HETATM    8  C   UNL     1      27.903  43.123  52.370  1.00  0.00    -0.035 A 
HETATM    9  C   UNL     1      27.559  44.246  53.137  1.00  0.00     0.010 A 
HETATM   10  C   UNL     1      28.356  44.648  54.213  1.00  0.00     0.007 A 
HETATM   11  C   UNL     1      29.515  43.939  54.549  1.00  0.00    -0.059 A 
HETATM   12  C   UNL     1      29.865  42.821  53.787  1.00  0.00     0.007 A 
HETATM   13  C   UNL     1      29.071  42.419  52.708  1.00  0.00     0.010 A 
BRANCH  11  14
HETATM   14  C   UNL     1      30.344  44.343  55.741  1.00  0.00     0.034 C 
HETATM   15  C   UNL     1      31.157  43.177  56.284  1.00  0.00     0.010 C 
ENDBRANCH  11  14
ENDBRANCH   7   8
BRANCH   7  16
HETATM   16  C   UNL     1      27.422  41.172  50.790  1.00  0.00     0.005 C 
HETATM   17  C   UNL     1      26.282  40.153  50.905  1.00  0.00     0.012 C 
HETATM   18  C   UNL     1      27.978  41.170  49.362  1.00  0.00     0.012 C 
ENDBRANCH   7  16
ENDBRANCH   1   7
BRANCH   3  19
HETATM   19  N   UNL     1      24.144  44.627  48.903  1.00  0.00    -0.244 N 
HETATM   20  C   UNL     1      23.737  45.926  49.015  1.00  0.00     0.086 A 
HETATM   21  C   UNL     1      22.683  46.005  48.104  1.00  0.00     0.086 A 
HETATM   22  C   UNL     1      24.160  47.010  49.793  1.00  0.00     0.034 A 
HETATM   23  C   UNL     1      22.015  47.228  47.941  1.00  0.00     0.034 A 
HETATM   24  N   UNL     1      22.456  44.791  47.491  1.00  0.00    -0.240 NA
HETATM   25  C   UNL     1      22.423  48.329  48.706  1.00  0.00     0.002 A 
HETATM   26  C   UNL     1      23.476  48.218  49.617  1.00  0.00     0.002 A 
HETATM   27  C   UNL     1      23.358  43.977  48.000  1.00  0.00     0.234 A 
ENDBRANCH   3  19
TORSDOF 5
ENDMDL
MODEL 9
REMARK VINA RESULT:      -7.8     10.644     14.277
REMARK  5 active torsions:
REMARK  status: ('A' for Active; 'I' for Inactive)
REMARK    1  A    between atoms: C_2  and  C_3 
REMARK    2  A    between atoms: C_6  and  C_7 
REMARK    3  A    between atoms: C_7  and  N_8 
REMARK    4  A    between atoms: C_7  and  C_21 
REMARK       I    between atoms: N_8  and  C_9 
REMARK       I    between atoms: C_9  and  N_10 
REMARK    5  A    between atoms: N_10  and  N_11 
ROOT
HETATM    1  N   UNL     1      15.498  52.283  49.693  1.00  0.00    -0.333 N 
HETATM    2  C   UNL     1      14.646  53.160  50.286  1.00  0.00     0.335 C 
HETATM    3  N   UNL     1      14.843  54.473  49.988  1.00  0.00    -0.244 N 
HETATM    4  O   UNL     1      13.760  52.728  51.016  1.00  0.00    -0.246 OA
HETATM    5  H   UNL     1      15.325  51.327  49.975  1.00  0.00     0.165 HD
HETATM    6  H   UNL     1      15.795  54.799  49.900  1.00  0.00     0.192 HD
ENDROOT
BRANCH   1   7
HETATM    7  C   UNL     1      16.460  52.525  48.622  1.00  0.00     0.122 C 
BRANCH   7   8
HETATM    8  C   UNL     1      17.859  52.041  48.971  1.00  0.00    -0.035 A 
HETATM    9  C   UNL     1      18.112  51.163  50.036  1.00  0.00     0.010 A 
HETATM   10  C   UNL     1      19.405  50.696  50.286  1.00  0.00     0.007 A 
HETATM   11  C   UNL     1      20.478  51.094  49.480  1.00  0.00    -0.059 A 
HETATM   12  C   UNL     1      20.234  51.971  48.419  1.00  0.00     0.007 A 
HETATM   13  C   UNL     1      18.941  52.442  48.170  1.00  0.00     0.010 A 
BRANCH  11  14
HETATM   14  C   UNL     1      21.862  50.548  49.719  1.00  0.00     0.034 C 
HETATM   15  C   UNL     1      22.858  51.066  48.692  1.00  0.00     0.010 C 
ENDBRANCH  11  14
ENDBRANCH   7   8
BRANCH   7  16
HETATM   16  C   UNL     1      15.964  51.970  47.257  1.00  0.00     0.005 C 
HETATM   17  C   UNL     1      15.443  50.530  47.319  1.00  0.00     0.012 C 
HETATM   18  C   UNL     1      14.891  52.884  46.653  1.00  0.00     0.012 C 
ENDBRANCH   7  16
ENDBRANCH   1   7
BRANCH   3  19
HETATM   19  N   UNL     1      13.993  55.388  50.506  1.00  0.00    -0.244 N 
HETATM   20  C   UNL     1      14.192  56.004  51.709  1.00  0.00     0.086 A 
HETATM   21  C   UNL     1      13.005  56.714  51.899  1.00  0.00     0.086 A 
HETATM   22  C   UNL     1      15.247  56.017  52.628  1.00  0.00     0.034 A 
HETATM   23  C   UNL     1      12.855  57.491  53.057  1.00  0.00     0.034 A 
HETATM   24  N   UNL     1      12.124  56.507  50.859  1.00  0.00    -0.240 NA
HETATM   25  C   UNL     1      13.900  57.523  53.991  1.00  0.00     0.002 A 
HETATM   26  C   UNL     1      15.073  56.796  53.778  1.00  0.00     0.002 A 
HETATM   27  C   UNL     1      12.754  55.697  50.033  1.00  0.00     0.234 A 
ENDBRANCH   3  19
TORSDOF 5
ENDMDL
MODEL 10
REMARK VINA RESULT:      -7.4      5.252     10.464
REMARK  5 active torsions:
REMARK  status: ('A' for Active; 'I' for Inactive)
REMARK    1  A    between atoms: C_2  and  C_3 
REMARK    2  A    between atoms: C_6  and  C_7 
REMARK    3  A    between atoms: C_7  and  N_8 
REMARK    4  A    between atoms: C_7  and  C_21 
REMARK       I    between atoms: N_8  and  C_9 
REMARK       I    between atoms: C_9  and  N_10 
REMARK    5  A    between atoms: N_10  and  N_11 
ROOT
HETATM    1  N   UNL     1      21.340  49.115  48.261  1.00  0.00    -0.333 N 
HETATM    2  C   UNL     1      22.593  48.623  48.448  1.00  0.00     0.335 C 
HETATM    3  N   UNL     1      22.735  47.731  49.466  1.00  0.00    -0.244 N 
HETATM    4  O   UNL     1      23.493  48.982  47.697  1.00  0.00    -0.246 OA
HETATM    5  H   UNL     1      21.302  49.796  47.513  1.00  0.00     0.165 HD
HETATM    6  H   UNL     1      22.212  47.895  50.314  1.00  0.00     0.192 HD
ENDROOT
BRANCH   1   7
HETATM    7  C   UNL     1      20.085  48.670  48.857  1.00  0.00     0.122 C 
BRANCH   7   8
HETATM    8  C   UNL     1      19.144  49.824  49.170  1.00  0.00    -0.035 A 
HETATM    9  C   UNL     1      19.591  51.037  49.714  1.00  0.00     0.010 A 
HETATM   10  C   UNL     1      18.701  52.094  49.931  1.00  0.00     0.007 A 
HETATM   11  C   UNL     1      17.345  51.965  49.610  1.00  0.00    -0.059 A 
HETATM   12  C   UNL     1      16.893  50.758  49.070  1.00  0.00     0.007 A 
HETATM   13  C   UNL     1      17.780  49.699  48.855  1.00  0.00     0.010 A 
BRANCH  11  14
HETATM   14  C   UNL     1      16.399  53.123  49.795  1.00  0.00     0.034 C 
HETATM   15  C   UNL     1      14.965  52.654  49.994  1.00  0.00     0.010 C 
ENDBRANCH  11  14
ENDBRANCH   7   8
BRANCH   7  16
HETATM   16  C   UNL     1      19.400  47.559  48.012  1.00  0.00     0.005 C 
HETATM   17  C   UNL     1      19.737  47.612  46.517  1.00  0.00     0.012 C 
HETATM   18  C   UNL     1      19.728  46.169  48.569  1.00  0.00     0.012 C 
ENDBRANCH   7  16
ENDBRANCH   1   7
BRANCH   3  19
HETATM   19  N   UNL     1      23.947  47.166  49.667  1.00  0.00    -0.244 N 
HETATM   20  C   UNL     1      24.227  45.862  49.373  1.00  0.00     0.086 A 
HETATM   21  C   UNL     1      25.510  45.690  49.894  1.00  0.00     0.086 A 
HETATM   22  C   UNL     1      23.520  44.840  48.729  1.00  0.00     0.034 A 
HETATM   23  C   UNL     1      26.138  44.443  49.763  1.00  0.00     0.034 A 
HETATM   24  N   UNL     1      25.966  46.843  50.498  1.00  0.00    -0.240 NA
HETATM   25  C   UNL     1      25.451  43.405  49.118  1.00  0.00     0.002 A 
HETATM   26  C   UNL     1      24.164  43.603  48.613  1.00  0.00     0.002 A 
HETATM   27  C   UNL     1      24.992  47.717  50.344  1.00  0.00     0.234 A 
ENDBRANCH   3  19
TORSDOF 5
ENDMDL
