MODEL 1
REMARK VINA RESULT:      -9.0      0.000      0.000
REMARK  5 active torsions:
REMARK  status: ('A' for Active; 'I' for Inactive)
REMARK    1  A    between atoms: C_2  and  C_3 
REMARK    2  A    between atoms: C_2  and  C_19 
REMARK       I    between atoms: C_3  and  N_4 
REMARK    3  A    between atoms: N_4  and  C_5 
REMARK    4  A    between atoms: C_8  and  O_9 
REMARK    5  A    between atoms: O_9  and  C_10 
ROOT
HETATM    1  C   UNL     1      27.551  43.594  53.126  1.00  0.00     0.234 C 
HETATM    2  N   UNL     1      27.659  44.279  51.925  1.00  0.00    -0.325 N 
HETATM    3  O   UNL     1      26.496  43.402  53.725  1.00  0.00    -0.272 OA
HETATM    4  H   UNL     1      28.582  44.343  51.512  1.00  0.00     0.169 HD
ENDROOT
BRANCH   2   5
HETATM    5  C   UNL     1      26.624  44.962  51.252  1.00  0.00     0.052 A 
HETATM    6  C   UNL     1      26.125  44.631  49.995  1.00  0.00     0.149 A 
HETATM    7  N   UNL     1      25.088  45.269  49.392  1.00  0.00    -0.235 NA
HETATM    8  C   UNL     1      24.499  46.266  50.081  1.00  0.00     0.169 A 
HETATM    9  C   UNL     1      24.949  46.702  51.318  1.00  0.00     0.060 A 
HETATM   10  C   UNL     1      26.028  46.042  51.906  1.00  0.00     0.035 A 
BRANCH   8  11
HETATM   11  O   UNL     1      23.423  46.960  49.546  1.00  0.00    -0.291 OA
BRANCH  11  12
HETATM   12  C   UNL     1      23.576  48.259  49.133  1.00  0.00     0.095 A 
HETATM   13  C   UNL     1      22.419  49.026  49.064  1.00  0.00     0.153 A 
HETATM   14  N   UNL     1      22.370  50.308  48.625  1.00  0.00    -0.270 NA
HETATM   15  C   UNL     1      23.542  50.853  48.236  1.00  0.00     0.116 A 
HETATM   16  C   UNL     1      24.747  50.170  48.248  1.00  0.00     0.022 A 
HETATM   17  C   UNL     1      24.758  48.847  48.689  1.00  0.00     0.040 A 
ENDBRANCH  11  12
ENDBRANCH   8  11
ENDBRANCH   2   5
BRANCH   1  18
HETATM   18  C   UNL     1      28.913  43.090  53.692  1.00  0.00     0.061 C 
HETATM   19  C   UNL     1      28.737  41.605  54.088  1.00  0.00     0.030 C 
HETATM   20  C   UNL     1      29.975  43.123  52.568  1.00  0.00     0.030 C 
BRANCH  18  21
HETATM   21  C   UNL     1      29.392  44.002  54.836  1.00  0.00    -0.041 A 
HETATM   22  C   UNL     1      30.520  43.623  55.596  1.00  0.00     0.011 A 
HETATM   23  C   UNL     1      30.968  44.401  56.665  1.00  0.00     0.043 A 
HETATM   24  C   UNL     1      30.296  45.570  56.987  1.00  0.00     0.116 A 
HETATM   25  F   UNL     1      30.719  46.316  58.016  1.00  0.00    -0.206 F 
HETATM   26  C   UNL     1      29.186  45.973  56.258  1.00  0.00     0.043 A 
HETATM   27  C   UNL     1      28.733  45.193  55.190  1.00  0.00     0.011 A 
ENDBRANCH  18  21
ENDBRANCH   1  18
TORSDOF 5
ENDMDL
MODEL 2
REMARK VINA RESULT:      -8.7      4.306      6.651
REMARK  5 active torsions:
REMARK  status: ('A' for Active; 'I' for Inactive)
REMARK    1  A    between atoms: C_2  and  C_3 
REMARK    2  A    between atoms: C_2  and  C_19 
REMARK       I    between atoms: C_3  and  N_4 
REMARK    3  A    between atoms: N_4  and  C_5 
REMARK    4  A    between atoms: C_8  and  O_9 
REMARK    5  A    between atoms: O_9  and  C_10 
ROOT
HETATM    1  C   UNL     1      27.466  43.686  52.565  1.00  0.00     0.234 C 
HETATM    2  N   UNL     1      26.928  42.407  52.562  1.00  0.00    -0.325 N 
HETATM    3  O   UNL     1      28.018  44.211  51.602  1.00  0.00    -0.272 OA
HETATM    4  H   UNL     1      26.468  42.098  53.410  1.00  0.00     0.169 HD
ENDROOT
BRANCH   2   5
HETATM    5  C   UNL     1      27.020  41.461  51.521  1.00  0.00     0.052 A 
HETATM    6  C   UNL     1      26.015  41.178  50.598  1.00  0.00     0.149 A 
HETATM    7  N   UNL     1      26.148  40.302  49.567  1.00  0.00    -0.235 NA
HETATM    8  C   UNL     1      27.345  39.699  49.429  1.00  0.00     0.169 A 
HETATM    9  C   UNL     1      28.393  39.876  50.319  1.00  0.00     0.060 A 
HETATM   10  C   UNL     1      28.223  40.766  51.380  1.00  0.00     0.035 A 
BRANCH   8  11
HETATM   11  O   UNL     1      27.572  38.801  48.394  1.00  0.00    -0.291 OA
BRANCH  11  12
HETATM   12  C   UNL     1      27.797  39.259  47.121  1.00  0.00     0.095 A 
HETATM   13  C   UNL     1      27.910  38.292  46.128  1.00  0.00     0.153 A 
HETATM   14  N   UNL     1      28.188  38.554  44.826  1.00  0.00    -0.270 NA
HETATM   15  C   UNL     1      28.361  39.852  44.501  1.00  0.00     0.116 A 
HETATM   16  C   UNL     1      28.289  40.890  45.416  1.00  0.00     0.022 A 
HETATM   17  C   UNL     1      28.019  40.583  46.750  1.00  0.00     0.040 A 
ENDBRANCH  11  12
ENDBRANCH   8  11
ENDBRANCH   2   5
BRANCH   1  18
HETATM   18  C   UNL     1      27.336  44.424  53.931  1.00  0.00     0.061 C 
HETATM   19  C   UNL     1      26.870  45.871  53.642  1.00  0.00     0.030 C 
HETATM   20  C   UNL     1      26.215  43.760  54.765  1.00  0.00     0.030 C 
BRANCH  18  21
HETATM   21  C   UNL     1      28.651  44.325  54.725  1.00  0.00    -0.041 A 
HETATM   22  C   UNL     1      29.443  43.162  54.609  1.00  0.00     0.011 A 
HETATM   23  C   UNL     1      30.625  43.015  55.338  1.00  0.00     0.043 A 
HETATM   24  C   UNL     1      31.031  44.029  56.191  1.00  0.00     0.116 A 
HETATM   25  F   UNL     1      32.161  43.888  56.897  1.00  0.00    -0.206 F 
HETATM   26  C   UNL     1      30.277  45.186  56.326  1.00  0.00     0.043 A 
HETATM   27  C   UNL     1      29.092  45.334  55.601  1.00  0.00     0.011 A 
ENDBRANCH  18  21
ENDBRANCH   1  18
TORSDOF 5
ENDMDL
MODEL 3
REMARK VINA RESULT:      -8.5      2.200      3.498
REMARK  5 active torsions:
REMARK  status: ('A' for Active; 'I' for Inactive)
REMARK    1  A    between atoms: C_2  and  C_3 
REMARK    2  A    between atoms: C_2  and  C_19 
REMARK       I    between atoms: C_3  and  N_4 
REMARK    3  A    between atoms: N_4  and  C_5 
REMARK    4  A    between atoms: C_8  and  O_9 
REMARK    5  A    between atoms: O_9  and  C_10 
ROOT
HETATM    1  C   UNL     1      26.572  44.723  50.307  1.00  0.00     0.234 C 
HETATM    2  N   UNL     1      25.364  45.340  50.597  1.00  0.00    -0.325 N 
HETATM    3  O   UNL     1      27.430  45.190  49.563  1.00  0.00    -0.272 OA
HETATM    4  H   UNL     1      24.751  44.869  51.253  1.00  0.00     0.169 HD
ENDROOT
BRANCH   2   5
HETATM    5  C   UNL     1      24.865  46.525  50.017  1.00  0.00     0.052 A 
HETATM    6  C   UNL     1      25.510  47.759  50.024  1.00  0.00     0.149 A 
HETATM    7  N   UNL     1      25.036  48.873  49.408  1.00  0.00    -0.235 NA
HETATM    8  C   UNL     1      23.879  48.750  48.727  1.00  0.00     0.169 A 
HETATM    9  C   UNL     1      23.138  47.579  48.697  1.00  0.00     0.060 A 
HETATM   10  C   UNL     1      23.638  46.455  49.355  1.00  0.00     0.035 A 
BRANCH   8  11
HETATM   11  O   UNL     1      23.332  49.834  48.056  1.00  0.00    -0.291 OA
BRANCH  11  12
HETATM   12  C   UNL     1      22.144  50.377  48.474  1.00  0.00     0.095 A 
HETATM   13  C   UNL     1      22.028  50.637  49.834  1.00  0.00     0.153 A 
HETATM   14  N   UNL     1      20.911  51.119  50.434  1.00  0.00    -0.270 NA
HETATM   15  C   UNL     1      19.854  51.354  49.629  1.00  0.00     0.116 A 
HETATM   16  C   UNL     1      19.859  51.113  48.265  1.00  0.00     0.022 A 
HETATM   17  C   UNL     1      21.018  50.600  47.684  1.00  0.00     0.040 A 
ENDBRANCH  11  12
ENDBRANCH   8  11
ENDBRANCH   2   5
BRANCH   1  18
HETATM   18  C   UNL     1      26.756  43.337  50.995  1.00  0.00     0.061 C 
HETATM   19  C   UNL     1      25.359  42.846  51.444  1.00  0.00     0.030 C 
HETATM   20  C   UNL     1      27.270  42.315  49.955  1.00  0.00     0.030 C 
BRANCH  18  21
HETATM   21  C   UNL     1      27.792  43.432  52.130  1.00  0.00    -0.041 A 
HETATM   22  C   UNL     1      28.941  42.611  52.088  1.00  0.00     0.011 A 
HETATM   23  C   UNL     1      29.888  42.638  53.113  1.00  0.00     0.043 A 
HETATM   24  C   UNL     1      29.701  43.487  54.193  1.00  0.00     0.116 A 
HETATM   25  F   UNL     1      30.605  43.511  55.181  1.00  0.00    -0.206 F 
HETATM   26  C   UNL     1      28.585  44.309  54.263  1.00  0.00     0.043 A 
HETATM   27  C   UNL     1      27.633  44.281  53.240  1.00  0.00     0.011 A 
ENDBRANCH  18  21
ENDBRANCH   1  18
TORSDOF 5
ENDMDL
MODEL 4
REMARK VINA RESULT:      -8.2      2.526      4.222
REMARK  5 active torsions:
REMARK  status: ('A' for Active; 'I' for Inactive)
REMARK    1  A    between atoms: C_2  and  C_3 
REMARK    2  A    between atoms: C_2  and  C_19 
REMARK       I    between atoms: C_3  and  N_4 
REMARK    3  A    between atoms: N_4  and  C_5 
REMARK    4  A    between atoms: C_8  and  O_9 
REMARK    5  A    between atoms: O_9  and  C_10 
ROOT
HETATM    1  C   UNL     1      24.847  45.078  50.882  1.00  0.00     0.234 C 
HETATM    2  N   UNL     1      24.851  46.018  49.862  1.00  0.00    -0.325 N 
HETATM    3  O   UNL     1      23.839  44.696  51.472  1.00  0.00    -0.272 OA
HETATM    4  H   UNL     1      25.744  46.226  49.431  1.00  0.00     0.169 HD
ENDROOT
BRANCH   2   5
HETATM    5  C   UNL     1      23.747  46.771  49.410  1.00  0.00     0.052 A 
HETATM    6  C   UNL     1      23.570  48.138  49.606  1.00  0.00     0.149 A 
HETATM    7  N   UNL     1      22.526  48.853  49.110  1.00  0.00    -0.235 NA
HETATM    8  C   UNL     1      21.629  48.183  48.360  1.00  0.00     0.169 A 
HETATM    9  C   UNL     1      21.690  46.815  48.144  1.00  0.00     0.060 A 
HETATM   10  C   UNL     1      22.762  46.102  48.681  1.00  0.00     0.035 A 
BRANCH   8  11
HETATM   11  O   UNL     1      20.540  48.839  47.802  1.00  0.00    -0.291 OA
BRANCH  11  12
HETATM   12  C   UNL     1      19.949  49.884  48.465  1.00  0.00     0.095 A 
HETATM   13  C   UNL     1      19.161  49.553  49.562  1.00  0.00     0.153 A 
HETATM   14  N   UNL     1      18.457  50.445  50.302  1.00  0.00    -0.270 NA
HETATM   15  C   UNL     1      18.547  51.738  49.925  1.00  0.00     0.116 A 
HETATM   16  C   UNL     1      19.289  52.171  48.838  1.00  0.00     0.022 A 
HETATM   17  C   UNL     1      19.987  51.224  48.089  1.00  0.00     0.040 A 
ENDBRANCH  11  12
ENDBRANCH   8  11
ENDBRANCH   2   5
BRANCH   1  18
HETATM   18  C   UNL     1      26.262  44.542  51.255  1.00  0.00     0.061 C 
HETATM   19  C   UNL     1      26.200  42.996  51.233  1.00  0.00     0.030 C 
HETATM   20  C   UNL     1      27.270  44.958  50.158  1.00  0.00     0.030 C 
BRANCH  18  21
HETATM   21  C   UNL     1      26.731  45.142  52.593  1.00  0.00    -0.041 A 
HETATM   22  C   UNL     1      26.325  46.447  52.946  1.00  0.00     0.011 A 
HETATM   23  C   UNL     1      26.756  47.043  54.133  1.00  0.00     0.043 A 
HETATM   24  C   UNL     1      27.596  46.342  54.983  1.00  0.00     0.116 A 
HETATM   25  F   UNL     1      28.016  46.913  56.119  1.00  0.00    -0.206 F 
HETATM   26  C   UNL     1      28.011  45.056  54.667  1.00  0.00     0.043 A 
HETATM   27  C   UNL     1      27.585  44.459  53.478  1.00  0.00     0.011 A 
ENDBRANCH  18  21
ENDBRANCH   1  18
TORSDOF 5
ENDMDL
MODEL 5
REMARK VINA RESULT:      -8.1      4.236      9.865
REMARK  5 active torsions:
REMARK  status: ('A' for Active; 'I' for Inactive)
REMARK    1  A    between atoms: C_2  and  C_3 
REMARK    2  A    between atoms: C_2  and  C_19 
REMARK       I    between atoms: C_3  and  N_4 
REMARK    3  A    between atoms: N_4  and  C_5 
REMARK    4  A    between atoms: C_8  and  O_9 
REMARK    5  A    between atoms: O_9  and  C_10 
ROOT
HETATM    1  C   UNL     1      22.592  48.969  48.601  1.00  0.00     0.234 C 
HETATM    2  N   UNL     1      22.828  48.021  49.586  1.00  0.00    -0.325 N 
HETATM    3  O   UNL     1      23.248  49.077  47.569  1.00  0.00    -0.272 OA
HETATM    4  H   UNL     1      22.197  48.011  50.378  1.00  0.00     0.169 HD
ENDROOT
BRANCH   2   5
HETATM    5  C   UNL     1      23.905  47.111  49.635  1.00  0.00     0.052 A 
HETATM    6  C   UNL     1      23.844  45.768  49.269  1.00  0.00     0.149 A 
HETATM    7  N   UNL     1      24.910  44.926  49.270  1.00  0.00    -0.235 NA
HETATM    8  C   UNL     1      26.101  45.448  49.624  1.00  0.00     0.169 A 
HETATM    9  C   UNL     1      26.260  46.757  50.048  1.00  0.00     0.060 A 
HETATM   10  C   UNL     1      25.145  47.596  50.056  1.00  0.00     0.035 A 
BRANCH   8  11
HETATM   11  O   UNL     1      27.244  44.661  49.637  1.00  0.00    -0.291 OA
BRANCH  11  12
HETATM   12  C   UNL     1      27.449  43.758  50.649  1.00  0.00     0.095 A 
HETATM   13  C   UNL     1      27.235  42.420  50.336  1.00  0.00     0.153 A 
HETATM   14  N   UNL     1      27.334  41.397  51.221  1.00  0.00    -0.270 NA
HETATM   15  C   UNL     1      27.666  41.729  52.486  1.00  0.00     0.116 A 
HETATM   16  C   UNL     1      27.882  43.032  52.905  1.00  0.00     0.022 A 
HETATM   17  C   UNL     1      27.755  44.062  51.973  1.00  0.00     0.040 A 
ENDBRANCH  11  12
ENDBRANCH   8  11
ENDBRANCH   2   5
BRANCH   1  18
HETATM   18  C   UNL     1      21.412  49.934  48.923  1.00  0.00     0.061 C 
HETATM   19  C   UNL     1      21.810  50.765  50.166  1.00  0.00     0.030 C 
HETATM   20  C   UNL     1      21.242  50.938  47.759  1.00  0.00     0.030 C 
BRANCH  18  21
HETATM   21  C   UNL     1      20.098  49.147  49.076  1.00  0.00    -0.041 A 
HETATM   22  C   UNL     1      19.564  48.467  47.960  1.00  0.00     0.011 A 
HETATM   23  C   UNL     1      18.357  47.771  48.045  1.00  0.00     0.043 A 
HETATM   24  C   UNL     1      17.668  47.744  49.247  1.00  0.00     0.116 A 
HETATM   25  F   UNL     1      16.506  47.083  49.331  1.00  0.00    -0.206 F 
HETATM   26  C   UNL     1      18.166  48.400  50.364  1.00  0.00     0.043 A 
HETATM   27  C   UNL     1      19.372  49.101  50.281  1.00  0.00     0.011 A 
ENDBRANCH  18  21
ENDBRANCH   1  18
TORSDOF 5
ENDMDL
MODEL 6
REMARK VINA RESULT:      -8.0      5.167     10.954
REMARK  5 active torsions:
REMARK  status: ('A' for Active; 'I' for Inactive)
REMARK    1  A    between atoms: C_2  and  C_3 
REMARK    2  A    between atoms: C_2  and  C_19 
REMARK       I    between atoms: C_3  and  N_4 
REMARK    3  A    between atoms: N_4  and  C_5 
REMARK    4  A    between atoms: C_8  and  O_9 
REMARK    5  A    between atoms: O_9  and  C_10 
ROOT
HETATM    1  C   UNL     1      19.553  48.640  48.802  1.00  0.00     0.234 C 
HETATM    2  N   UNL     1      20.802  48.760  48.210  1.00  0.00    -0.325 N 
HETATM    3  O   UNL     1      19.349  48.127  49.899  1.00  0.00    -0.272 OA
HETATM    4  H   UNL     1      20.845  49.232  47.315  1.00  0.00     0.169 HD
ENDROOT
BRANCH   2   5
HETATM    5  C   UNL     1      22.014  48.226  48.693  1.00  0.00     0.052 A 
HETATM    6  C   UNL     1      22.995  48.941  49.376  1.00  0.00     0.149 A 
HETATM    7  N   UNL     1      24.130  48.391  49.883  1.00  0.00    -0.235 NA
HETATM    8  C   UNL     1      24.286  47.062  49.729  1.00  0.00     0.169 A 
HETATM    9  C   UNL     1      23.392  46.269  49.026  1.00  0.00     0.060 A 
HETATM   10  C   UNL     1      22.245  46.862  48.499  1.00  0.00     0.035 A 
BRANCH   8  11
HETATM   11  O   UNL     1      25.408  46.416  50.229  1.00  0.00    -0.291 OA
BRANCH  11  12
HETATM   12  C   UNL     1      25.481  46.089  51.559  1.00  0.00     0.095 A 
HETATM   13  C   UNL     1      24.935  44.864  51.925  1.00  0.00     0.153 A 
HETATM   14  N   UNL     1      24.866  44.401  53.198  1.00  0.00    -0.270 NA
HETATM   15  C   UNL     1      25.372  45.206  54.156  1.00  0.00     0.116 A 
HETATM   16  C   UNL     1      25.921  46.452  53.900  1.00  0.00     0.022 A 
HETATM   17  C   UNL     1      25.960  46.905  52.582  1.00  0.00     0.040 A 
ENDBRANCH  11  12
ENDBRANCH   8  11
ENDBRANCH   2   5
BRANCH   1  18
HETATM   18  C   UNL     1      18.385  49.198  47.934  1.00  0.00     0.061 C 
HETATM   19  C   UNL     1      18.938  49.452  46.511  1.00  0.00     0.030 C 
HETATM   20  C   UNL     1      17.290  48.115  47.794  1.00  0.00     0.030 C 
BRANCH  18  21
HETATM   21  C   UNL     1      17.758  50.435  48.603  1.00  0.00    -0.041 A 
HETATM   22  C   UNL     1      16.359  50.614  48.551  1.00  0.00     0.011 A 
HETATM   23  C   UNL     1      15.751  51.739  49.113  1.00  0.00     0.043 A 
HETATM   24  C   UNL     1      16.535  52.697  49.737  1.00  0.00     0.116 A 
HETATM   25  F   UNL     1      15.956  53.780  50.272  1.00  0.00    -0.206 F 
HETATM   26  C   UNL     1      17.912  52.549  49.809  1.00  0.00     0.043 A 
HETATM   27  C   UNL     1      18.523  51.427  49.243  1.00  0.00     0.011 A 
ENDBRANCH  18  21
ENDBRANCH   1  18
TORSDOF 5
ENDMDL
MODEL 7
REMARK VINA RESULT:      -7.9      1.859      2.648
REMARK  5 active torsions:
REMARK  status: ('A' for Active; 'I' for Inactive)
REMARK    1  A    between atoms: C_2  and  C_3 
REMARK    2  A    between atoms: C_2  and  C_19 
REMARK       I    between atoms: C_3  and  N_4 
REMARK    3  A    between atoms: N_4  and  C_5 
REMARK    4  A    between atoms: C_8  and  O_9 
REMARK    5  A    between atoms: O_9  and  C_10 
ROOT
HETATM    1  C   UNL     1      26.801  44.273  52.615  1.00  0.00     0.234 C 
HETATM    2  N   UNL     1      25.529  44.822  52.529  1.00  0.00    -0.325 N 
HETATM    3  O   UNL     1      27.686  44.434  51.778  1.00  0.00    -0.272 OA
HETATM    4  H   UNL     1      24.896  44.642  53.299  1.00  0.00     0.169 HD
ENDROOT
BRANCH   2   5
HETATM    5  C   UNL     1      24.999  45.546  51.440  1.00  0.00     0.052 A 
HETATM    6  C   UNL     1      24.205  45.014  50.428  1.00  0.00     0.149 A 
HETATM    7  N   UNL     1      23.658  45.744  49.421  1.00  0.00    -0.235 NA
HETATM    8  C   UNL     1      23.887  47.072  49.435  1.00  0.00     0.169 A 
HETATM    9  C   UNL     1      24.700  47.692  50.370  1.00  0.00     0.060 A 
HETATM   10  C   UNL     1      25.266  46.916  51.383  1.00  0.00     0.035 A 
BRANCH   8  11
HETATM   11  O   UNL     1      23.353  47.894  48.453  1.00  0.00    -0.291 OA
BRANCH  11  12
HETATM   12  C   UNL     1      22.002  47.903  48.219  1.00  0.00     0.095 A 
HETATM   13  C   UNL     1      21.216  48.550  49.165  1.00  0.00     0.153 A 
HETATM   14  N   UNL     1      19.861  48.611  49.129  1.00  0.00    -0.270 NA
HETATM   15  C   UNL     1      19.262  47.993  48.090  1.00  0.00     0.116 A 
HETATM   16  C   UNL     1      19.951  47.306  47.105  1.00  0.00     0.022 A 
HETATM   17  C   UNL     1      21.342  47.248  47.182  1.00  0.00     0.040 A 
ENDBRANCH  11  12
ENDBRANCH   8  11
ENDBRANCH   2   5
BRANCH   1  18
HETATM   18  C   UNL     1      27.024  43.388  53.878  1.00  0.00     0.061 C 
HETATM   19  C   UNL     1      25.768  43.522  54.772  1.00  0.00     0.030 C 
HETATM   20  C   UNL     1      27.105  41.904  53.452  1.00  0.00     0.030 C 
BRANCH  18  21
HETATM   21  C   UNL     1      28.344  43.764  54.574  1.00  0.00    -0.041 A 
HETATM   22  C   UNL     1      28.458  45.018  55.212  1.00  0.00     0.011 A 
HETATM   23  C   UNL     1      29.648  45.414  55.824  1.00  0.00     0.043 A 
HETATM   24  C   UNL     1      30.740  44.561  55.809  1.00  0.00     0.116 A 
HETATM   25  F   UNL     1      31.886  44.940  56.390  1.00  0.00    -0.206 F 
HETATM   26  C   UNL     1      30.661  43.320  55.194  1.00  0.00     0.043 A 
HETATM   27  C   UNL     1      29.472  42.923  54.576  1.00  0.00     0.011 A 
ENDBRANCH  18  21
ENDBRANCH   1  18
TORSDOF 5
ENDMDL
MODEL 8
REMARK VINA RESULT:      -7.9     16.227     18.855
REMARK  5 active torsions:
REMARK  status: ('A' for Active; 'I' for Inactive)
REMARK    1  A    between atoms: C_2  and  C_3 
REMARK    2  A    between atoms: C_2  and  C_19 
REMARK       I    between atoms: C_3  and  N_4 
REMARK    3  A    between atoms: N_4  and  C_5 
REMARK    4  A    between atoms: C_8  and  O_9 
REMARK    5  A    between atoms: O_9  and  C_10 
ROOT
HETATM    1  C   UNL     1      38.269  46.664  64.946  1.00  0.00     0.234 C 
HETATM    2  N   UNL     1      38.067  46.018  63.735  1.00  0.00    -0.325 N 
HETATM    3  O   UNL     1      38.813  46.157  65.923  1.00  0.00    -0.272 OA
HETATM    4  H   UNL     1      37.635  46.555  62.992  1.00  0.00     0.169 HD
ENDROOT
BRANCH   2   5
HETATM    5  C   UNL     1      38.337  44.663  63.451  1.00  0.00     0.052 A 
HETATM    6  C   UNL     1      39.595  44.133  63.174  1.00  0.00     0.149 A 
HETATM    7  N   UNL     1      39.838  42.813  62.961  1.00  0.00    -0.235 NA
HETATM    8  C   UNL     1      38.787  41.975  63.054  1.00  0.00     0.169 A 
HETATM    9  C   UNL     1      37.489  42.407  63.280  1.00  0.00     0.060 A 
HETATM   10  C   UNL     1      37.264  43.770  63.476  1.00  0.00     0.035 A 
BRANCH   8  11
HETATM   11  O   UNL     1      38.949  40.609  62.866  1.00  0.00    -0.291 OA
BRANCH  11  12
HETATM   12  C   UNL     1      39.597  39.855  63.810  1.00  0.00     0.095 A 
HETATM   13  C   UNL     1      40.378  38.807  63.334  1.00  0.00     0.153 A 
HETATM   14  N   UNL     1      41.044  37.924  64.120  1.00  0.00    -0.270 NA
HETATM   15  C   UNL     1      40.923  38.100  65.453  1.00  0.00     0.116 A 
HETATM   16  C   UNL     1      40.157  39.100  66.029  1.00  0.00     0.022 A 
HETATM   17  C   UNL     1      39.471  39.980  65.192  1.00  0.00     0.040 A 
ENDBRANCH  11  12
ENDBRANCH   8  11
ENDBRANCH   2   5
BRANCH   1  18
HETATM   18  C   UNL     1      37.713  48.120  64.986  1.00  0.00     0.061 C 
HETATM   19  C   UNL     1      38.907  49.084  64.791  1.00  0.00     0.030 C 
HETATM   20  C   UNL     1      36.768  48.339  63.782  1.00  0.00     0.030 C 
BRANCH  18  21
HETATM   21  C   UNL     1      36.910  48.355  66.278  1.00  0.00    -0.041 A 
HETATM   22  C   UNL     1      37.364  49.314  67.210  1.00  0.00     0.011 A 
HETATM   23  C   UNL     1      36.686  49.534  68.411  1.00  0.00     0.043 A 
HETATM   24  C   UNL     1      35.545  48.801  68.695  1.00  0.00     0.116 A 
HETATM   25  F   UNL     1      34.896  49.005  69.849  1.00  0.00    -0.206 F 
HETATM   26  C   UNL     1      35.070  47.853  67.800  1.00  0.00     0.043 A 
HETATM   27  C   UNL     1      35.749  47.628  66.599  1.00  0.00     0.011 A 
ENDBRANCH  18  21
ENDBRANCH   1  18
TORSDOF 5
ENDMDL
MODEL 9
REMARK VINA RESULT:      -7.8      8.706     14.309
REMARK  5 active torsions:
REMARK  status: ('A' for Active; 'I' for Inactive)
REMARK    1  A    between atoms: C_2  and  C_3 
REMARK    2  A    between atoms: C_2  and  C_19 
REMARK       I    between atoms: C_3  and  N_4 
REMARK    3  A    between atoms: N_4  and  C_5 
REMARK    4  A    between atoms: C_8  and  O_9 
REMARK    5  A    between atoms: O_9  and  C_10 
ROOT
HETATM    1  C   UNL     1      14.794  53.340  49.773  1.00  0.00     0.234 C 
HETATM    2  N   UNL     1      15.977  53.417  49.053  1.00  0.00    -0.325 N 
HETATM    3  O   UNL     1      14.424  52.349  50.397  1.00  0.00    -0.272 OA
HETATM    4  H   UNL     1      16.188  54.302  48.605  1.00  0.00     0.169 HD
ENDROOT
BRANCH   2   5
HETATM    5  C   UNL     1      16.887  52.365  48.816  1.00  0.00     0.052 A 
HETATM    6  C   UNL     1      17.206  51.841  47.566  1.00  0.00     0.149 A 
HETATM    7  N   UNL     1      18.129  50.866  47.359  1.00  0.00    -0.235 NA
HETATM    8  C   UNL     1      18.789  50.409  48.441  1.00  0.00     0.169 A 
HETATM    9  C   UNL     1      18.514  50.831  49.732  1.00  0.00     0.060 A 
HETATM   10  C   UNL     1      17.547  51.819  49.920  1.00  0.00     0.035 A 
BRANCH   8  11
HETATM   11  O   UNL     1      19.759  49.424  48.317  1.00  0.00    -0.291 OA
BRANCH  11  12
HETATM   12  C   UNL     1      21.084  49.768  48.225  1.00  0.00     0.095 A 
HETATM   13  C   UNL     1      21.969  48.741  47.922  1.00  0.00     0.153 A 
HETATM   14  N   UNL     1      23.316  48.882  47.846  1.00  0.00    -0.270 NA
HETATM   15  C   UNL     1      23.802  50.118  48.085  1.00  0.00     0.116 A 
HETATM   16  C   UNL     1      23.009  51.205  48.414  1.00  0.00     0.022 A 
HETATM   17  C   UNL     1      21.629  51.020  48.500  1.00  0.00     0.040 A 
ENDBRANCH  11  12
ENDBRANCH   8  11
ENDBRANCH   2   5
BRANCH   1  18
HETATM   18  C   UNL     1      13.929  54.634  49.709  1.00  0.00     0.061 C 
HETATM   19  C   UNL     1      13.895  55.104  48.235  1.00  0.00     0.030 C 
HETATM   20  C   UNL     1      12.471  54.292  50.096  1.00  0.00     0.030 C 
BRANCH  18  21
HETATM   21  C   UNL     1      14.457  55.686  50.701  1.00  0.00    -0.041 A 
HETATM   22  C   UNL     1      14.600  55.341  52.063  1.00  0.00     0.011 A 
HETATM   23  C   UNL     1      15.042  56.274  53.003  1.00  0.00     0.043 A 
HETATM   24  C   UNL     1      15.347  57.563  52.595  1.00  0.00     0.116 A 
HETATM   25  F   UNL     1      15.765  58.462  53.495  1.00  0.00    -0.206 F 
HETATM   26  C   UNL     1      15.221  57.933  51.264  1.00  0.00     0.043 A 
HETATM   27  C   UNL     1      14.775  57.002  50.321  1.00  0.00     0.011 A 
ENDBRANCH  18  21
ENDBRANCH   1  18
TORSDOF 5
ENDMDL
MODEL 10
REMARK VINA RESULT:      -7.7     12.527     13.965
REMARK  5 active torsions:
REMARK  status: ('A' for Active; 'I' for Inactive)
REMARK    1  A    between atoms: C_2  and  C_3 
REMARK    2  A    between atoms: C_2  and  C_19 
REMARK       I    between atoms: C_3  and  N_4 
REMARK    3  A    between atoms: N_4  and  C_5 
REMARK    4  A    between atoms: C_8  and  O_9 
REMARK    5  A    between atoms: O_9  and  C_10 
ROOT
HETATM    1  C   UNL     1      36.719  52.652  42.705  1.00  0.00     0.234 C 
HETATM    2  N   UNL     1      35.949  51.696  43.352  1.00  0.00    -0.325 N 
HETATM    3  O   UNL     1      36.300  53.408  41.832  1.00  0.00    -0.272 OA
HETATM    4  H   UNL     1      36.402  51.154  44.079  1.00  0.00     0.169 HD
ENDROOT
BRANCH   2   5
HETATM    5  C   UNL     1      34.616  51.349  43.052  1.00  0.00     0.052 A 
HETATM    6  C   UNL     1      34.208  50.576  41.967  1.00  0.00     0.149 A 
HETATM    7  N   UNL     1      32.922  50.206  41.732  1.00  0.00    -0.235 NA
HETATM    8  C   UNL     1      31.999  50.598  42.631  1.00  0.00     0.169 A 
HETATM    9  C   UNL     1      32.293  51.407  43.718  1.00  0.00     0.060 A 
HETATM   10  C   UNL     1      33.619  51.789  43.926  1.00  0.00     0.035 A 
BRANCH   8  11
HETATM   11  O   UNL     1      30.664  50.251  42.476  1.00  0.00    -0.291 OA
BRANCH  11  12
HETATM   12  C   UNL     1      29.864  50.953  41.611  1.00  0.00     0.095 A 
HETATM   13  C   UNL     1      29.585  50.343  40.394  1.00  0.00     0.153 A 
HETATM   14  N   UNL     1      28.860  50.910  39.397  1.00  0.00    -0.270 NA
HETATM   15  C   UNL     1      28.390  52.153  39.631  1.00  0.00     0.116 A 
HETATM   16  C   UNL     1      28.626  52.855  40.802  1.00  0.00     0.022 A 
HETATM   17  C   UNL     1      29.390  52.249  41.799  1.00  0.00     0.040 A 
ENDBRANCH  11  12
ENDBRANCH   8  11
ENDBRANCH   2   5
BRANCH   1  18
HETATM   18  C   UNL     1      38.208  52.681  43.163  1.00  0.00     0.061 C 
HETATM   19  C   UNL     1      38.793  51.264  42.950  1.00  0.00     0.030 C 
HETATM   20  C   UNL     1      39.007  53.631  42.241  1.00  0.00     0.030 C 
BRANCH  18  21
HETATM   21  C   UNL     1      38.319  53.205  44.606  1.00  0.00    -0.041 A 
HETATM   22  C   UNL     1      39.077  52.478  45.550  1.00  0.00     0.011 A 
HETATM   23  C   UNL     1      39.175  52.897  46.878  1.00  0.00     0.043 A 
HETATM   24  C   UNL     1      38.518  54.049  47.280  1.00  0.00     0.116 A 
HETATM   25  F   UNL     1      38.605  54.451  48.555  1.00  0.00    -0.206 F 
HETATM   26  C   UNL     1      37.767  54.789  46.378  1.00  0.00     0.043 A 
HETATM   27  C   UNL     1      37.664  54.369  45.048  1.00  0.00     0.011 A 
ENDBRANCH  18  21
ENDBRANCH   1  18
TORSDOF 5
ENDMDL
