MODEL 1
REMARK VINA RESULT:     -11.4      0.000      0.000
REMARK  7 active torsions:
REMARK  status: ('A' for Active; 'I' for Inactive)
REMARK    1  A    between atoms: C_5  and  C_6 
REMARK    2  A    between atoms: C_6  and  C_7 
REMARK    3  A    between atoms: C_7  and  N_8 
REMARK       I    between atoms: N_8  and  C_9 
REMARK    4  A    between atoms: C_9  and  C_10 
REMARK    5  A    between atoms: C_13  and  O_14 
REMARK    6  A    between atoms: C_15  and  C_16 
REMARK    7  A    between atoms: C_16  and  C_17 
ROOT
HETATM    1  C   UNL     1      24.327  47.001  49.998  1.00  0.00     0.099 A 
HETATM    2  C   UNL     1      24.788  46.676  51.261  1.00  0.00     0.171 A 
HETATM    3  N   UNL     1      24.572  45.315  51.415  1.00  0.00    -0.192 N 
HETATM    4  C   UNL     1      25.036  44.630  52.544  1.00  0.00     0.174 C 
HETATM    5  C   UNL     1      25.698  45.290  53.517  1.00  0.00     0.023 C 
HETATM    6  C   UNL     1      25.757  46.791  53.320  1.00  0.00     0.044 C 
HETATM    7  C   UNL     1      26.283  47.662  54.440  1.00  0.00     0.071 C 
HETATM    8  N   UNL     1      25.362  47.425  52.249  1.00  0.00    -0.233 NA
HETATM    9  N   UNL     1      23.938  44.765  50.346  1.00  0.00    -0.175 NA
HETATM   10  C   UNL     1      23.804  45.789  49.497  1.00  0.00     0.160 A 
ENDROOT
BRANCH   1  11
HETATM   11  C   UNL     1      24.379  48.282  49.322  1.00  0.00     0.257 C 
HETATM   12  N   UNL     1      23.200  48.663  48.722  1.00  0.00    -0.356 N 
HETATM   13  H   UNL     1      22.401  48.040  48.835  1.00  0.00     0.162 HD
HETATM   14  O   UNL     1      25.392  48.973  49.322  1.00  0.00    -0.267 OA
BRANCH  12  15
HETATM   15  C   UNL     1      23.019  49.981  48.156  1.00  0.00     0.127 C 
BRANCH  15  16
HETATM   16  C   UNL     1      22.565  50.991  49.208  1.00  0.00     0.058 C 
BRANCH  16  17
HETATM   17  C   UNL     1      21.064  51.103  49.270  1.00  0.00    -0.057 A 
HETATM   18  C   UNL     1      20.378  51.940  48.384  1.00  0.00     0.007 A 
HETATM   19  C   UNL     1      18.988  52.063  48.456  1.00  0.00     0.007 A 
HETATM   20  C   UNL     1      18.263  51.361  49.425  1.00  0.00    -0.062 A 
HETATM   21  C   UNL     1      16.770  51.475  49.503  1.00  0.00     0.048 C 
HETATM   22  C   UNL     1      18.948  50.522  50.311  1.00  0.00     0.007 A 
HETATM   23  C   UNL     1      20.337  50.398  50.238  1.00  0.00     0.007 A 
ENDBRANCH  16  17
ENDBRANCH  15  16
ENDBRANCH  12  15
ENDBRANCH   1  11
BRANCH   4  24
HETATM   24  O   UNL     1      24.849  43.255  52.591  1.00  0.00    -0.344 OA
HETATM   25  H   UNL     1      25.343  42.950  53.384  1.00  0.00     0.219 HD
ENDBRANCH   4  24
BRANCH   5  26
HETATM   26  C   UNL     1      26.347  44.611  54.694  1.00  0.00     0.084 C 
BRANCH  26  27
HETATM   27  C   UNL     1      27.707  43.990  54.413  1.00  0.00    -0.047 A 
HETATM   28  C   UNL     1      28.923  44.544  54.869  1.00  0.00    -0.055 A 
HETATM   29  C   UNL     1      28.992  45.821  55.662  1.00  0.00     0.049 C 
HETATM   30  C   UNL     1      30.126  43.870  54.601  1.00  0.00     0.008 A 
HETATM   31  C   UNL     1      30.143  42.688  53.860  1.00  0.00     0.007 A 
HETATM   32  C   UNL     1      28.955  42.147  53.372  1.00  0.00    -0.061 A 
HETATM   33  C   UNL     1      28.966  40.903  52.535  1.00  0.00     0.048 C 
HETATM   34  C   UNL     1      27.750  42.812  53.636  1.00  0.00     0.014 A 
ENDBRANCH  26  27
ENDBRANCH   5  26
TORSDOF 7
ENDMDL
MODEL 2
REMARK VINA RESULT:     -10.5      1.955      9.924
REMARK  7 active torsions:
REMARK  status: ('A' for Active; 'I' for Inactive)
REMARK    1  A    between atoms: C_5  and  C_6 
REMARK    2  A    between atoms: C_6  and  C_7 
REMARK    3  A    between atoms: C_7  and  N_8 
REMARK       I    between atoms: N_8  and  C_9 
REMARK    4  A    between atoms: C_9  and  C_10 
REMARK    5  A    between atoms: C_13  and  O_14 
REMARK    6  A    between atoms: C_15  and  C_16 
REMARK    7  A    between atoms: C_16  and  C_17 
ROOT
HETATM    1  C   UNL     1      24.532  44.041  50.976  1.00  0.00     0.099 A 
HETATM    2  C   UNL     1      24.237  45.163  50.224  1.00  0.00     0.171 A 
HETATM    3  N   UNL     1      23.157  44.820  49.423  1.00  0.00    -0.192 N 
HETATM    4  C   UNL     1      22.523  45.772  48.616  1.00  0.00     0.174 C 
HETATM    5  C   UNL     1      22.960  47.048  48.594  1.00  0.00     0.023 C 
HETATM    6  C   UNL     1      24.226  47.284  49.391  1.00  0.00     0.044 C 
HETATM    7  C   UNL     1      24.934  48.617  49.275  1.00  0.00     0.071 C 
HETATM    8  N   UNL     1      24.794  46.409  50.177  1.00  0.00    -0.233 NA
HETATM    9  N   UNL     1      22.790  43.521  49.574  1.00  0.00    -0.175 NA
HETATM   10  C   UNL     1      23.619  43.066  50.518  1.00  0.00     0.160 A 
ENDROOT
BRANCH   1  11
HETATM   11  C   UNL     1      25.533  43.890  52.014  1.00  0.00     0.257 C 
HETATM   12  N   UNL     1      25.465  44.827  53.018  1.00  0.00    -0.356 N 
HETATM   13  H   UNL     1      24.710  45.509  52.965  1.00  0.00     0.162 HD
HETATM   14  O   UNL     1      26.348  42.973  51.997  1.00  0.00    -0.267 OA
BRANCH  12  15
HETATM   15  C   UNL     1      26.268  44.726  54.217  1.00  0.00     0.127 C 
BRANCH  15  16
HETATM   16  C   UNL     1      27.488  45.642  54.159  1.00  0.00     0.058 C 
BRANCH  16  17
HETATM   17  C   UNL     1      28.668  45.057  54.891  1.00  0.00    -0.057 A 
HETATM   18  C   UNL     1      29.214  43.832  54.493  1.00  0.00     0.007 A 
HETATM   19  C   UNL     1      30.293  43.277  55.186  1.00  0.00     0.007 A 
HETATM   20  C   UNL     1      30.836  43.932  56.296  1.00  0.00    -0.062 A 
HETATM   21  C   UNL     1      32.003  43.353  57.038  1.00  0.00     0.048 C 
HETATM   22  C   UNL     1      30.292  45.159  56.694  1.00  0.00     0.007 A 
HETATM   23  C   UNL     1      29.214  45.714  56.001  1.00  0.00     0.007 A 
ENDBRANCH  16  17
ENDBRANCH  15  16
ENDBRANCH  12  15
ENDBRANCH   1  11
BRANCH   4  24
HETATM   24  O   UNL     1      21.402  45.371  47.901  1.00  0.00    -0.344 OA
HETATM   25  H   UNL     1      21.739  44.770  47.200  1.00  0.00     0.219 HD
ENDBRANCH   4  24
BRANCH   5  26
HETATM   26  C   UNL     1      22.255  48.160  47.862  1.00  0.00     0.084 C 
BRANCH  26  27
HETATM   27  C   UNL     1      21.372  49.045  48.729  1.00  0.00    -0.047 A 
HETATM   28  C   UNL     1      21.578  50.433  48.885  1.00  0.00    -0.055 A 
HETATM   29  C   UNL     1      22.712  51.169  48.224  1.00  0.00     0.049 C 
HETATM   30  C   UNL     1      20.678  51.175  49.667  1.00  0.00     0.008 A 
HETATM   31  C   UNL     1      19.612  50.560  50.322  1.00  0.00     0.007 A 
HETATM   32  C   UNL     1      19.415  49.185  50.207  1.00  0.00    -0.061 A 
HETATM   33  C   UNL     1      18.299  48.506  50.944  1.00  0.00     0.048 C 
HETATM   34  C   UNL     1      20.307  48.437  49.428  1.00  0.00     0.014 A 
ENDBRANCH  26  27
ENDBRANCH   5  26
TORSDOF 7
ENDMDL
MODEL 3
REMARK VINA RESULT:     -10.1      2.025     10.469
REMARK  7 active torsions:
REMARK  status: ('A' for Active; 'I' for Inactive)
REMARK    1  A    between atoms: C_5  and  C_6 
REMARK    2  A    between atoms: C_6  and  C_7 
REMARK    3  A    between atoms: C_7  and  N_8 
REMARK       I    between atoms: N_8  and  C_9 
REMARK    4  A    between atoms: C_9  and  C_10 
REMARK    5  A    between atoms: C_13  and  O_14 
REMARK    6  A    between atoms: C_15  and  C_16 
REMARK    7  A    between atoms: C_16  and  C_17 
ROOT
HETATM    1  C   UNL     1      24.632  46.372  50.409  1.00  0.00     0.099 A 
HETATM    2  C   UNL     1      23.958  47.355  49.707  1.00  0.00     0.171 A 
HETATM    3  N   UNL     1      23.189  46.697  48.759  1.00  0.00    -0.192 N 
HETATM    4  C   UNL     1      22.284  47.393  47.950  1.00  0.00     0.174 C 
HETATM    5  C   UNL     1      22.149  48.730  48.071  1.00  0.00     0.023 C 
HETATM    6  C   UNL     1      23.132  49.368  49.030  1.00  0.00     0.044 C 
HETATM    7  C   UNL     1      23.227  50.877  49.095  1.00  0.00     0.071 C 
HETATM    8  N   UNL     1      23.947  48.717  49.816  1.00  0.00    -0.233 NA
HETATM    9  N   UNL     1      23.386  45.352  48.773  1.00  0.00    -0.175 NA
HETATM   10  C   UNL     1      24.249  45.170  49.776  1.00  0.00     0.160 A 
ENDROOT
BRANCH   1  11
HETATM   11  C   UNL     1      25.517  46.524  51.547  1.00  0.00     0.257 C 
HETATM   12  N   UNL     1      25.687  45.384  52.298  1.00  0.00    -0.356 N 
HETATM   13  H   UNL     1      25.214  44.541  51.975  1.00  0.00     0.162 HD
HETATM   14  O   UNL     1      26.086  47.583  51.787  1.00  0.00    -0.267 OA
BRANCH  12  15
HETATM   15  C   UNL     1      26.664  45.305  53.361  1.00  0.00     0.127 C 
BRANCH  15  16
HETATM   16  C   UNL     1      27.815  44.368  53.003  1.00  0.00     0.058 C 
BRANCH  16  17
HETATM   17  C   UNL     1      28.834  44.276  54.109  1.00  0.00    -0.057 A 
HETATM   18  C   UNL     1      29.727  43.201  54.163  1.00  0.00     0.007 A 
HETATM   19  C   UNL     1      30.656  43.102  55.202  1.00  0.00     0.007 A 
HETATM   20  C   UNL     1      30.700  44.072  56.210  1.00  0.00    -0.062 A 
HETATM   21  C   UNL     1      31.702  43.983  57.321  1.00  0.00     0.048 C 
HETATM   22  C   UNL     1      29.808  45.149  56.155  1.00  0.00     0.007 A 
HETATM   23  C   UNL     1      28.879  45.248  55.116  1.00  0.00     0.007 A 
ENDBRANCH  16  17
ENDBRANCH  15  16
ENDBRANCH  12  15
ENDBRANCH   1  11
BRANCH   4  24
HETATM   24  O   UNL     1      21.494  46.655  47.077  1.00  0.00    -0.344 OA
HETATM   25  H   UNL     1      20.573  46.960  47.235  1.00  0.00     0.219 HD
ENDBRANCH   4  24
BRANCH   5  26
HETATM   26  C   UNL     1      21.107  49.534  47.339  1.00  0.00     0.084 C 
BRANCH  26  27
HETATM   27  C   UNL     1      19.746  49.596  48.016  1.00  0.00    -0.047 A 
HETATM   28  C   UNL     1      19.204  50.778  48.564  1.00  0.00    -0.055 A 
HETATM   29  C   UNL     1      19.936  52.093  48.553  1.00  0.00     0.049 C 
HETATM   30  C   UNL     1      17.917  50.746  49.125  1.00  0.00     0.008 A 
HETATM   31  C   UNL     1      17.184  49.560  49.184  1.00  0.00     0.007 A 
HETATM   32  C   UNL     1      17.719  48.377  48.678  1.00  0.00    -0.061 A 
HETATM   33  C   UNL     1      16.958  47.089  48.779  1.00  0.00     0.048 C 
HETATM   34  C   UNL     1      19.001  48.401  48.117  1.00  0.00     0.014 A 
ENDBRANCH  26  27
ENDBRANCH   5  26
TORSDOF 7
ENDMDL
MODEL 4
REMARK VINA RESULT:     -10.0      1.829     10.319
REMARK  7 active torsions:
REMARK  status: ('A' for Active; 'I' for Inactive)
REMARK    1  A    between atoms: C_5  and  C_6 
REMARK    2  A    between atoms: C_6  and  C_7 
REMARK    3  A    between atoms: C_7  and  N_8 
REMARK       I    between atoms: N_8  and  C_9 
REMARK    4  A    between atoms: C_9  and  C_10 
REMARK    5  A    between atoms: C_13  and  O_14 
REMARK    6  A    between atoms: C_15  and  C_16 
REMARK    7  A    between atoms: C_16  and  C_17 
ROOT
HETATM    1  C   UNL     1      23.177  44.977  49.733  1.00  0.00     0.099 A 
HETATM    2  C   UNL     1      23.244  46.256  49.211  1.00  0.00     0.171 A 
HETATM    3  N   UNL     1      22.131  46.401  48.397  1.00  0.00    -0.192 N 
HETATM    4  C   UNL     1      21.825  47.630  47.801  1.00  0.00     0.174 C 
HETATM    5  C   UNL     1      22.620  48.702  48.000  1.00  0.00     0.023 C 
HETATM    6  C   UNL     1      23.881  48.402  48.785  1.00  0.00     0.044 C 
HETATM    7  C   UNL     1      24.953  49.464  48.893  1.00  0.00     0.071 C 
HETATM    8  N   UNL     1      24.146  47.268  49.376  1.00  0.00    -0.233 NA
HETATM    9  N   UNL     1      21.392  45.263  48.319  1.00  0.00    -0.175 NA
HETATM   10  C   UNL     1      22.028  44.417  49.134  1.00  0.00     0.160 A 
ENDROOT
BRANCH   1  11
HETATM   11  C   UNL     1      24.065  44.347  50.691  1.00  0.00     0.257 C 
HETATM   12  N   UNL     1      25.093  45.147  51.134  1.00  0.00    -0.356 N 
HETATM   13  H   UNL     1      25.119  46.104  50.784  1.00  0.00     0.162 HD
HETATM   14  O   UNL     1      23.879  43.202  51.089  1.00  0.00    -0.267 OA
BRANCH  12  15
HETATM   15  C   UNL     1      25.965  44.746  52.215  1.00  0.00     0.127 C 
BRANCH  15  16
HETATM   16  C   UNL     1      27.274  44.154  51.696  1.00  0.00     0.058 C 
BRANCH  16  17
HETATM   17  C   UNL     1      28.279  43.953  52.800  1.00  0.00    -0.057 A 
HETATM   18  C   UNL     1      29.340  43.056  52.639  1.00  0.00     0.007 A 
HETATM   19  C   UNL     1      30.259  42.851  53.671  1.00  0.00     0.007 A 
HETATM   20  C   UNL     1      30.126  43.531  54.886  1.00  0.00    -0.062 A 
HETATM   21  C   UNL     1      31.114  43.329  55.995  1.00  0.00     0.048 C 
HETATM   22  C   UNL     1      29.066  44.431  55.047  1.00  0.00     0.007 A 
HETATM   23  C   UNL     1      28.147  44.637  54.015  1.00  0.00     0.007 A 
ENDBRANCH  16  17
ENDBRANCH  15  16
ENDBRANCH  12  15
ENDBRANCH   1  11
BRANCH   4  24
HETATM   24  O   UNL     1      20.652  47.718  47.062  1.00  0.00    -0.344 OA
HETATM   25  H   UNL     1      19.939  47.878  47.719  1.00  0.00     0.219 HD
ENDBRANCH   4  24
BRANCH   5  26
HETATM   26  C   UNL     1      22.292  50.088  47.510  1.00  0.00     0.084 C 
BRANCH  26  27
HETATM   27  C   UNL     1      20.998  50.675  48.053  1.00  0.00    -0.047 A 
HETATM   28  C   UNL     1      20.831  51.076  49.396  1.00  0.00    -0.055 A 
HETATM   29  C   UNL     1      21.914  50.936  50.431  1.00  0.00     0.049 C 
HETATM   30  C   UNL     1      19.613  51.654  49.792  1.00  0.00     0.008 A 
HETATM   31  C   UNL     1      18.557  51.803  48.892  1.00  0.00     0.007 A 
HETATM   32  C   UNL     1      18.695  51.381  47.571  1.00  0.00    -0.061 A 
HETATM   33  C   UNL     1      17.551  51.493  46.608  1.00  0.00     0.048 C 
HETATM   34  C   UNL     1      19.906  50.804  47.168  1.00  0.00     0.014 A 
ENDBRANCH  26  27
ENDBRANCH   5  26
TORSDOF 7
ENDMDL
MODEL 5
REMARK VINA RESULT:      -9.8      2.249     10.353
REMARK  7 active torsions:
REMARK  status: ('A' for Active; 'I' for Inactive)
REMARK    1  A    between atoms: C_5  and  C_6 
REMARK    2  A    between atoms: C_6  and  C_7 
REMARK    3  A    between atoms: C_7  and  N_8 
REMARK       I    between atoms: N_8  and  C_9 
REMARK    4  A    between atoms: C_9  and  C_10 
REMARK    5  A    between atoms: C_13  and  O_14 
REMARK    6  A    between atoms: C_15  and  C_16 
REMARK    7  A    between atoms: C_16  and  C_17 
ROOT
HETATM    1  C   UNL     1      25.691  45.287  51.385  1.00  0.00     0.099 A 
HETATM    2  C   UNL     1      24.664  45.611  50.516  1.00  0.00     0.171 A 
HETATM    3  N   UNL     1      24.595  46.996  50.497  1.00  0.00    -0.192 N 
HETATM    4  C   UNL     1      23.733  47.666  49.621  1.00  0.00     0.174 C 
HETATM    5  C   UNL     1      22.940  46.971  48.779  1.00  0.00     0.023 C 
HETATM    6  C   UNL     1      22.988  45.470  48.978  1.00  0.00     0.044 C 
HETATM    7  C   UNL     1      21.993  44.596  48.247  1.00  0.00     0.071 C 
HETATM    8  N   UNL     1      23.821  44.843  49.765  1.00  0.00    -0.233 NA
HETATM    9  N   UNL     1      25.476  47.573  51.357  1.00  0.00    -0.175 NA
HETATM   10  C   UNL     1      26.134  46.534  51.877  1.00  0.00     0.160 A 
ENDROOT
BRANCH   1  11
HETATM   11  C   UNL     1      26.215  43.976  51.711  1.00  0.00     0.257 C 
HETATM   12  N   UNL     1      27.417  43.988  52.379  1.00  0.00    -0.356 N 
HETATM   13  H   UNL     1      27.808  44.899  52.614  1.00  0.00     0.162 HD
HETATM   14  O   UNL     1      25.605  42.949  51.434  1.00  0.00    -0.267 OA
BRANCH  12  15
HETATM   15  C   UNL     1      27.997  42.785  52.935  1.00  0.00     0.127 C 
BRANCH  15  16
HETATM   16  C   UNL     1      29.494  42.945  53.191  1.00  0.00     0.058 C 
BRANCH  16  17
HETATM   17  C   UNL     1      29.771  43.713  54.458  1.00  0.00    -0.057 A 
HETATM   18  C   UNL     1      30.807  43.321  55.312  1.00  0.00     0.007 A 
HETATM   19  C   UNL     1      31.049  44.017  56.499  1.00  0.00     0.007 A 
HETATM   20  C   UNL     1      30.252  45.110  56.856  1.00  0.00    -0.062 A 
HETATM   21  C   UNL     1      30.512  45.873  58.120  1.00  0.00     0.048 C 
HETATM   22  C   UNL     1      29.217  45.504  56.000  1.00  0.00     0.007 A 
HETATM   23  C   UNL     1      28.975  44.809  54.814  1.00  0.00     0.007 A 
ENDBRANCH  16  17
ENDBRANCH  15  16
ENDBRANCH  12  15
ENDBRANCH   1  11
BRANCH   4  24
HETATM   24  O   UNL     1      23.775  49.055  49.606  1.00  0.00    -0.344 OA
HETATM   25  H   UNL     1      22.926  49.347  50.006  1.00  0.00     0.219 HD
ENDBRANCH   4  24
BRANCH   5  26
HETATM   26  C   UNL     1      22.088  47.611  47.715  1.00  0.00     0.084 C 
BRANCH  26  27
HETATM   27  C   UNL     1      20.612  47.739  48.060  1.00  0.00    -0.047 A 
HETATM   28  C   UNL     1      19.573  47.375  47.176  1.00  0.00    -0.055 A 
HETATM   29  C   UNL     1      19.829  46.844  45.791  1.00  0.00     0.049 C 
HETATM   30  C   UNL     1      18.240  47.483  47.604  1.00  0.00     0.008 A 
HETATM   31  C   UNL     1      17.925  47.980  48.869  1.00  0.00     0.007 A 
HETATM   32  C   UNL     1      18.937  48.377  49.740  1.00  0.00    -0.061 A 
HETATM   33  C   UNL     1      18.608  48.956  51.084  1.00  0.00     0.048 C 
HETATM   34  C   UNL     1      20.269  48.272  49.322  1.00  0.00     0.014 A 
ENDBRANCH  26  27
ENDBRANCH   5  26
TORSDOF 7
ENDMDL
MODEL 6
REMARK VINA RESULT:      -9.8      1.548      9.979
REMARK  7 active torsions:
REMARK  status: ('A' for Active; 'I' for Inactive)
REMARK    1  A    between atoms: C_5  and  C_6 
REMARK    2  A    between atoms: C_6  and  C_7 
REMARK    3  A    between atoms: C_7  and  N_8 
REMARK       I    between atoms: N_8  and  C_9 
REMARK    4  A    between atoms: C_9  and  C_10 
REMARK    5  A    between atoms: C_13  and  O_14 
REMARK    6  A    between atoms: C_15  and  C_16 
REMARK    7  A    between atoms: C_16  and  C_17 
ROOT
HETATM    1  C   UNL     1      25.677  44.836  51.066  1.00  0.00     0.099 A 
HETATM    2  C   UNL     1      24.668  45.385  50.296  1.00  0.00     0.171 A 
HETATM    3  N   UNL     1      24.743  46.758  50.479  1.00  0.00    -0.192 N 
HETATM    4  C   UNL     1      23.933  47.632  49.745  1.00  0.00     0.174 C 
HETATM    5  C   UNL     1      23.050  47.151  48.846  1.00  0.00     0.023 C 
HETATM    6  C   UNL     1      22.947  45.640  48.825  1.00  0.00     0.044 C 
HETATM    7  C   UNL     1      21.847  44.987  48.017  1.00  0.00     0.071 C 
HETATM    8  N   UNL     1      23.730  44.824  49.477  1.00  0.00    -0.233 NA
HETATM    9  N   UNL     1      25.702  47.111  51.376  1.00  0.00    -0.175 NA
HETATM   10  C   UNL     1      26.262  45.946  51.714  1.00  0.00     0.160 A 
ENDROOT
BRANCH   1  11
HETATM   11  C   UNL     1      26.070  43.445  51.178  1.00  0.00     0.257 C 
HETATM   12  N   UNL     1      27.412  43.244  51.400  1.00  0.00    -0.356 N 
HETATM   13  H   UNL     1      27.995  44.074  51.501  1.00  0.00     0.162 HD
HETATM   14  O   UNL     1      25.251  42.535  51.111  1.00  0.00    -0.267 OA
BRANCH  12  15
HETATM   15  C   UNL     1      27.950  41.938  51.711  1.00  0.00     0.127 C 
BRANCH  15  16
HETATM   16  C   UNL     1      27.869  41.633  53.205  1.00  0.00     0.058 C 
BRANCH  16  17
HETATM   17  C   UNL     1      28.506  42.714  54.037  1.00  0.00    -0.057 A 
HETATM   18  C   UNL     1      27.759  43.819  54.458  1.00  0.00     0.007 A 
HETATM   19  C   UNL     1      28.354  44.835  55.210  1.00  0.00     0.007 A 
HETATM   20  C   UNL     1      29.711  44.767  55.545  1.00  0.00    -0.062 A 
HETATM   21  C   UNL     1      30.358  45.844  56.363  1.00  0.00     0.048 C 
HETATM   22  C   UNL     1      30.459  43.661  55.126  1.00  0.00     0.007 A 
HETATM   23  C   UNL     1      29.864  42.645  54.375  1.00  0.00     0.007 A 
ENDBRANCH  16  17
ENDBRANCH  15  16
ENDBRANCH  12  15
ENDBRANCH   1  11
BRANCH   4  24
HETATM   24  O   UNL     1      24.120  48.997  49.929  1.00  0.00    -0.344 OA
HETATM   25  H   UNL     1      23.345  49.299  50.451  1.00  0.00     0.219 HD
ENDBRANCH   4  24
BRANCH   5  26
HETATM   26  C   UNL     1      22.242  48.023  47.920  1.00  0.00     0.084 C 
BRANCH  26  27
HETATM   27  C   UNL     1      21.313  49.010  48.611  1.00  0.00    -0.047 A 
HETATM   28  C   UNL     1      21.444  50.411  48.493  1.00  0.00    -0.055 A 
HETATM   29  C   UNL     1      22.535  51.064  47.689  1.00  0.00     0.049 C 
HETATM   30  C   UNL     1      20.507  51.242  49.129  1.00  0.00     0.008 A 
HETATM   31  C   UNL     1      19.476  50.709  49.904  1.00  0.00     0.007 A 
HETATM   32  C   UNL     1      19.355  49.330  50.058  1.00  0.00    -0.061 A 
HETATM   33  C   UNL     1      18.279  48.748  50.926  1.00  0.00     0.048 C 
HETATM   34  C   UNL     1      20.284  48.494  49.427  1.00  0.00     0.014 A 
ENDBRANCH  26  27
ENDBRANCH   5  26
TORSDOF 7
ENDMDL
MODEL 7
REMARK VINA RESULT:      -9.8      1.904      3.476
REMARK  7 active torsions:
REMARK  status: ('A' for Active; 'I' for Inactive)
REMARK    1  A    between atoms: C_5  and  C_6 
REMARK    2  A    between atoms: C_6  and  C_7 
REMARK    3  A    between atoms: C_7  and  N_8 
REMARK       I    between atoms: N_8  and  C_9 
REMARK    4  A    between atoms: C_9  and  C_10 
REMARK    5  A    between atoms: C_13  and  O_14 
REMARK    6  A    between atoms: C_15  and  C_16 
REMARK    7  A    between atoms: C_16  and  C_17 
ROOT
HETATM    1  C   UNL     1      24.422  49.103  49.125  1.00  0.00     0.099 A 
HETATM    2  C   UNL     1      24.821  47.837  49.514  1.00  0.00     0.171 A 
HETATM    3  N   UNL     1      26.158  47.725  49.161  1.00  0.00    -0.192 N 
HETATM    4  C   UNL     1      26.911  46.602  49.521  1.00  0.00     0.174 C 
HETATM    5  C   UNL     1      26.343  45.594  50.216  1.00  0.00     0.023 C 
HETATM    6  C   UNL     1      24.851  45.749  50.427  1.00  0.00     0.044 C 
HETATM    7  C   UNL     1      24.063  44.593  51.003  1.00  0.00     0.071 C 
HETATM    8  N   UNL     1      24.156  46.814  50.129  1.00  0.00    -0.233 NA
HETATM    9  N   UNL     1      26.616  48.825  48.507  1.00  0.00    -0.175 NA
HETATM   10  C   UNL     1      25.565  49.649  48.501  1.00  0.00     0.160 A 
ENDROOT
BRANCH   1  11
HETATM   11  C   UNL     1      23.137  49.743  49.322  1.00  0.00     0.257 C 
HETATM   12  N   UNL     1      22.050  48.933  49.088  1.00  0.00    -0.356 N 
HETATM   13  H   UNL     1      22.240  47.964  48.837  1.00  0.00     0.162 HD
HETATM   14  O   UNL     1      23.045  50.906  49.700  1.00  0.00    -0.267 OA
BRANCH  12  15
HETATM   15  C   UNL     1      20.702  49.350  49.402  1.00  0.00     0.127 C 
BRANCH  15  16
HETATM   16  C   UNL     1      20.034  50.047  48.218  1.00  0.00     0.058 C 
BRANCH  16  17
HETATM   17  C   UNL     1      18.751  50.729  48.616  1.00  0.00    -0.057 A 
HETATM   18  C   UNL     1      17.518  50.225  48.190  1.00  0.00     0.007 A 
HETATM   19  C   UNL     1      16.329  50.870  48.538  1.00  0.00     0.007 A 
HETATM   20  C   UNL     1      16.354  52.038  49.308  1.00  0.00    -0.062 A 
HETATM   21  C   UNL     1      15.084  52.732  49.698  1.00  0.00     0.048 C 
HETATM   22  C   UNL     1      17.588  52.542  49.736  1.00  0.00     0.007 A 
HETATM   23  C   UNL     1      18.777  51.896  49.389  1.00  0.00     0.007 A 
ENDBRANCH  16  17
ENDBRANCH  15  16
ENDBRANCH  12  15
ENDBRANCH   1  11
BRANCH   4  24
HETATM   24  O   UNL     1      28.262  46.597  49.198  1.00  0.00    -0.344 OA
HETATM   25  H   UNL     1      28.626  47.426  49.580  1.00  0.00     0.219 HD
ENDBRANCH   4  24
BRANCH   5  26
HETATM   26  C   UNL     1      27.111  44.418  50.760  1.00  0.00     0.084 C 
BRANCH  26  27
HETATM   27  C   UNL     1      27.536  44.541  52.216  1.00  0.00    -0.047 A 
HETATM   28  C   UNL     1      28.350  43.591  52.869  1.00  0.00    -0.055 A 
HETATM   29  C   UNL     1      28.860  42.349  52.192  1.00  0.00     0.049 C 
HETATM   30  C   UNL     1      28.730  43.818  54.203  1.00  0.00     0.008 A 
HETATM   31  C   UNL     1      28.285  44.940  54.901  1.00  0.00     0.007 A 
HETATM   32  C   UNL     1      27.451  45.869  54.280  1.00  0.00    -0.061 A 
HETATM   33  C   UNL     1      26.929  47.055  55.035  1.00  0.00     0.048 C 
HETATM   34  C   UNL     1      27.068  45.652  52.951  1.00  0.00     0.014 A 
ENDBRANCH  26  27
ENDBRANCH   5  26
TORSDOF 7
ENDMDL
MODEL 8
REMARK VINA RESULT:      -9.7      2.020     10.319
REMARK  7 active torsions:
REMARK  status: ('A' for Active; 'I' for Inactive)
REMARK    1  A    between atoms: C_5  and  C_6 
REMARK    2  A    between atoms: C_6  and  C_7 
REMARK    3  A    between atoms: C_7  and  N_8 
REMARK       I    between atoms: N_8  and  C_9 
REMARK    4  A    between atoms: C_9  and  C_10 
REMARK    5  A    between atoms: C_13  and  O_14 
REMARK    6  A    between atoms: C_15  and  C_16 
REMARK    7  A    between atoms: C_16  and  C_17 
ROOT
HETATM    1  C   UNL     1      25.888  46.905  49.805  1.00  0.00     0.099 A 
HETATM    2  C   UNL     1      24.584  46.972  49.347  1.00  0.00     0.171 A 
HETATM    3  N   UNL     1      24.366  48.294  48.989  1.00  0.00    -0.192 N 
HETATM    4  C   UNL     1      23.175  48.690  48.369  1.00  0.00     0.174 C 
HETATM    5  C   UNL     1      22.205  47.787  48.116  1.00  0.00     0.023 C 
HETATM    6  C   UNL     1      22.483  46.405  48.672  1.00  0.00     0.044 C 
HETATM    7  C   UNL     1      21.386  45.363  48.642  1.00  0.00     0.071 C 
HETATM    8  N   UNL     1      23.609  46.025  49.212  1.00  0.00    -0.233 NA
HETATM    9  N   UNL     1      25.437  49.088  49.255  1.00  0.00    -0.175 NA
HETATM   10  C   UNL     1      26.348  48.238  49.737  1.00  0.00     0.160 A 
ENDROOT
BRANCH   1  11
HETATM   11  C   UNL     1      26.631  45.739  50.239  1.00  0.00     0.257 C 
HETATM   12  N   UNL     1      26.193  45.185  51.420  1.00  0.00    -0.356 N 
HETATM   13  H   UNL     1      25.378  45.613  51.858  1.00  0.00     0.162 HD
HETATM   14  O   UNL     1      27.555  45.277  49.577  1.00  0.00    -0.267 OA
BRANCH  12  15
HETATM   15  C   UNL     1      26.701  43.924  51.910  1.00  0.00     0.127 C 
BRANCH  15  16
HETATM   16  C   UNL     1      26.490  43.775  53.415  1.00  0.00     0.058 C 
BRANCH  16  17
HETATM   17  C   UNL     1      27.787  43.848  54.177  1.00  0.00    -0.057 A 
HETATM   18  C   UNL     1      28.116  44.993  54.911  1.00  0.00     0.007 A 
HETATM   19  C   UNL     1      29.329  45.072  55.599  1.00  0.00     0.007 A 
HETATM   20  C   UNL     1      30.240  44.011  55.555  1.00  0.00    -0.062 A 
HETATM   21  C   UNL     1      31.539  44.079  56.300  1.00  0.00     0.048 C 
HETATM   22  C   UNL     1      29.911  42.864  54.823  1.00  0.00     0.007 A 
HETATM   23  C   UNL     1      28.698  42.785  54.136  1.00  0.00     0.007 A 
ENDBRANCH  16  17
ENDBRANCH  15  16
ENDBRANCH  12  15
ENDBRANCH   1  11
BRANCH   4  24
HETATM   24  O   UNL     1      23.061  50.016  47.971  1.00  0.00    -0.344 OA
HETATM   25  H   UNL     1      23.972  50.382  48.016  1.00  0.00     0.219 HD
ENDBRANCH   4  24
BRANCH   5  26
HETATM   26  C   UNL     1      20.956  48.100  47.335  1.00  0.00     0.084 C 
BRANCH  26  27
HETATM   27  C   UNL     1      19.867  48.818  48.117  1.00  0.00    -0.047 A 
HETATM   28  C   UNL     1      19.051  49.828  47.564  1.00  0.00    -0.055 A 
HETATM   29  C   UNL     1      19.197  50.309  46.145  1.00  0.00     0.049 C 
HETATM   30  C   UNL     1      18.038  50.399  48.352  1.00  0.00     0.008 A 
HETATM   31  C   UNL     1      17.852  50.014  49.680  1.00  0.00     0.007 A 
HETATM   32  C   UNL     1      18.673  49.043  50.252  1.00  0.00    -0.061 A 
HETATM   33  C   UNL     1      18.511  48.656  51.691  1.00  0.00     0.048 C 
HETATM   34  C   UNL     1      19.684  48.468  49.473  1.00  0.00     0.014 A 
ENDBRANCH  26  27
ENDBRANCH   5  26
TORSDOF 7
ENDMDL
MODEL 9
REMARK VINA RESULT:      -9.4      1.773     10.650
REMARK  7 active torsions:
REMARK  status: ('A' for Active; 'I' for Inactive)
REMARK    1  A    between atoms: C_5  and  C_6 
REMARK    2  A    between atoms: C_6  and  C_7 
REMARK    3  A    between atoms: C_7  and  N_8 
REMARK       I    between atoms: N_8  and  C_9 
REMARK    4  A    between atoms: C_9  and  C_10 
REMARK    5  A    between atoms: C_13  and  O_14 
REMARK    6  A    between atoms: C_15  and  C_16 
REMARK    7  A    between atoms: C_16  and  C_17 
ROOT
HETATM    1  C   UNL     1      25.386  47.151  49.671  1.00  0.00     0.099 A 
HETATM    2  C   UNL     1      24.200  47.717  49.242  1.00  0.00     0.171 A 
HETATM    3  N   UNL     1      24.510  49.006  48.834  1.00  0.00    -0.192 N 
HETATM    4  C   UNL     1      23.551  49.825  48.226  1.00  0.00     0.174 C 
HETATM    5  C   UNL     1      22.294  49.375  48.034  1.00  0.00     0.023 C 
HETATM    6  C   UNL     1      22.022  48.014  48.640  1.00  0.00     0.044 C 
HETATM    7  C   UNL     1      20.601  47.493  48.679  1.00  0.00     0.071 C 
HETATM    8  N   UNL     1      22.925  47.233  49.169  1.00  0.00    -0.233 NA
HETATM    9  N   UNL     1      25.817  49.316  49.042  1.00  0.00    -0.175 NA
HETATM   10  C   UNL     1      26.334  48.188  49.538  1.00  0.00     0.160 A 
ENDROOT
BRANCH   1  11
HETATM   11  C   UNL     1      25.622  45.798  50.137  1.00  0.00     0.257 C 
HETATM   12  N   UNL     1      26.238  45.713  51.364  1.00  0.00    -0.356 N 
HETATM   13  H   UNL     1      26.438  46.589  51.844  1.00  0.00     0.162 HD
HETATM   14  O   UNL     1      25.265  44.820  49.489  1.00  0.00    -0.267 OA
BRANCH  12  15
HETATM   15  C   UNL     1      26.393  44.454  52.057  1.00  0.00     0.127 C 
BRANCH  15  16
HETATM   16  C   UNL     1      27.741  43.803  51.757  1.00  0.00     0.058 C 
BRANCH  16  17
HETATM   17  C   UNL     1      28.627  43.752  52.974  1.00  0.00    -0.057 A 
HETATM   18  C   UNL     1      28.339  44.537  54.095  1.00  0.00     0.007 A 
HETATM   19  C   UNL     1      29.173  44.509  55.215  1.00  0.00     0.007 A 
HETATM   20  C   UNL     1      30.316  43.702  55.229  1.00  0.00    -0.062 A 
HETATM   21  C   UNL     1      31.211  43.652  56.431  1.00  0.00     0.048 C 
HETATM   22  C   UNL     1      30.604  42.914  54.108  1.00  0.00     0.007 A 
HETATM   23  C   UNL     1      29.769  42.942  52.989  1.00  0.00     0.007 A 
ENDBRANCH  16  17
ENDBRANCH  15  16
ENDBRANCH  12  15
ENDBRANCH   1  11
BRANCH   4  24
HETATM   24  O   UNL     1      23.957  51.074  47.776  1.00  0.00    -0.344 OA
HETATM   25  H   UNL     1      24.661  51.361  48.399  1.00  0.00     0.219 HD
ENDBRANCH   4  24
BRANCH   5  26
HETATM   26  C   UNL     1      21.243  50.136  47.269  1.00  0.00     0.084 C 
BRANCH  26  27
HETATM   27  C   UNL     1      20.036  50.569  48.087  1.00  0.00    -0.047 A 
HETATM   28  C   UNL     1      20.132  51.098  49.392  1.00  0.00    -0.055 A 
HETATM   29  C   UNL     1      21.443  51.262  50.112  1.00  0.00     0.049 C 
HETATM   30  C   UNL     1      18.963  51.517  50.049  1.00  0.00     0.008 A 
HETATM   31  C   UNL     1      17.710  51.383  49.451  1.00  0.00     0.007 A 
HETATM   32  C   UNL     1      17.595  50.831  48.177  1.00  0.00    -0.061 A 
HETATM   33  C   UNL     1      16.249  50.640  47.544  1.00  0.00     0.048 C 
HETATM   34  C   UNL     1      18.755  50.411  47.514  1.00  0.00     0.014 A 
ENDBRANCH  26  27
ENDBRANCH   5  26
TORSDOF 7
ENDMDL
MODEL 10
REMARK VINA RESULT:      -9.2      1.874      2.697
REMARK  7 active torsions:
REMARK  status: ('A' for Active; 'I' for Inactive)
REMARK    1  A    between atoms: C_5  and  C_6 
REMARK    2  A    between atoms: C_6  and  C_7 
REMARK    3  A    between atoms: C_7  and  N_8 
REMARK       I    between atoms: N_8  and  C_9 
REMARK    4  A    between atoms: C_9  and  C_10 
REMARK    5  A    between atoms: C_13  and  O_14 
REMARK    6  A    between atoms: C_15  and  C_16 
REMARK    7  A    between atoms: C_16  and  C_17 
ROOT
HETATM    1  C   UNL     1      22.181  46.467  48.641  1.00  0.00     0.099 A 
HETATM    2  C   UNL     1      23.452  46.344  49.173  1.00  0.00     0.171 A 
HETATM    3  N   UNL     1      23.654  44.989  49.386  1.00  0.00    -0.192 N 
HETATM    4  C   UNL     1      24.895  44.499  49.810  1.00  0.00     0.174 C 
HETATM    5  C   UNL     1      25.923  45.345  50.030  1.00  0.00     0.023 C 
HETATM    6  C   UNL     1      25.559  46.810  49.905  1.00  0.00     0.044 C 
HETATM    7  C   UNL     1      26.563  47.859  50.333  1.00  0.00     0.071 C 
HETATM    8  N   UNL     1      24.416  47.266  49.470  1.00  0.00    -0.233 NA
HETATM    9  N   UNL     1      22.557  44.246  49.084  1.00  0.00    -0.175 NA
HETATM   10  C   UNL     1      21.682  45.146  48.628  1.00  0.00     0.160 A 
ENDROOT
BRANCH   1  11
HETATM   11  C   UNL     1      21.509  47.666  48.181  1.00  0.00     0.257 C 
HETATM   12  N   UNL     1      22.296  48.794  48.161  1.00  0.00    -0.356 N 
HETATM   13  H   UNL     1      23.272  48.682  48.431  1.00  0.00     0.162 HD
HETATM   14  O   UNL     1      20.339  47.650  47.812  1.00  0.00    -0.267 OA
BRANCH  12  15
HETATM   15  C   UNL     1      21.844  50.033  47.570  1.00  0.00     0.127 C 
BRANCH  15  16
HETATM   16  C   UNL     1      21.679  51.133  48.616  1.00  0.00     0.058 C 
BRANCH  16  17
HETATM   17  C   UNL     1      20.230  51.393  48.939  1.00  0.00    -0.057 A 
HETATM   18  C   UNL     1      19.557  50.596  49.870  1.00  0.00     0.007 A 
HETATM   19  C   UNL     1      18.207  50.821  50.153  1.00  0.00     0.007 A 
HETATM   20  C   UNL     1      17.506  51.839  49.499  1.00  0.00    -0.062 A 
HETATM   21  C   UNL     1      16.061  52.099  49.804  1.00  0.00     0.048 C 
HETATM   22  C   UNL     1      18.179  52.638  48.568  1.00  0.00     0.007 A 
HETATM   23  C   UNL     1      19.529  52.414  48.287  1.00  0.00     0.007 A 
ENDBRANCH  16  17
ENDBRANCH  15  16
ENDBRANCH  12  15
ENDBRANCH   1  11
BRANCH   4  24
HETATM   24  O   UNL     1      25.043  43.123  49.929  1.00  0.00    -0.344 OA
HETATM   25  H   UNL     1      25.483  42.834  49.099  1.00  0.00     0.219 HD
ENDBRANCH   4  24
BRANCH   5  26
HETATM   26  C   UNL     1      27.323  44.892  50.354  1.00  0.00     0.084 C 
BRANCH  26  27
HETATM   27  C   UNL     1      27.461  44.092  51.641  1.00  0.00    -0.047 A 
HETATM   28  C   UNL     1      27.051  44.574  52.902  1.00  0.00    -0.055 A 
HETATM   29  C   UNL     1      26.457  45.942  53.100  1.00  0.00     0.049 C 
HETATM   30  C   UNL     1      27.174  43.741  54.027  1.00  0.00     0.008 A 
HETATM   31  C   UNL     1      27.729  42.465  53.924  1.00  0.00     0.007 A 
HETATM   32  C   UNL     1      28.171  41.988  52.691  1.00  0.00    -0.061 A 
HETATM   33  C   UNL     1      28.811  40.637  52.578  1.00  0.00     0.048 C 
HETATM   34  C   UNL     1      28.051  42.812  51.565  1.00  0.00     0.014 A 
ENDBRANCH  26  27
ENDBRANCH   5  26
TORSDOF 7
ENDMDL
