MODEL 1
REMARK VINA RESULT:      -8.6      0.000      0.000
REMARK  5 active torsions:
REMARK  status: ('A' for Active; 'I' for Inactive)
REMARK    1  A    between atoms: C_9  and  C_10 
REMARK    2  A    between atoms: C_10  and  N_11 
REMARK    3  A    between atoms: N_11  and  C_14 
REMARK    4  A    between atoms: C_14  and  C_15 
REMARK    5  A    between atoms: C_16  and  C_17 
ROOT
HETATM    1  C   UNL     1      29.599  43.281  54.102  1.00  0.00    -0.036 A 
HETATM    2  C   UNL     1      30.679  42.960  54.932  1.00  0.00     0.013 A 
HETATM    3  C   UNL     1      30.982  43.766  56.034  1.00  0.00     0.023 A 
HETATM    4  C   UNL     1      30.211  44.900  56.309  1.00  0.00     0.044 A 
HETATM    5  C   UNL     1      30.521  45.722  57.443  1.00  0.00     0.099 C 
HETATM    6  N   UNL     1      30.773  46.382  58.362  1.00  0.00    -0.191 NA
HETATM    7  C   UNL     1      29.136  45.225  55.476  1.00  0.00     0.023 A 
HETATM    8  C   UNL     1      28.830  44.418  54.376  1.00  0.00     0.013 A 
ENDROOT
BRANCH   1   9
HETATM    9  C   UNL     1      29.278  42.418  52.965  1.00  0.00     0.009 C 
HETATM   10  C   UNL     1      28.349  42.778  52.065  1.00  0.00     0.001 C 
BRANCH  10  11
HETATM   11  C   UNL     1      27.964  41.953  50.885  1.00  0.00     0.259 C 
BRANCH  11  12
HETATM   12  N   UNL     1      26.909  42.644  50.095  1.00  0.00    -0.071 N 
HETATM   13  H   UNL     1      25.998  42.352  50.484  1.00  0.00     0.277 HD
HETATM   14  H   UNL     1      26.935  42.267  49.137  1.00  0.00     0.277 HD
BRANCH  12  15
HETATM   15  C   UNL     1      27.033  44.136  50.057  1.00  0.00     0.242 C 
BRANCH  15  16
HETATM   16  C   UNL     1      25.719  44.878  50.404  1.00  0.00     0.055 C 
HETATM   17  C   UNL     1      25.680  45.349  51.843  1.00  0.00    -0.025 A 
HETATM   18  C   UNL     1      25.349  44.471  52.882  1.00  0.00     0.010 A 
HETATM   19  C   UNL     1      26.018  46.677  52.152  1.00  0.00     0.041 A 
HETATM   20  C   UNL     1      25.366  44.917  54.204  1.00  0.00     0.001 A 
HETATM   21  C   UNL     1      25.717  46.235  54.498  1.00  0.00     0.002 A 
HETATM   22  C   UNL     1      26.049  47.118  53.472  1.00  0.00     0.030 A 
HETATM   23  N   UNL     1      26.407  47.544  51.125  1.00  0.00    -0.327 N 
HETATM   24  C   UNL     1      26.334  47.210  49.801  1.00  0.00     0.222 C 
HETATM   25  H   UNL     1      26.845  48.432  51.351  1.00  0.00     0.169 HD
HETATM   26  O   UNL     1      27.050  47.741  48.960  1.00  0.00    -0.273 OA
HETATM   27  C   UNL     1      25.433  46.050  49.468  1.00  0.00     0.114 C 
ENDBRANCH  15  16
ENDBRANCH  12  15
ENDBRANCH  11  12
ENDBRANCH  10  11
ENDBRANCH   1   9
TORSDOF 5
ENDMDL
MODEL 2
REMARK VINA RESULT:      -8.3     12.359     14.041
REMARK  5 active torsions:
REMARK  status: ('A' for Active; 'I' for Inactive)
REMARK    1  A    between atoms: C_9  and  C_10 
REMARK    2  A    between atoms: C_10  and  N_11 
REMARK    3  A    between atoms: N_11  and  C_14 
REMARK    4  A    between atoms: C_14  and  C_15 
REMARK    5  A    between atoms: C_16  and  C_17 
ROOT
HETATM    1  C   UNL     1      32.170  49.746  42.315  1.00  0.00    -0.036 A 
HETATM    2  C   UNL     1      31.979  50.692  43.328  1.00  0.00     0.013 A 
HETATM    3  C   UNL     1      33.030  51.527  43.718  1.00  0.00     0.023 A 
HETATM    4  C   UNL     1      34.281  51.415  43.102  1.00  0.00     0.044 A 
HETATM    5  C   UNL     1      35.357  52.276  43.500  1.00  0.00     0.099 C 
HETATM    6  N   UNL     1      36.224  52.976  43.822  1.00  0.00    -0.191 NA
HETATM    7  C   UNL     1      34.475  50.465  42.094  1.00  0.00     0.023 A 
HETATM    8  C   UNL     1      33.422  49.633  41.702  1.00  0.00     0.013 A 
ENDROOT
BRANCH   1   9
HETATM    9  C   UNL     1      31.055  48.893  41.900  1.00  0.00     0.009 C 
HETATM   10  C   UNL     1      29.783  49.272  42.103  1.00  0.00     0.001 C 
BRANCH  10  11
HETATM   11  C   UNL     1      28.596  48.460  41.713  1.00  0.00     0.259 C 
BRANCH  11  12
HETATM   12  N   UNL     1      27.586  49.315  41.034  1.00  0.00    -0.071 N 
HETATM   13  H   UNL     1      26.655  48.943  41.284  1.00  0.00     0.277 HD
HETATM   14  H   UNL     1      27.679  49.169  40.019  1.00  0.00     0.277 HD
BRANCH  12  15
HETATM   15  C   UNL     1      27.691  50.776  41.348  1.00  0.00     0.242 C 
BRANCH  15  16
HETATM   16  C   UNL     1      28.002  51.656  40.113  1.00  0.00     0.055 C 
HETATM   17  C   UNL     1      29.451  52.095  40.062  1.00  0.00    -0.025 A 
HETATM   18  C   UNL     1      29.908  53.173  40.829  1.00  0.00     0.010 A 
HETATM   19  C   UNL     1      30.366  51.388  39.264  1.00  0.00     0.041 A 
HETATM   20  C   UNL     1      31.257  53.527  40.801  1.00  0.00     0.001 A 
HETATM   21  C   UNL     1      32.158  52.809  40.014  1.00  0.00     0.002 A 
HETATM   22  C   UNL     1      31.715  51.733  39.246  1.00  0.00     0.030 A 
HETATM   23  N   UNL     1      29.929  50.273  38.540  1.00  0.00    -0.327 N 
HETATM   24  C   UNL     1      28.613  49.914  38.448  1.00  0.00     0.222 C 
HETATM   25  H   UNL     1      30.608  49.640  38.128  1.00  0.00     0.169 HD
HETATM   26  O   UNL     1      28.273  48.760  38.218  1.00  0.00    -0.273 OA
HETATM   27  C   UNL     1      27.617  50.989  38.795  1.00  0.00     0.114 C 
ENDBRANCH  15  16
ENDBRANCH  12  15
ENDBRANCH  11  12
ENDBRANCH  10  11
ENDBRANCH   1   9
TORSDOF 5
ENDMDL
MODEL 3
REMARK VINA RESULT:      -8.0      1.859      2.318
REMARK  5 active torsions:
REMARK  status: ('A' for Active; 'I' for Inactive)
REMARK    1  A    between atoms: C_9  and  C_10 
REMARK    2  A    between atoms: C_10  and  N_11 
REMARK    3  A    between atoms: N_11  and  C_14 
REMARK    4  A    between atoms: C_14  and  C_15 
REMARK    5  A    between atoms: C_16  and  C_17 
ROOT
HETATM    1  C   UNL     1      29.151  43.681  53.921  1.00  0.00    -0.036 A 
HETATM    2  C   UNL     1      28.802  44.841  54.621  1.00  0.00     0.013 A 
HETATM    3  C   UNL     1      29.447  45.161  55.819  1.00  0.00     0.023 A 
HETATM    4  C   UNL     1      30.442  44.320  56.327  1.00  0.00     0.044 A 
HETATM    5  C   UNL     1      31.107  44.653  57.554  1.00  0.00     0.099 C 
HETATM    6  N   UNL     1      31.645  44.928  58.544  1.00  0.00    -0.191 NA
HETATM    7  C   UNL     1      30.788  43.157  55.632  1.00  0.00     0.023 A 
HETATM    8  C   UNL     1      30.145  42.838  54.432  1.00  0.00     0.013 A 
ENDROOT
BRANCH   1   9
HETATM    9  C   UNL     1      28.484  43.368  52.657  1.00  0.00     0.009 C 
HETATM   10  C   UNL     1      28.280  42.096  52.279  1.00  0.00     0.001 C 
BRANCH  10  11
HETATM   11  C   UNL     1      27.614  41.697  51.007  1.00  0.00     0.259 C 
BRANCH  11  12
HETATM   12  N   UNL     1      26.137  41.667  51.186  1.00  0.00    -0.071 N 
HETATM   13  H   UNL     1      25.941  41.976  52.152  1.00  0.00     0.277 HD
HETATM   14  H   UNL     1      25.834  40.684  51.142  1.00  0.00     0.277 HD
BRANCH  12  15
HETATM   15  C   UNL     1      25.370  42.479  50.188  1.00  0.00     0.242 C 
BRANCH  15  16
HETATM   16  C   UNL     1      24.203  43.286  50.808  1.00  0.00     0.055 C 
HETATM   17  C   UNL     1      24.661  44.593  51.420  1.00  0.00    -0.025 A 
HETATM   18  C   UNL     1      25.241  44.632  52.694  1.00  0.00     0.010 A 
HETATM   19  C   UNL     1      24.541  45.787  50.688  1.00  0.00     0.041 A 
HETATM   20  C   UNL     1      25.697  45.842  53.216  1.00  0.00     0.001 A 
HETATM   21  C   UNL     1      25.585  47.018  52.473  1.00  0.00     0.002 A 
HETATM   22  C   UNL     1      25.010  46.992  51.203  1.00  0.00     0.030 A 
HETATM   23  N   UNL     1      24.017  45.747  49.391  1.00  0.00    -0.327 N 
HETATM   24  C   UNL     1      23.472  44.621  48.842  1.00  0.00     0.222 C 
HETATM   25  H   UNL     1      24.113  46.555  48.782  1.00  0.00     0.169 HD
HETATM   26  O   UNL     1      23.427  44.449  47.629  1.00  0.00    -0.273 OA
HETATM   27  C   UNL     1      23.070  43.546  49.819  1.00  0.00     0.114 C 
ENDBRANCH  15  16
ENDBRANCH  12  15
ENDBRANCH  11  12
ENDBRANCH  10  11
ENDBRANCH   1   9
TORSDOF 5
ENDMDL
MODEL 4
REMARK VINA RESULT:      -7.7      2.188      3.608
REMARK  5 active torsions:
REMARK  status: ('A' for Active; 'I' for Inactive)
REMARK    1  A    between atoms: C_9  and  C_10 
REMARK    2  A    between atoms: C_10  and  N_11 
REMARK    3  A    between atoms: N_11  and  C_14 
REMARK    4  A    between atoms: C_14  and  C_15 
REMARK    5  A    between atoms: C_16  and  C_17 
ROOT
HETATM    1  C   UNL     1      28.707  43.745  53.414  1.00  0.00    -0.036 A 
HETATM    2  C   UNL     1      28.566  44.696  54.431  1.00  0.00     0.013 A 
HETATM    3  C   UNL     1      29.454  44.707  55.511  1.00  0.00     0.023 A 
HETATM    4  C   UNL     1      30.483  43.763  55.584  1.00  0.00     0.044 A 
HETATM    5  C   UNL     1      31.396  43.778  56.691  1.00  0.00     0.099 C 
HETATM    6  N   UNL     1      32.133  43.797  57.585  1.00  0.00    -0.191 NA
HETATM    7  C   UNL     1      30.621  42.808  54.572  1.00  0.00     0.023 A 
HETATM    8  C   UNL     1      29.735  42.799  53.490  1.00  0.00     0.013 A 
ENDROOT
BRANCH   1   9
HETATM    9  C   UNL     1      27.786  43.758  52.277  1.00  0.00     0.009 C 
HETATM   10  C   UNL     1      27.276  42.617  51.787  1.00  0.00     0.001 C 
BRANCH  10  11
HETATM   11  C   UNL     1      26.337  42.547  50.633  1.00  0.00     0.259 C 
BRANCH  11  12
HETATM   12  N   UNL     1      24.930  42.655  51.103  1.00  0.00    -0.071 N 
HETATM   13  H   UNL     1      24.903  42.290  52.069  1.00  0.00     0.277 HD
HETATM   14  H   UNL     1      24.359  42.005  50.544  1.00  0.00     0.277 HD
BRANCH  12  15
HETATM   15  C   UNL     1      24.350  44.034  51.027  1.00  0.00     0.242 C 
BRANCH  15  16
HETATM   16  C   UNL     1      24.932  44.891  49.877  1.00  0.00     0.055 C 
HETATM   17  C   UNL     1      23.861  45.427  48.951  1.00  0.00    -0.025 A 
HETATM   18  C   UNL     1      23.305  44.625  47.947  1.00  0.00     0.010 A 
HETATM   19  C   UNL     1      23.383  46.737  49.121  1.00  0.00     0.041 A 
HETATM   20  C   UNL     1      22.286  45.127  47.137  1.00  0.00     0.001 A 
HETATM   21  C   UNL     1      21.811  46.425  47.325  1.00  0.00     0.002 A 
HETATM   22  C   UNL     1      22.355  47.233  48.322  1.00  0.00     0.030 A 
HETATM   23  N   UNL     1      23.891  47.525  50.159  1.00  0.00    -0.327 N 
HETATM   24  C   UNL     1      24.946  47.139  50.939  1.00  0.00     0.222 C 
HETATM   25  H   UNL     1      23.418  48.385  50.420  1.00  0.00     0.169 HD
HETATM   26  O   UNL     1      25.105  47.575  52.073  1.00  0.00    -0.273 OA
HETATM   27  C   UNL     1      25.807  46.039  50.375  1.00  0.00     0.114 C 
ENDBRANCH  15  16
ENDBRANCH  12  15
ENDBRANCH  11  12
ENDBRANCH  10  11
ENDBRANCH   1   9
TORSDOF 5
ENDMDL
MODEL 5
REMARK VINA RESULT:      -7.7      2.127      4.066
REMARK  5 active torsions:
REMARK  status: ('A' for Active; 'I' for Inactive)
REMARK    1  A    between atoms: C_9  and  C_10 
REMARK    2  A    between atoms: C_10  and  N_11 
REMARK    3  A    between atoms: N_11  and  C_14 
REMARK    4  A    between atoms: C_14  and  C_15 
REMARK    5  A    between atoms: C_16  and  C_17 
ROOT
HETATM    1  C   UNL     1      28.404  44.917  54.409  1.00  0.00    -0.036 A 
HETATM    2  C   UNL     1      28.894  45.727  55.439  1.00  0.00     0.013 A 
HETATM    3  C   UNL     1      29.944  45.280  56.246  1.00  0.00     0.023 A 
HETATM    4  C   UNL     1      30.507  44.018  56.032  1.00  0.00     0.044 A 
HETATM    5  C   UNL     1      31.588  43.564  56.858  1.00  0.00     0.099 C 
HETATM    6  N   UNL     1      32.464  43.202  57.526  1.00  0.00    -0.191 NA
HETATM    7  C   UNL     1      30.015  43.205  55.007  1.00  0.00     0.023 A 
HETATM    8  C   UNL     1      28.966  43.653  54.197  1.00  0.00     0.013 A 
ENDROOT
BRANCH   1   9
HETATM    9  C   UNL     1      27.320  45.405  53.556  1.00  0.00     0.009 C 
HETATM   10  C   UNL     1      26.673  46.545  53.845  1.00  0.00     0.001 C 
BRANCH  10  11
HETATM   11  C   UNL     1      25.558  47.105  53.030  1.00  0.00     0.259 C 
BRANCH  11  12
HETATM   12  N   UNL     1      25.709  46.705  51.605  1.00  0.00    -0.071 N 
HETATM   13  H   UNL     1      26.691  46.413  51.473  1.00  0.00     0.277 HD
HETATM   14  H   UNL     1      25.591  47.549  51.027  1.00  0.00     0.277 HD
BRANCH  12  15
HETATM   15  C   UNL     1      24.758  45.641  51.150  1.00  0.00     0.242 C 
BRANCH  15  16
HETATM   16  C   UNL     1      25.229  44.887  49.883  1.00  0.00     0.055 C 
HETATM   17  C   UNL     1      25.841  43.539  50.203  1.00  0.00    -0.025 A 
HETATM   18  C   UNL     1      27.165  43.433  50.644  1.00  0.00     0.010 A 
HETATM   19  C   UNL     1      25.061  42.375  50.095  1.00  0.00     0.041 A 
HETATM   20  C   UNL     1      27.691  42.184  50.978  1.00  0.00     0.001 A 
HETATM   21  C   UNL     1      26.902  41.038  50.879  1.00  0.00     0.002 A 
HETATM   22  C   UNL     1      25.582  41.131  50.441  1.00  0.00     0.030 A 
HETATM   23  N   UNL     1      23.720  42.480  49.711  1.00  0.00    -0.327 N 
HETATM   24  C   UNL     1      23.156  43.650  49.287  1.00  0.00     0.222 C 
HETATM   25  H   UNL     1      23.097  41.685  49.825  1.00  0.00     0.169 HD
HETATM   26  O   UNL     1      21.951  43.857  49.378  1.00  0.00    -0.273 OA
HETATM   27  C   UNL     1      24.121  44.719  48.846  1.00  0.00     0.114 C 
ENDBRANCH  15  16
ENDBRANCH  12  15
ENDBRANCH  11  12
ENDBRANCH  10  11
ENDBRANCH   1   9
TORSDOF 5
ENDMDL
MODEL 6
REMARK VINA RESULT:      -7.5     13.265     15.602
REMARK  5 active torsions:
REMARK  status: ('A' for Active; 'I' for Inactive)
REMARK    1  A    between atoms: C_9  and  C_10 
REMARK    2  A    between atoms: C_10  and  N_11 
REMARK    3  A    between atoms: N_11  and  C_14 
REMARK    4  A    between atoms: C_14  and  C_15 
REMARK    5  A    between atoms: C_16  and  C_17 
ROOT
HETATM    1  C   UNL     1      28.068  51.352  39.377  1.00  0.00    -0.036 A 
HETATM    2  C   UNL     1      27.726  50.661  40.544  1.00  0.00     0.013 A 
HETATM    3  C   UNL     1      26.728  49.682  40.514  1.00  0.00     0.023 A 
HETATM    4  C   UNL     1      26.062  49.394  39.319  1.00  0.00     0.044 A 
HETATM    5  C   UNL     1      25.042  48.386  39.289  1.00  0.00     0.099 C 
HETATM    6  N   UNL     1      24.220  47.568  39.269  1.00  0.00    -0.191 NA
HETATM    7  C   UNL     1      26.399  50.089  38.153  1.00  0.00     0.023 A 
HETATM    8  C   UNL     1      27.399  51.065  38.182  1.00  0.00     0.013 A 
ENDROOT
BRANCH   1   9
HETATM    9  C   UNL     1      29.130  52.358  39.416  1.00  0.00     0.009 C 
HETATM   10  C   UNL     1      29.656  52.764  40.583  1.00  0.00     0.001 C 
BRANCH  10  11
HETATM   11  C   UNL     1      30.735  53.784  40.705  1.00  0.00     0.259 C 
BRANCH  11  12
HETATM   12  N   UNL     1      32.000  53.146  41.158  1.00  0.00    -0.071 N 
HETATM   13  H   UNL     1      32.551  53.873  41.643  1.00  0.00     0.277 HD
HETATM   14  H   UNL     1      32.545  52.898  40.320  1.00  0.00     0.277 HD
BRANCH  12  15
HETATM   15  C   UNL     1      31.816  51.936  42.021  1.00  0.00     0.242 C 
BRANCH  15  16
HETATM   16  C   UNL     1      32.575  50.687  41.511  1.00  0.00     0.055 C 
HETATM   17  C   UNL     1      31.659  49.679  40.849  1.00  0.00    -0.025 A 
HETATM   18  C   UNL     1      30.895  48.788  41.611  1.00  0.00     0.010 A 
HETATM   19  C   UNL     1      31.539  49.658  39.449  1.00  0.00     0.041 A 
HETATM   20  C   UNL     1      30.022  47.901  40.979  1.00  0.00     0.001 A 
HETATM   21  C   UNL     1      29.902  47.900  39.589  1.00  0.00     0.002 A 
HETATM   22  C   UNL     1      30.658  48.783  38.820  1.00  0.00     0.030 A 
HETATM   23  N   UNL     1      32.255  50.585  38.685  1.00  0.00    -0.327 N 
HETATM   24  C   UNL     1      33.191  51.427  39.219  1.00  0.00     0.222 C 
HETATM   25  H   UNL     1      32.026  50.717  37.703  1.00  0.00     0.169 HD
HETATM   26  O   UNL     1      33.481  52.492  38.686  1.00  0.00    -0.273 OA
HETATM   27  C   UNL     1      33.727  51.035  40.570  1.00  0.00     0.114 C 
ENDBRANCH  15  16
ENDBRANCH  12  15
ENDBRANCH  11  12
ENDBRANCH  10  11
ENDBRANCH   1   9
TORSDOF 5
ENDMDL
MODEL 7
REMARK VINA RESULT:      -7.5      2.126      2.947
REMARK  5 active torsions:
REMARK  status: ('A' for Active; 'I' for Inactive)
REMARK    1  A    between atoms: C_9  and  C_10 
REMARK    2  A    between atoms: C_10  and  N_11 
REMARK    3  A    between atoms: N_11  and  C_14 
REMARK    4  A    between atoms: C_14  and  C_15 
REMARK    5  A    between atoms: C_16  and  C_17 
ROOT
HETATM    1  C   UNL     1      29.506  43.378  53.823  1.00  0.00    -0.036 A 
HETATM    2  C   UNL     1      30.581  43.046  54.656  1.00  0.00     0.013 A 
HETATM    3  C   UNL     1      30.847  43.808  55.797  1.00  0.00     0.023 A 
HETATM    4  C   UNL     1      30.045  44.909  56.110  1.00  0.00     0.044 A 
HETATM    5  C   UNL     1      30.317  45.687  57.284  1.00  0.00     0.099 C 
HETATM    6  N   UNL     1      30.539  46.310  58.236  1.00  0.00    -0.191 NA
HETATM    7  C   UNL     1      28.974  45.246  55.276  1.00  0.00     0.023 A 
HETATM    8  C   UNL     1      28.705  44.482  54.136  1.00  0.00     0.013 A 
ENDROOT
BRANCH   1   9
HETATM    9  C   UNL     1      29.223  42.559  52.644  1.00  0.00     0.009 C 
HETATM   10  C   UNL     1      28.189  42.844  51.836  1.00  0.00     0.001 C 
BRANCH  10  11
HETATM   11  C   UNL     1      27.834  42.058  50.621  1.00  0.00     0.259 C 
BRANCH  11  12
HETATM   12  N   UNL     1      26.407  42.278  50.262  1.00  0.00    -0.071 N 
HETATM   13  H   UNL     1      25.846  42.069  51.104  1.00  0.00     0.277 HD
HETATM   14  H   UNL     1      26.143  41.564  49.568  1.00  0.00     0.277 HD
BRANCH  12  15
HETATM   15  C   UNL     1      26.101  43.643  49.728  1.00  0.00     0.242 C 
BRANCH  15  16
HETATM   16  C   UNL     1      25.350  44.550  50.733  1.00  0.00     0.055 C 
HETATM   17  C   UNL     1      25.206  45.974  50.237  1.00  0.00    -0.025 A 
HETATM   18  C   UNL     1      26.262  46.887  50.346  1.00  0.00     0.010 A 
HETATM   19  C   UNL     1      24.011  46.382  49.622  1.00  0.00     0.041 A 
HETATM   20  C   UNL     1      26.121  48.179  49.838  1.00  0.00     0.001 A 
HETATM   21  C   UNL     1      24.934  48.567  49.217  1.00  0.00     0.002 A 
HETATM   22  C   UNL     1      23.876  47.667  49.102  1.00  0.00     0.030 A 
HETATM   23  N   UNL     1      22.973  45.458  49.457  1.00  0.00    -0.327 N 
HETATM   24  C   UNL     1      23.000  44.203  49.999  1.00  0.00     0.222 C 
HETATM   25  H   UNL     1      22.195  45.675  48.840  1.00  0.00     0.169 HD
HETATM   26  O   UNL     1      22.356  43.278  49.519  1.00  0.00    -0.273 OA
HETATM   27  C   UNL     1      23.981  43.998  51.124  1.00  0.00     0.114 C 
ENDBRANCH  15  16
ENDBRANCH  12  15
ENDBRANCH  11  12
ENDBRANCH  10  11
ENDBRANCH   1   9
TORSDOF 5
ENDMDL
MODEL 8
REMARK VINA RESULT:      -7.4      3.056      5.113
REMARK  5 active torsions:
REMARK  status: ('A' for Active; 'I' for Inactive)
REMARK    1  A    between atoms: C_9  and  C_10 
REMARK    2  A    between atoms: C_10  and  N_11 
REMARK    3  A    between atoms: N_11  and  C_14 
REMARK    4  A    between atoms: C_14  and  C_15 
REMARK    5  A    between atoms: C_16  and  C_17 
ROOT
HETATM    1  C   UNL     1      28.671  43.746  53.302  1.00  0.00    -0.036 A 
HETATM    2  C   UNL     1      28.489  44.644  54.360  1.00  0.00     0.013 A 
HETATM    3  C   UNL     1      29.361  44.629  55.452  1.00  0.00     0.023 A 
HETATM    4  C   UNL     1      30.416  43.713  55.497  1.00  0.00     0.044 A 
HETATM    5  C   UNL     1      31.313  43.703  56.616  1.00  0.00     0.099 C 
HETATM    6  N   UNL     1      32.038  43.701  57.521  1.00  0.00    -0.191 NA
HETATM    7  C   UNL     1      30.596  42.812  54.443  1.00  0.00     0.023 A 
HETATM    8  C   UNL     1      29.726  42.828  53.348  1.00  0.00     0.013 A 
ENDROOT
BRANCH   1   9
HETATM    9  C   UNL     1      27.765  43.787  52.153  1.00  0.00     0.009 C 
HETATM   10  C   UNL     1      26.862  44.771  52.019  1.00  0.00     0.001 C 
BRANCH  10  11
HETATM   11  C   UNL     1      25.905  44.880  50.882  1.00  0.00     0.259 C 
BRANCH  11  12
HETATM   12  N   UNL     1      24.657  44.128  51.185  1.00  0.00    -0.071 N 
HETATM   13  H   UNL     1      23.866  44.715  50.876  1.00  0.00     0.277 HD
HETATM   14  H   UNL     1      24.570  44.060  52.209  1.00  0.00     0.277 HD
BRANCH  12  15
HETATM   15  C   UNL     1      24.590  42.760  50.578  1.00  0.00     0.242 C 
BRANCH  15  16
HETATM   16  C   UNL     1      25.072  42.707  49.108  1.00  0.00     0.055 C 
HETATM   17  C   UNL     1      26.025  41.559  48.850  1.00  0.00    -0.025 A 
HETATM   18  C   UNL     1      27.379  41.653  49.193  1.00  0.00     0.010 A 
HETATM   19  C   UNL     1      25.543  40.363  48.293  1.00  0.00     0.041 A 
HETATM   20  C   UNL     1      28.227  40.564  48.988  1.00  0.00     0.001 A 
HETATM   21  C   UNL     1      27.732  39.377  48.447  1.00  0.00     0.002 A 
HETATM   22  C   UNL     1      26.386  39.271  48.103  1.00  0.00     0.030 A 
HETATM   23  N   UNL     1      24.179  40.241  48.003  1.00  0.00    -0.327 N 
HETATM   24  C   UNL     1      23.302  41.286  48.094  1.00  0.00     0.222 C 
HETATM   25  H   UNL     1      23.785  39.327  47.796  1.00  0.00     0.169 HD
HETATM   26  O   UNL     1      22.103  41.109  48.277  1.00  0.00    -0.273 OA
HETATM   27  C   UNL     1      23.921  42.659  48.106  1.00  0.00     0.114 C 
ENDBRANCH  15  16
ENDBRANCH  12  15
ENDBRANCH  11  12
ENDBRANCH  10  11
ENDBRANCH   1   9
TORSDOF 5
ENDMDL
MODEL 9
REMARK VINA RESULT:      -7.4     12.275     14.825
REMARK  5 active torsions:
REMARK  status: ('A' for Active; 'I' for Inactive)
REMARK    1  A    between atoms: C_9  and  C_10 
REMARK    2  A    between atoms: C_10  and  N_11 
REMARK    3  A    between atoms: N_11  and  C_14 
REMARK    4  A    between atoms: C_14  and  C_15 
REMARK    5  A    between atoms: C_16  and  C_17 
ROOT
HETATM    1  C   UNL     1      30.090  51.347  39.235  1.00  0.00    -0.036 A 
HETATM    2  C   UNL     1      30.396  52.277  40.235  1.00  0.00     0.013 A 
HETATM    3  C   UNL     1      31.686  52.808  40.329  1.00  0.00     0.023 A 
HETATM    4  C   UNL     1      32.679  52.407  39.430  1.00  0.00     0.044 A 
HETATM    5  C   UNL     1      34.000  52.956  39.525  1.00  0.00     0.099 C 
HETATM    6  N   UNL     1      35.067  53.405  39.605  1.00  0.00    -0.191 NA
HETATM    7  C   UNL     1      32.375  51.473  38.434  1.00  0.00     0.023 A 
HETATM    8  C   UNL     1      31.084  50.944  38.337  1.00  0.00     0.013 A 
ENDROOT
BRANCH   1   9
HETATM    9  C   UNL     1      28.730  50.816  39.132  1.00  0.00     0.009 C 
HETATM   10  C   UNL     1      28.441  49.815  38.285  1.00  0.00     0.001 C 
BRANCH  10  11
HETATM   11  C   UNL     1      27.084  49.224  38.120  1.00  0.00     0.259 C 
BRANCH  11  12
HETATM   12  N   UNL     1      27.137  47.748  38.298  1.00  0.00    -0.071 N 
HETATM   13  H   UNL     1      26.511  47.333  37.589  1.00  0.00     0.277 HD
HETATM   14  H   UNL     1      26.713  47.524  39.209  1.00  0.00     0.277 HD
BRANCH  12  15
HETATM   15  C   UNL     1      28.512  47.159  38.220  1.00  0.00     0.242 C 
BRANCH  15  16
HETATM   16  C   UNL     1      28.972  46.477  39.531  1.00  0.00     0.055 C 
HETATM   17  C   UNL     1      29.860  47.370  40.372  1.00  0.00    -0.025 A 
HETATM   18  C   UNL     1      31.222  47.515  40.080  1.00  0.00     0.010 A 
HETATM   19  C   UNL     1      29.308  48.098  41.439  1.00  0.00     0.041 A 
HETATM   20  C   UNL     1      32.009  48.381  40.840  1.00  0.00     0.001 A 
HETATM   21  C   UNL     1      31.445  49.109  41.889  1.00  0.00     0.002 A 
HETATM   22  C   UNL     1      30.091  48.973  42.188  1.00  0.00     0.030 A 
HETATM   23  N   UNL     1      27.937  48.004  41.699  1.00  0.00    -0.327 N 
HETATM   24  C   UNL     1      27.117  47.117  41.057  1.00  0.00     0.222 C 
HETATM   25  H   UNL     1      27.493  48.670  42.325  1.00  0.00     0.169 HD
HETATM   26  O   UNL     1      25.913  47.317  40.944  1.00  0.00    -0.273 OA
HETATM   27  C   UNL     1      27.806  45.965  40.375  1.00  0.00     0.114 C 
ENDBRANCH  15  16
ENDBRANCH  12  15
ENDBRANCH  11  12
ENDBRANCH  10  11
ENDBRANCH   1   9
TORSDOF 5
ENDMDL
MODEL 10
REMARK VINA RESULT:      -7.3     14.830     16.670
REMARK  5 active torsions:
REMARK  status: ('A' for Active; 'I' for Inactive)
REMARK    1  A    between atoms: C_9  and  C_10 
REMARK    2  A    between atoms: C_10  and  N_11 
REMARK    3  A    between atoms: N_11  and  C_14 
REMARK    4  A    between atoms: C_14  and  C_15 
REMARK    5  A    between atoms: C_16  and  C_17 
ROOT
HETATM    1  C   UNL     1      36.326  47.297  65.643  1.00  0.00    -0.036 A 
HETATM    2  C   UNL     1      36.832  47.965  64.523  1.00  0.00     0.013 A 
HETATM    3  C   UNL     1      37.562  49.147  64.679  1.00  0.00     0.023 A 
HETATM    4  C   UNL     1      37.785  49.672  65.956  1.00  0.00     0.044 A 
HETATM    5  C   UNL     1      38.538  50.882  66.115  1.00  0.00     0.099 C 
HETATM    6  N   UNL     1      39.151  51.859  66.239  1.00  0.00    -0.191 NA
HETATM    7  C   UNL     1      37.274  49.008  67.076  1.00  0.00     0.023 A 
HETATM    8  C   UNL     1      36.547  47.824  66.921  1.00  0.00     0.013 A 
ENDROOT
BRANCH   1   9
HETATM    9  C   UNL     1      35.583  46.048  65.468  1.00  0.00     0.009 C 
HETATM   10  C   UNL     1      35.776  45.008  66.295  1.00  0.00     0.001 C 
BRANCH  10  11
HETATM   11  C   UNL     1      35.063  43.705  66.180  1.00  0.00     0.259 C 
BRANCH  11  12
HETATM   12  N   UNL     1      35.656  42.886  65.089  1.00  0.00    -0.071 N 
HETATM   13  H   UNL     1      35.258  43.230  64.200  1.00  0.00     0.277 HD
HETATM   14  H   UNL     1      35.308  41.922  65.194  1.00  0.00     0.277 HD
BRANCH  12  15
HETATM   15  C   UNL     1      37.153  42.884  65.052  1.00  0.00     0.242 C 
BRANCH  15  16
HETATM   16  C   UNL     1      37.743  43.418  63.724  1.00  0.00     0.055 C 
HETATM   17  C   UNL     1      39.054  44.150  63.923  1.00  0.00    -0.025 A 
HETATM   18  C   UNL     1      39.080  45.479  64.362  1.00  0.00     0.010 A 
HETATM   19  C   UNL     1      40.268  43.479  63.705  1.00  0.00     0.041 A 
HETATM   20  C   UNL     1      40.302  46.116  64.583  1.00  0.00     0.001 A 
HETATM   21  C   UNL     1      41.501  45.434  64.375  1.00  0.00     0.002 A 
HETATM   22  C   UNL     1      41.487  44.110  63.939  1.00  0.00     0.030 A 
HETATM   23  N   UNL     1      40.250  42.133  63.323  1.00  0.00    -0.327 N 
HETATM   24  C   UNL     1      39.101  41.464  63.005  1.00  0.00     0.222 C 
HETATM   25  H   UNL     1      41.105  41.584  63.361  1.00  0.00     0.169 HD
HETATM   26  O   UNL     1      39.012  40.246  63.107  1.00  0.00    -0.273 OA
HETATM   27  C   UNL     1      37.914  42.328  62.669  1.00  0.00     0.114 C 
ENDBRANCH  15  16
ENDBRANCH  12  15
ENDBRANCH  11  12
ENDBRANCH  10  11
ENDBRANCH   1   9
TORSDOF 5
ENDMDL
