MODEL 1
REMARK VINA RESULT:      -8.9      0.000      0.000
REMARK  6 active torsions:
REMARK  status: ('A' for Active; 'I' for Inactive)
REMARK    1  A    between atoms: O_2  and  C_3 
REMARK    2  A    between atoms: C_7  and  C_8 
REMARK    3  A    between atoms: C_8  and  C_9 
REMARK       I    between atoms: C_9  and  N_10 
REMARK    4  A    between atoms: N_10  and  C_11 
REMARK    5  A    between atoms: C_12  and  C_13 
REMARK       I    between atoms: C_13  and  N_14 
REMARK    6  A    between atoms: N_14  and  C_15 
ROOT
HETATM    1  C   UNL     1      24.888  45.744  50.460  1.00  0.00     0.226 C 
HETATM    2  N   UNL     1      24.983  47.110  50.658  1.00  0.00    -0.326 N 
HETATM    3  O   UNL     1      25.049  45.171  49.385  1.00  0.00    -0.273 OA
HETATM    4  H   UNL     1      24.592  47.476  51.522  1.00  0.00     0.169 HD
ENDROOT
BRANCH   2   5
HETATM    5  C   UNL     1      25.532  48.067  49.764  1.00  0.00     0.050 A 
HETATM    6  C   UNL     1      24.681  48.935  49.052  1.00  0.00     0.058 A 
HETATM    7  C   UNL     1      25.203  49.980  48.274  1.00  0.00     0.019 A 
HETATM    8  C   UNL     1      26.580  50.149  48.167  1.00  0.00     0.001 A 
HETATM    9  C   UNL     1      27.433  49.276  48.835  1.00  0.00     0.002 A 
HETATM   10  C   UNL     1      26.915  48.247  49.630  1.00  0.00     0.030 A 
BRANCH   6  11
HETATM   11  C   UNL     1      23.207  48.771  49.035  1.00  0.00     0.254 C 
HETATM   12  N   UNL     1      22.494  49.937  49.230  1.00  0.00    -0.352 N 
HETATM   13  H   UNL     1      23.001  50.780  49.479  1.00  0.00     0.163 HD
HETATM   14  O   UNL     1      22.712  47.662  48.884  1.00  0.00    -0.268 OA
BRANCH  12  15
HETATM   15  C   UNL     1      21.075  49.941  49.393  1.00  0.00     0.084 A 
HETATM   16  C   UNL     1      20.401  51.062  50.133  1.00  0.00     0.027 A 
HETATM   17  C   UNL     1      20.222  50.931  48.649  1.00  0.00     0.027 A 
ENDBRANCH  12  15
ENDBRANCH   6  11
ENDBRANCH   2   5
BRANCH   1  18
HETATM   18  C   UNL     1      24.646  44.940  51.727  1.00  0.00     0.144 C 
BRANCH  18  19
HETATM   19  C   UNL     1      25.880  44.458  52.409  1.00  0.00    -0.014 A 
HETATM   20  C   UNL     1      26.701  45.168  53.338  1.00  0.00     0.006 A 
HETATM   21  C   UNL     1      27.661  44.261  53.771  1.00  0.00     0.088 A 
HETATM   22  C   UNL     1      26.722  46.465  53.878  1.00  0.00     0.017 A 
HETATM   23  C   UNL     1      28.631  44.532  54.734  1.00  0.00     0.074 A 
HETATM   24  O   UNL     1      27.506  43.070  53.131  1.00  0.00    -0.321 OA
HETATM   25  C   UNL     1      28.607  45.814  55.291  1.00  0.00     0.070 A 
HETATM   26  C   UNL     1      27.690  46.772  54.845  1.00  0.00     0.038 A 
HETATM   27  C   UNL     1      26.429  43.192  52.318  1.00  0.00     0.151 A 
BRANCH  25  28
HETATM   28  O   UNL     1      29.468  46.246  56.267  1.00  0.00    -0.356 OA
HETATM   29  C   UNL     1      30.418  45.277  56.706  1.00  0.00     0.210 C 
ENDBRANCH  25  28
ENDBRANCH  18  19
ENDBRANCH   1  18
TORSDOF 6
ENDMDL
MODEL 2
REMARK VINA RESULT:      -8.6      1.359      2.080
REMARK  6 active torsions:
REMARK  status: ('A' for Active; 'I' for Inactive)
REMARK    1  A    between atoms: O_2  and  C_3 
REMARK    2  A    between atoms: C_7  and  C_8 
REMARK    3  A    between atoms: C_8  and  C_9 
REMARK       I    between atoms: C_9  and  N_10 
REMARK    4  A    between atoms: N_10  and  C_11 
REMARK    5  A    between atoms: C_12  and  C_13 
REMARK       I    between atoms: C_13  and  N_14 
REMARK    6  A    between atoms: N_14  and  C_15 
ROOT
HETATM    1  C   UNL     1      26.270  45.589  50.893  1.00  0.00     0.226 C 
HETATM    2  N   UNL     1      25.685  46.839  50.799  1.00  0.00    -0.326 N 
HETATM    3  O   UNL     1      27.028  45.098  50.059  1.00  0.00    -0.273 OA
HETATM    4  H   UNL     1      24.901  47.025  51.419  1.00  0.00     0.169 HD
ENDROOT
BRANCH   2   5
HETATM    5  C   UNL     1      26.035  47.882  49.901  1.00  0.00     0.050 A 
HETATM    6  C   UNL     1      25.030  48.553  49.177  1.00  0.00     0.058 A 
HETATM    7  C   UNL     1      25.334  49.677  48.394  1.00  0.00     0.019 A 
HETATM    8  C   UNL     1      26.648  50.123  48.294  1.00  0.00     0.001 A 
HETATM    9  C   UNL     1      27.656  49.447  48.974  1.00  0.00     0.002 A 
HETATM   10  C   UNL     1      27.353  48.339  49.774  1.00  0.00     0.030 A 
BRANCH   6  11
HETATM   11  C   UNL     1      23.621  48.092  49.152  1.00  0.00     0.254 C 
HETATM   12  N   UNL     1      22.684  49.103  49.063  1.00  0.00    -0.352 N 
HETATM   13  H   UNL     1      23.000  50.065  49.136  1.00  0.00     0.163 HD
HETATM   14  O   UNL     1      23.361  46.899  49.235  1.00  0.00    -0.268 OA
BRANCH  12  15
HETATM   15  C   UNL     1      21.283  48.851  49.179  1.00  0.00     0.084 A 
HETATM   16  C   UNL     1      20.288  49.914  48.802  1.00  0.00     0.027 A 
HETATM   17  C   UNL     1      20.431  48.687  47.951  1.00  0.00     0.027 A 
ENDBRANCH  12  15
ENDBRANCH   6  11
ENDBRANCH   2   5
BRANCH   1  18
HETATM   18  C   UNL     1      25.979  44.853  52.190  1.00  0.00     0.144 C 
BRANCH  18  19
HETATM   19  C   UNL     1      26.845  45.242  53.339  1.00  0.00    -0.014 A 
HETATM   20  C   UNL     1      27.955  44.523  53.881  1.00  0.00     0.006 A 
HETATM   21  C   UNL     1      28.499  45.342  54.863  1.00  0.00     0.088 A 
HETATM   22  C   UNL     1      28.572  43.285  53.632  1.00  0.00     0.017 A 
HETATM   23  C   UNL     1      29.641  45.043  55.602  1.00  0.00     0.074 A 
HETATM   24  O   UNL     1      27.765  46.482  54.984  1.00  0.00    -0.321 OA
HETATM   25  C   UNL     1      30.266  43.827  55.310  1.00  0.00     0.070 A 
HETATM   26  C   UNL     1      29.721  42.951  54.365  1.00  0.00     0.038 A 
HETATM   27  C   UNL     1      26.777  46.419  54.060  1.00  0.00     0.151 A 
BRANCH  25  28
HETATM   28  O   UNL     1      31.411  43.383  55.920  1.00  0.00    -0.356 OA
HETATM   29  C   UNL     1      31.448  43.559  57.335  1.00  0.00     0.210 C 
ENDBRANCH  25  28
ENDBRANCH  18  19
ENDBRANCH   1  18
TORSDOF 6
ENDMDL
MODEL 3
REMARK VINA RESULT:      -8.3      2.095      2.977
REMARK  6 active torsions:
REMARK  status: ('A' for Active; 'I' for Inactive)
REMARK    1  A    between atoms: O_2  and  C_3 
REMARK    2  A    between atoms: C_7  and  C_8 
REMARK    3  A    between atoms: C_8  and  C_9 
REMARK       I    between atoms: C_9  and  N_10 
REMARK    4  A    between atoms: N_10  and  C_11 
REMARK    5  A    between atoms: C_12  and  C_13 
REMARK       I    between atoms: C_13  and  N_14 
REMARK    6  A    between atoms: N_14  and  C_15 
ROOT
HETATM    1  C   UNL     1      24.959  45.384  52.006  1.00  0.00     0.226 C 
HETATM    2  N   UNL     1      24.753  46.100  50.841  1.00  0.00    -0.326 N 
HETATM    3  O   UNL     1      24.275  44.436  52.386  1.00  0.00    -0.273 OA
HETATM    4  H   UNL     1      25.225  46.997  50.765  1.00  0.00     0.169 HD
ENDROOT
BRANCH   2   5
HETATM    5  C   UNL     1      23.918  45.738  49.751  1.00  0.00     0.050 A 
HETATM    6  C   UNL     1      23.250  46.736  49.014  1.00  0.00     0.058 A 
HETATM    7  C   UNL     1      22.536  46.416  47.849  1.00  0.00     0.019 A 
HETATM    8  C   UNL     1      22.448  45.094  47.426  1.00  0.00     0.001 A 
HETATM    9  C   UNL     1      23.071  44.093  48.165  1.00  0.00     0.002 A 
HETATM   10  C   UNL     1      23.804  44.412  49.315  1.00  0.00     0.030 A 
BRANCH   6  11
HETATM   11  C   UNL     1      23.214  48.155  49.442  1.00  0.00     0.254 C 
HETATM   12  N   UNL     1      21.984  48.769  49.307  1.00  0.00    -0.352 N 
HETATM   13  H   UNL     1      21.241  48.266  48.832  1.00  0.00     0.163 HD
HETATM   14  O   UNL     1      24.230  48.702  49.851  1.00  0.00    -0.268 OA
BRANCH  12  15
HETATM   15  C   UNL     1      21.806  50.168  49.528  1.00  0.00     0.084 A 
HETATM   16  C   UNL     1      22.268  51.163  48.500  1.00  0.00     0.027 A 
HETATM   17  C   UNL     1      20.801  50.947  48.725  1.00  0.00     0.027 A 
ENDBRANCH  12  15
ENDBRANCH   6  11
ENDBRANCH   2   5
BRANCH   1  18
HETATM   18  C   UNL     1      26.194  45.797  52.789  1.00  0.00     0.144 C 
BRANCH  18  19
HETATM   19  C   UNL     1      27.306  44.806  52.775  1.00  0.00    -0.014 A 
HETATM   20  C   UNL     1      28.328  44.622  53.756  1.00  0.00     0.006 A 
HETATM   21  C   UNL     1      29.056  43.511  53.348  1.00  0.00     0.088 A 
HETATM   22  C   UNL     1      28.701  45.256  54.954  1.00  0.00     0.017 A 
HETATM   23  C   UNL     1      30.115  42.951  54.060  1.00  0.00     0.074 A 
HETATM   24  O   UNL     1      28.575  43.043  52.164  1.00  0.00    -0.321 OA
HETATM   25  C   UNL     1      30.442  43.570  55.270  1.00  0.00     0.070 A 
HETATM   26  C   UNL     1      29.767  44.721  55.691  1.00  0.00     0.038 A 
HETATM   27  C   UNL     1      27.518  43.821  51.828  1.00  0.00     0.151 A 
BRANCH  25  28
HETATM   28  O   UNL     1      31.436  43.140  56.111  1.00  0.00    -0.356 OA
HETATM   29  C   UNL     1      31.421  43.725  57.411  1.00  0.00     0.210 C 
ENDBRANCH  25  28
ENDBRANCH  18  19
ENDBRANCH   1  18
TORSDOF 6
ENDMDL
MODEL 4
REMARK VINA RESULT:      -8.2      3.158      8.898
REMARK  6 active torsions:
REMARK  status: ('A' for Active; 'I' for Inactive)
REMARK    1  A    between atoms: O_2  and  C_3 
REMARK    2  A    between atoms: C_7  and  C_8 
REMARK    3  A    between atoms: C_8  and  C_9 
REMARK       I    between atoms: C_9  and  N_10 
REMARK    4  A    between atoms: N_10  and  C_11 
REMARK    5  A    between atoms: C_12  and  C_13 
REMARK       I    between atoms: C_13  and  N_14 
REMARK    6  A    between atoms: N_14  and  C_15 
ROOT
HETATM    1  C   UNL     1      25.176  44.036  51.859  1.00  0.00     0.226 C 
HETATM    2  N   UNL     1      26.418  43.516  51.545  1.00  0.00    -0.326 N 
HETATM    3  O   UNL     1      24.724  44.155  52.996  1.00  0.00    -0.273 OA
HETATM    4  H   UNL     1      26.571  43.248  50.576  1.00  0.00     0.169 HD
ENDROOT
BRANCH   2   5
HETATM    5  C   UNL     1      27.495  43.276  52.438  1.00  0.00     0.050 A 
HETATM    6  C   UNL     1      28.207  42.062  52.373  1.00  0.00     0.058 A 
HETATM    7  C   UNL     1      29.361  41.858  53.144  1.00  0.00     0.019 A 
HETATM    8  C   UNL     1      29.799  42.849  54.018  1.00  0.00     0.001 A 
HETATM    9  C   UNL     1      29.085  44.039  54.120  1.00  0.00     0.002 A 
HETATM   10  C   UNL     1      27.946  44.253  53.334  1.00  0.00     0.030 A 
BRANCH   6  11
HETATM   11  C   UNL     1      27.760  40.918  51.540  1.00  0.00     0.254 C 
HETATM   12  N   UNL     1      28.776  40.100  51.087  1.00  0.00    -0.352 N 
HETATM   13  H   UNL     1      29.737  40.387  51.249  1.00  0.00     0.163 HD
HETATM   14  O   UNL     1      26.572  40.773  51.279  1.00  0.00    -0.268 OA
BRANCH  12  15
HETATM   15  C   UNL     1      28.543  39.046  50.153  1.00  0.00     0.084 A 
HETATM   16  C   UNL     1      29.228  39.054  48.815  1.00  0.00     0.027 A 
HETATM   17  C   UNL     1      29.620  38.041  49.850  1.00  0.00     0.027 A 
ENDBRANCH  12  15
ENDBRANCH   6  11
ENDBRANCH   2   5
BRANCH   1  18
HETATM   18  C   UNL     1      24.392  44.561  50.667  1.00  0.00     0.144 C 
BRANCH  18  19
HETATM   19  C   UNL     1      24.633  45.995  50.341  1.00  0.00    -0.014 A 
HETATM   20  C   UNL     1      23.854  46.843  49.495  1.00  0.00     0.006 A 
HETATM   21  C   UNL     1      24.418  48.109  49.598  1.00  0.00     0.088 A 
HETATM   22  C   UNL     1      22.723  46.685  48.677  1.00  0.00     0.017 A 
HETATM   23  C   UNL     1      23.922  49.251  48.974  1.00  0.00     0.074 A 
HETATM   24  O   UNL     1      25.512  48.072  50.407  1.00  0.00    -0.321 OA
HETATM   25  C   UNL     1      22.771  49.082  48.200  1.00  0.00     0.070 A 
HETATM   26  C   UNL     1      22.202  47.815  48.029  1.00  0.00     0.038 A 
HETATM   27  C   UNL     1      25.631  46.800  50.857  1.00  0.00     0.151 A 
BRANCH  25  28
HETATM   28  O   UNL     1      22.132  50.099  47.536  1.00  0.00    -0.356 OA
HETATM   29  C   UNL     1      21.307  50.927  48.353  1.00  0.00     0.210 C 
ENDBRANCH  25  28
ENDBRANCH  18  19
ENDBRANCH   1  18
TORSDOF 6
ENDMDL
MODEL 5
REMARK VINA RESULT:      -8.1     11.359     13.007
REMARK  6 active torsions:
REMARK  status: ('A' for Active; 'I' for Inactive)
REMARK    1  A    between atoms: O_2  and  C_3 
REMARK    2  A    between atoms: C_7  and  C_8 
REMARK    3  A    between atoms: C_8  and  C_9 
REMARK       I    between atoms: C_9  and  N_10 
REMARK    4  A    between atoms: N_10  and  C_11 
REMARK    5  A    between atoms: C_12  and  C_13 
REMARK       I    between atoms: C_13  and  N_14 
REMARK    6  A    between atoms: N_14  and  C_15 
ROOT
HETATM    1  C   UNL     1      30.818  48.365  39.530  1.00  0.00     0.226 C 
HETATM    2  N   UNL     1      29.509  47.990  39.769  1.00  0.00    -0.326 N 
HETATM    3  O   UNL     1      31.191  49.091  38.611  1.00  0.00    -0.273 OA
HETATM    4  H   UNL     1      29.364  47.205  40.398  1.00  0.00     0.169 HD
ENDROOT
BRANCH   2   5
HETATM    5  C   UNL     1      28.339  48.557  39.197  1.00  0.00     0.050 A 
HETATM    6  C   UNL     1      27.986  49.888  39.492  1.00  0.00     0.058 A 
HETATM    7  C   UNL     1      26.918  50.515  38.831  1.00  0.00     0.019 A 
HETATM    8  C   UNL     1      26.167  49.811  37.896  1.00  0.00     0.001 A 
HETATM    9  C   UNL     1      26.482  48.483  37.621  1.00  0.00     0.002 A 
HETATM   10  C   UNL     1      27.561  47.863  38.263  1.00  0.00     0.030 A 
BRANCH   6  11
HETATM   11  C   UNL     1      28.672  50.683  40.540  1.00  0.00     0.254 C 
HETATM   12  N   UNL     1      29.603  51.584  40.064  1.00  0.00    -0.352 N 
HETATM   13  H   UNL     1      29.836  51.566  39.076  1.00  0.00     0.163 HD
HETATM   14  O   UNL     1      28.416  50.495  41.722  1.00  0.00    -0.268 OA
BRANCH  12  15
HETATM   15  C   UNL     1      30.461  52.320  40.937  1.00  0.00     0.084 A 
HETATM   16  C   UNL     1      31.798  52.808  40.451  1.00  0.00     0.027 A 
HETATM   17  C   UNL     1      30.695  53.790  40.718  1.00  0.00     0.027 A 
ENDBRANCH  12  15
ENDBRANCH   6  11
ENDBRANCH   2   5
BRANCH   1  18
HETATM   18  C   UNL     1      31.813  47.877  40.571  1.00  0.00     0.144 C 
BRANCH  18  19
HETATM   19  C   UNL     1      32.085  48.839  41.676  1.00  0.00    -0.014 A 
HETATM   20  C   UNL     1      33.214  49.702  41.826  1.00  0.00     0.006 A 
HETATM   21  C   UNL     1      32.956  50.478  42.950  1.00  0.00     0.088 A 
HETATM   22  C   UNL     1      34.410  49.930  41.123  1.00  0.00     0.017 A 
HETATM   23  C   UNL     1      33.783  51.497  43.418  1.00  0.00     0.074 A 
HETATM   24  O   UNL     1      31.774  50.108  43.515  1.00  0.00    -0.321 OA
HETATM   25  C   UNL     1      34.945  51.737  42.680  1.00  0.00     0.070 A 
HETATM   26  C   UNL     1      35.267  50.945  41.573  1.00  0.00     0.038 A 
HETATM   27  C   UNL     1      31.252  49.128  42.740  1.00  0.00     0.151 A 
BRANCH  25  28
HETATM   28  O   UNL     1      35.859  52.715  42.978  1.00  0.00    -0.356 OA
HETATM   29  C   UNL     1      37.219  52.285  42.996  1.00  0.00     0.210 C 
ENDBRANCH  25  28
ENDBRANCH  18  19
ENDBRANCH   1  18
TORSDOF 6
ENDMDL
MODEL 6
REMARK VINA RESULT:      -7.9      4.894      7.417
REMARK  6 active torsions:
REMARK  status: ('A' for Active; 'I' for Inactive)
REMARK    1  A    between atoms: O_2  and  C_3 
REMARK    2  A    between atoms: C_7  and  C_8 
REMARK    3  A    between atoms: C_8  and  C_9 
REMARK       I    between atoms: C_9  and  N_10 
REMARK    4  A    between atoms: N_10  and  C_11 
REMARK    5  A    between atoms: C_12  and  C_13 
REMARK       I    between atoms: C_13  and  N_14 
REMARK    6  A    between atoms: N_14  and  C_15 
ROOT
HETATM    1  C   UNL     1      26.510  43.711  50.464  1.00  0.00     0.226 C 
HETATM    2  N   UNL     1      25.794  42.529  50.500  1.00  0.00    -0.326 N 
HETATM    3  O   UNL     1      26.820  44.320  49.442  1.00  0.00    -0.273 OA
HETATM    4  H   UNL     1      25.815  42.007  51.373  1.00  0.00     0.169 HD
ENDROOT
BRANCH   2   5
HETATM    5  C   UNL     1      25.062  41.939  49.436  1.00  0.00     0.050 A 
HETATM    6  C   UNL     1      25.671  40.970  48.615  1.00  0.00     0.058 A 
HETATM    7  C   UNL     1      24.930  40.271  47.650  1.00  0.00     0.019 A 
HETATM    8  C   UNL     1      23.580  40.556  47.467  1.00  0.00     0.001 A 
HETATM    9  C   UNL     1      22.974  41.537  48.246  1.00  0.00     0.002 A 
HETATM   10  C   UNL     1      23.706  42.220  49.225  1.00  0.00     0.030 A 
BRANCH   6  11
HETATM   11  C   UNL     1      27.122  40.669  48.678  1.00  0.00     0.254 C 
HETATM   12  N   UNL     1      27.440  39.486  49.316  1.00  0.00    -0.352 N 
HETATM   13  H   UNL     1      26.700  38.975  49.787  1.00  0.00     0.163 HD
HETATM   14  O   UNL     1      27.936  41.455  48.210  1.00  0.00    -0.268 OA
BRANCH  12  15
HETATM   15  C   UNL     1      28.789  39.115  49.599  1.00  0.00     0.084 A 
HETATM   16  C   UNL     1      29.099  37.757  50.166  1.00  0.00     0.027 A 
HETATM   17  C   UNL     1      29.493  38.088  48.756  1.00  0.00     0.027 A 
ENDBRANCH  12  15
ENDBRANCH   6  11
ENDBRANCH   2   5
BRANCH   1  18
HETATM   18  C   UNL     1      26.834  44.294  51.830  1.00  0.00     0.144 C 
BRANCH  18  19
HETATM   19  C   UNL     1      28.049  43.727  52.480  1.00  0.00    -0.014 A 
HETATM   20  C   UNL     1      28.698  44.181  53.669  1.00  0.00     0.006 A 
HETATM   21  C   UNL     1      29.711  43.266  53.926  1.00  0.00     0.088 A 
HETATM   22  C   UNL     1      28.524  45.249  54.567  1.00  0.00     0.017 A 
HETATM   23  C   UNL     1      30.554  43.305  55.035  1.00  0.00     0.074 A 
HETATM   24  O   UNL     1      29.749  42.320  52.949  1.00  0.00    -0.321 OA
HETATM   25  C   UNL     1      30.337  44.349  55.939  1.00  0.00     0.070 A 
HETATM   26  C   UNL     1      29.361  45.321  55.690  1.00  0.00     0.038 A 
HETATM   27  C   UNL     1      28.742  42.598  52.086  1.00  0.00     0.151 A 
BRANCH  25  28
HETATM   28  O   UNL     1      31.053  44.529  57.095  1.00  0.00    -0.356 OA
HETATM   29  C   UNL     1      31.962  43.477  57.411  1.00  0.00     0.210 C 
ENDBRANCH  25  28
ENDBRANCH  18  19
ENDBRANCH   1  18
TORSDOF 6
ENDMDL
MODEL 7
REMARK VINA RESULT:      -7.9     11.119     12.731
REMARK  6 active torsions:
REMARK  status: ('A' for Active; 'I' for Inactive)
REMARK    1  A    between atoms: O_2  and  C_3 
REMARK    2  A    between atoms: C_7  and  C_8 
REMARK    3  A    between atoms: C_8  and  C_9 
REMARK       I    between atoms: C_9  and  N_10 
REMARK    4  A    between atoms: N_10  and  C_11 
REMARK    5  A    between atoms: C_12  and  C_13 
REMARK       I    between atoms: C_13  and  N_14 
REMARK    6  A    between atoms: N_14  and  C_15 
ROOT
HETATM    1  C   UNL     1      29.271  49.395  41.744  1.00  0.00     0.226 C 
HETATM    2  N   UNL     1      28.904  48.904  40.505  1.00  0.00    -0.326 N 
HETATM    3  O   UNL     1      28.738  50.342  42.317  1.00  0.00    -0.273 OA
HETATM    4  H   UNL     1      29.567  48.289  40.040  1.00  0.00     0.169 HD
ENDROOT
BRANCH   2   5
HETATM    5  C   UNL     1      27.714  49.197  39.787  1.00  0.00     0.050 A 
HETATM    6  C   UNL     1      27.715  50.209  38.806  1.00  0.00     0.058 A 
HETATM    7  C   UNL     1      26.596  50.421  37.986  1.00  0.00     0.019 A 
HETATM    8  C   UNL     1      25.450  49.652  38.159  1.00  0.00     0.001 A 
HETATM    9  C   UNL     1      25.422  48.674  39.149  1.00  0.00     0.002 A 
HETATM   10  C   UNL     1      26.545  48.445  39.953  1.00  0.00     0.030 A 
BRANCH   6  11
HETATM   11  C   UNL     1      28.858  51.135  38.615  1.00  0.00     0.254 C 
HETATM   12  N   UNL     1      29.174  51.899  39.721  1.00  0.00    -0.352 N 
HETATM   13  H   UNL     1      28.555  51.866  40.526  1.00  0.00     0.163 HD
HETATM   14  O   UNL     1      29.426  51.198  37.533  1.00  0.00    -0.268 OA
BRANCH  12  15
HETATM   15  C   UNL     1      30.144  52.945  39.669  1.00  0.00     0.084 A 
HETATM   16  C   UNL     1      30.725  53.503  40.938  1.00  0.00     0.027 A 
HETATM   17  C   UNL     1      31.580  52.675  40.024  1.00  0.00     0.027 A 
ENDBRANCH  12  15
ENDBRANCH   6  11
ENDBRANCH   2   5
BRANCH   1  18
HETATM   18  C   UNL     1      30.369  48.603  42.435  1.00  0.00     0.144 C 
BRANCH  18  19
HETATM   19  C   UNL     1      31.757  49.024  42.090  1.00  0.00    -0.014 A 
HETATM   20  C   UNL     1      32.520  50.084  42.671  1.00  0.00     0.006 A 
HETATM   21  C   UNL     1      33.781  50.008  42.094  1.00  0.00     0.088 A 
HETATM   22  C   UNL     1      32.290  51.078  43.637  1.00  0.00     0.017 A 
HETATM   23  C   UNL     1      34.857  50.828  42.428  1.00  0.00     0.074 A 
HETATM   24  O   UNL     1      33.817  49.009  41.170  1.00  0.00    -0.321 OA
HETATM   25  C   UNL     1      34.622  51.782  43.421  1.00  0.00     0.070 A 
HETATM   26  C   UNL     1      33.351  51.925  43.991  1.00  0.00     0.038 A 
HETATM   27  C   UNL     1      32.598  48.416  41.178  1.00  0.00     0.151 A 
BRANCH  25  28
HETATM   28  O   UNL     1      35.569  52.654  43.892  1.00  0.00    -0.356 OA
HETATM   29  C   UNL     1      36.688  52.852  43.031  1.00  0.00     0.210 C 
ENDBRANCH  25  28
ENDBRANCH  18  19
ENDBRANCH   1  18
TORSDOF 6
ENDMDL
MODEL 8
REMARK VINA RESULT:      -7.9      2.899      4.898
REMARK  6 active torsions:
REMARK  status: ('A' for Active; 'I' for Inactive)
REMARK    1  A    between atoms: O_2  and  C_3 
REMARK    2  A    between atoms: C_7  and  C_8 
REMARK    3  A    between atoms: C_8  and  C_9 
REMARK       I    between atoms: C_9  and  N_10 
REMARK    4  A    between atoms: N_10  and  C_11 
REMARK    5  A    between atoms: C_12  and  C_13 
REMARK       I    between atoms: C_13  and  N_14 
REMARK    6  A    between atoms: N_14  and  C_15 
ROOT
HETATM    1  C   UNL     1      26.917  43.638  50.795  1.00  0.00     0.226 C 
HETATM    2  N   UNL     1      26.045  42.566  50.818  1.00  0.00    -0.326 N 
HETATM    3  O   UNL     1      27.396  44.140  49.780  1.00  0.00    -0.273 OA
HETATM    4  H   UNL     1      25.917  42.097  51.712  1.00  0.00     0.169 HD
ENDROOT
BRANCH   2   5
HETATM    5  C   UNL     1      25.334  42.017  49.717  1.00  0.00     0.050 A 
HETATM    6  C   UNL     1      24.300  42.755  49.109  1.00  0.00     0.058 A 
HETATM    7  C   UNL     1      23.680  42.298  47.936  1.00  0.00     0.019 A 
HETATM    8  C   UNL     1      24.060  41.082  47.376  1.00  0.00     0.001 A 
HETATM    9  C   UNL     1      25.055  40.325  47.986  1.00  0.00     0.002 A 
HETATM   10  C   UNL     1      25.690  40.790  49.144  1.00  0.00     0.030 A 
BRANCH   6  11
HETATM   11  C   UNL     1      23.769  44.013  49.689  1.00  0.00     0.254 C 
HETATM   12  N   UNL     1      24.322  45.167  49.169  1.00  0.00    -0.352 N 
HETATM   13  H   UNL     1      25.109  45.084  48.532  1.00  0.00     0.163 HD
HETATM   14  O   UNL     1      22.928  43.976  50.577  1.00  0.00    -0.268 OA
BRANCH  12  15
HETATM   15  C   UNL     1      24.041  46.456  49.714  1.00  0.00     0.084 A 
HETATM   16  C   UNL     1      24.799  46.955  50.913  1.00  0.00     0.027 A 
HETATM   17  C   UNL     1      25.029  47.580  49.568  1.00  0.00     0.027 A 
ENDBRANCH  12  15
ENDBRANCH   6  11
ENDBRANCH   2   5
BRANCH   1  18
HETATM   18  C   UNL     1      27.198  44.251  52.157  1.00  0.00     0.144 C 
BRANCH  18  19
HETATM   19  C   UNL     1      28.423  43.739  52.834  1.00  0.00    -0.014 A 
HETATM   20  C   UNL     1      28.998  44.190  54.062  1.00  0.00     0.006 A 
HETATM   21  C   UNL     1      30.059  43.332  54.326  1.00  0.00     0.088 A 
HETATM   22  C   UNL     1      28.723  45.211  54.988  1.00  0.00     0.017 A 
HETATM   23  C   UNL     1      30.856  43.385  55.467  1.00  0.00     0.074 A 
HETATM   24  O   UNL     1      30.193  42.427  53.319  1.00  0.00    -0.321 OA
HETATM   25  C   UNL     1      30.540  44.379  56.397  1.00  0.00     0.070 A 
HETATM   26  C   UNL     1      29.512  45.295  56.145  1.00  0.00     0.038 A 
HETATM   27  C   UNL     1      29.202  42.672  52.428  1.00  0.00     0.151 A 
BRANCH  25  28
HETATM   28  O   UNL     1      31.200  44.562  57.585  1.00  0.00    -0.356 OA
HETATM   29  C   UNL     1      30.762  45.681  58.353  1.00  0.00     0.210 C 
ENDBRANCH  25  28
ENDBRANCH  18  19
ENDBRANCH   1  18
TORSDOF 6
ENDMDL
MODEL 9
REMARK VINA RESULT:      -7.8      4.660      7.145
REMARK  6 active torsions:
REMARK  status: ('A' for Active; 'I' for Inactive)
REMARK    1  A    between atoms: O_2  and  C_3 
REMARK    2  A    between atoms: C_7  and  C_8 
REMARK    3  A    between atoms: C_8  and  C_9 
REMARK       I    between atoms: C_9  and  N_10 
REMARK    4  A    between atoms: N_10  and  C_11 
REMARK    5  A    between atoms: C_12  and  C_13 
REMARK       I    between atoms: C_13  and  N_14 
REMARK    6  A    between atoms: N_14  and  C_15 
ROOT
HETATM    1  C   UNL     1      28.731  41.301  52.308  1.00  0.00     0.226 C 
HETATM    2  N   UNL     1      28.562  39.978  51.942  1.00  0.00    -0.326 N 
HETATM    3  O   UNL     1      29.169  42.188  51.579  1.00  0.00    -0.273 OA
HETATM    4  H   UNL     1      28.428  39.307  52.694  1.00  0.00     0.169 HD
ENDROOT
BRANCH   2   5
HETATM    5  C   UNL     1      28.597  39.444  50.626  1.00  0.00     0.050 A 
HETATM    6  C   UNL     1      27.762  39.981  49.626  1.00  0.00     0.058 A 
HETATM    7  C   UNL     1      27.878  39.569  48.290  1.00  0.00     0.019 A 
HETATM    8  C   UNL     1      28.804  38.590  47.941  1.00  0.00     0.001 A 
HETATM    9  C   UNL     1      29.609  38.025  48.924  1.00  0.00     0.002 A 
HETATM   10  C   UNL     1      29.510  38.450  50.254  1.00  0.00     0.030 A 
BRANCH   6  11
HETATM   11  C   UNL     1      26.688  40.960  49.924  1.00  0.00     0.254 C 
HETATM   12  N   UNL     1      26.883  42.215  49.383  1.00  0.00    -0.352 N 
HETATM   13  H   UNL     1      27.770  42.416  48.931  1.00  0.00     0.163 HD
HETATM   14  O   UNL     1      25.737  40.637  50.624  1.00  0.00    -0.268 OA
BRANCH  12  15
HETATM   15  C   UNL     1      26.029  43.317  49.693  1.00  0.00     0.084 A 
HETATM   16  C   UNL     1      26.221  44.089  50.968  1.00  0.00     0.027 A 
HETATM   17  C   UNL     1      26.553  44.726  49.650  1.00  0.00     0.027 A 
ENDBRANCH  12  15
ENDBRANCH   6  11
ENDBRANCH   2   5
BRANCH   1  18
HETATM   18  C   UNL     1      28.238  41.634  53.707  1.00  0.00     0.144 C 
BRANCH  18  19
HETATM   19  C   UNL     1      28.850  42.850  54.313  1.00  0.00    -0.014 A 
HETATM   20  C   UNL     1      28.235  44.121  54.534  1.00  0.00     0.006 A 
HETATM   21  C   UNL     1      29.172  44.885  55.221  1.00  0.00     0.088 A 
HETATM   22  C   UNL     1      26.986  44.699  54.253  1.00  0.00     0.017 A 
HETATM   23  C   UNL     1      28.952  46.180  55.686  1.00  0.00     0.074 A 
HETATM   24  O   UNL     1      30.324  44.180  55.385  1.00  0.00    -0.321 OA
HETATM   25  C   UNL     1      27.689  46.721  55.435  1.00  0.00     0.070 A 
HETATM   26  C   UNL     1      26.736  46.004  54.702  1.00  0.00     0.038 A 
HETATM   27  C   UNL     1      30.121  42.954  54.844  1.00  0.00     0.151 A 
BRANCH  25  28
HETATM   28  O   UNL     1      27.290  47.969  55.841  1.00  0.00    -0.356 OA
HETATM   29  C   UNL     1      26.158  48.494  55.151  1.00  0.00     0.210 C 
ENDBRANCH  25  28
ENDBRANCH  18  19
ENDBRANCH   1  18
TORSDOF 6
ENDMDL
MODEL 10
REMARK VINA RESULT:      -7.7      3.794      7.550
REMARK  6 active torsions:
REMARK  status: ('A' for Active; 'I' for Inactive)
REMARK    1  A    between atoms: O_2  and  C_3 
REMARK    2  A    between atoms: C_7  and  C_8 
REMARK    3  A    between atoms: C_8  and  C_9 
REMARK       I    between atoms: C_9  and  N_10 
REMARK    4  A    between atoms: N_10  and  C_11 
REMARK    5  A    between atoms: C_12  and  C_13 
REMARK       I    between atoms: C_13  and  N_14 
REMARK    6  A    between atoms: N_14  and  C_15 
ROOT
HETATM    1  C   UNL     1      28.973  42.171  52.682  1.00  0.00     0.226 C 
HETATM    2  N   UNL     1      28.784  42.435  54.026  1.00  0.00    -0.326 N 
HETATM    3  O   UNL     1      29.446  42.957  51.865  1.00  0.00    -0.273 OA
HETATM    4  H   UNL     1      28.169  41.805  54.535  1.00  0.00     0.169 HD
ENDROOT
BRANCH   2   5
HETATM    5  C   UNL     1      29.324  43.517  54.769  1.00  0.00     0.050 A 
HETATM    6  C   UNL     1      28.515  44.627  55.087  1.00  0.00     0.058 A 
HETATM    7  C   UNL     1      28.981  45.640  55.937  1.00  0.00     0.019 A 
HETATM    8  C   UNL     1      30.272  45.579  56.453  1.00  0.00     0.001 A 
HETATM    9  C   UNL     1      31.095  44.508  56.118  1.00  0.00     0.002 A 
HETATM   10  C   UNL     1      30.625  43.484  55.287  1.00  0.00     0.030 A 
BRANCH   6  11
HETATM   11  C   UNL     1      27.162  44.819  54.509  1.00  0.00     0.254 C 
HETATM   12  N   UNL     1      27.048  45.895  53.652  1.00  0.00    -0.352 N 
HETATM   13  H   UNL     1      27.834  46.532  53.565  1.00  0.00     0.163 HD
HETATM   14  O   UNL     1      26.246  44.070  54.824  1.00  0.00    -0.268 OA
BRANCH  12  15
HETATM   15  C   UNL     1      25.789  46.317  53.127  1.00  0.00     0.084 A 
HETATM   16  C   UNL     1      25.729  47.148  51.876  1.00  0.00     0.027 A 
HETATM   17  C   UNL     1      25.255  45.725  51.852  1.00  0.00     0.027 A 
ENDBRANCH  12  15
ENDBRANCH   6  11
ENDBRANCH   2   5
BRANCH   1  18
HETATM   18  C   UNL     1      28.627  40.751  52.264  1.00  0.00     0.144 C 
BRANCH  18  19
HETATM   19  C   UNL     1      28.044  40.624  50.899  1.00  0.00    -0.014 A 
HETATM   20  C   UNL     1      26.860  41.244  50.391  1.00  0.00     0.006 A 
HETATM   21  C   UNL     1      26.800  40.907  49.044  1.00  0.00     0.088 A 
HETATM   22  C   UNL     1      25.851  42.069  50.916  1.00  0.00     0.017 A 
HETATM   23  C   UNL     1      25.825  41.359  48.157  1.00  0.00     0.074 A 
HETATM   24  O   UNL     1      27.836  40.089  48.717  1.00  0.00    -0.321 OA
HETATM   25  C   UNL     1      24.855  42.214  48.688  1.00  0.00     0.070 A 
HETATM   26  C   UNL     1      24.851  42.535  50.050  1.00  0.00     0.038 A 
HETATM   27  C   UNL     1      28.586  39.928  49.834  1.00  0.00     0.151 A 
BRANCH  25  28
HETATM   28  O   UNL     1      23.838  42.774  47.957  1.00  0.00    -0.356 OA
HETATM   29  C   UNL     1      23.713  44.189  48.082  1.00  0.00     0.210 C 
ENDBRANCH  25  28
ENDBRANCH  18  19
ENDBRANCH   1  18
TORSDOF 6
ENDMDL
