MODEL 1
REMARK VINA RESULT:      -9.5      0.000      0.000
REMARK  5 active torsions:
REMARK  status: ('A' for Active; 'I' for Inactive)
REMARK    1  A    between atoms: C_9  and  C_10 
REMARK       I    between atoms: C_10  and  N_11 
REMARK    2  A    between atoms: N_11  and  C_12 
REMARK    3  A    between atoms: C_12  and  C_13 
REMARK    4  A    between atoms: C_15  and  O_16 
REMARK    5  A    between atoms: O_16  and  C_17 
ROOT
HETATM    1  C   UNL     1      25.558  46.111  52.762  1.00  0.00     0.273 C 
HETATM    2  N   UNL     1      25.605  47.020  51.731  1.00  0.00    -0.351 N 
HETATM    3  O   UNL     1      24.926  45.061  52.710  1.00  0.00    -0.266 OA
HETATM    4  H   UNL     1      26.149  47.861  51.906  1.00  0.00     0.163 HD
ENDROOT
BRANCH   2   5
HETATM    5  C   UNL     1      24.961  46.811  50.461  1.00  0.00     0.161 C 
BRANCH   5   6
HETATM    6  C   UNL     1      25.177  47.967  49.521  1.00  0.00    -0.035 A 
HETATM    7  C   UNL     1      24.107  48.593  48.872  1.00  0.00     0.066 A 
HETATM    8  C   UNL     1      24.368  49.662  48.032  1.00  0.00     0.164 A 
HETATM    9  N   UNL     1      25.598  50.170  47.813  1.00  0.00    -0.237 NA
HETATM   10  C   UNL     1      26.614  49.574  48.471  1.00  0.00     0.120 A 
HETATM   11  C   UNL     1      26.459  48.489  49.321  1.00  0.00     0.028 A 
BRANCH   8  12
HETATM   12  O   UNL     1      23.279  50.220  47.386  1.00  0.00    -0.329 OA
BRANCH  12  13
HETATM   13  C   UNL     1      22.015  50.123  48.075  1.00  0.00     0.130 C 
HETATM   14  C   UNL     1      21.599  51.334  48.953  1.00  0.00     0.032 C 
HETATM   15  C   UNL     1      20.164  51.142  48.430  1.00  0.00     0.005 C 
HETATM   16  C   UNL     1      20.777  50.452  47.199  1.00  0.00     0.032 C 
ENDBRANCH  12  13
ENDBRANCH   8  12
ENDBRANCH   5   6
ENDBRANCH   2   5
BRANCH   1  17
HETATM   17  C   UNL     1      26.359  46.520  53.928  1.00  0.00     0.157 A 
HETATM   18  C   UNL     1      27.505  45.861  54.463  1.00  0.00     0.029 A 
HETATM   19  C   UNL     1      28.245  44.702  54.154  1.00  0.00     0.023 A 
HETATM   20  C   UNL     1      27.906  46.646  55.536  1.00  0.00     0.063 A 
HETATM   21  C   UNL     1      29.365  44.368  54.934  1.00  0.00    -0.061 A 
HETATM   22  C   UNL     1      30.170  43.140  54.620  1.00  0.00     0.048 C 
HETATM   23  C   UNL     1      29.735  45.188  56.008  1.00  0.00     0.009 A 
HETATM   24  C   UNL     1      29.014  46.343  56.332  1.00  0.00     0.032 A 
HETATM   25  N   UNL     1      27.012  47.680  55.580  1.00  0.00    -0.277 N 
HETATM   26  H   UNL     1      27.000  48.450  56.238  1.00  0.00     0.189 HD
HETATM   27  N   UNL     1      26.064  47.640  54.627  1.00  0.00    -0.168 NA
ENDBRANCH   1  17
TORSDOF 5
ENDMDL
MODEL 2
REMARK VINA RESULT:      -9.2      1.643      2.330
REMARK  5 active torsions:
REMARK  status: ('A' for Active; 'I' for Inactive)
REMARK    1  A    between atoms: C_9  and  C_10 
REMARK       I    between atoms: C_10  and  N_11 
REMARK    2  A    between atoms: N_11  and  C_12 
REMARK    3  A    between atoms: C_12  and  C_13 
REMARK    4  A    between atoms: C_15  and  O_16 
REMARK    5  A    between atoms: O_16  and  C_17 
ROOT
HETATM    1  C   UNL     1      26.342  45.309  52.902  1.00  0.00     0.273 C 
HETATM    2  N   UNL     1      26.128  45.746  51.615  1.00  0.00    -0.351 N 
HETATM    3  O   UNL     1      25.613  45.597  53.845  1.00  0.00    -0.266 OA
HETATM    4  H   UNL     1      26.816  45.453  50.927  1.00  0.00     0.163 HD
ENDROOT
BRANCH   2   5
HETATM    5  C   UNL     1      24.995  46.545  51.229  1.00  0.00     0.161 C 
BRANCH   5   6
HETATM    6  C   UNL     1      25.357  47.576  50.194  1.00  0.00    -0.035 A 
HETATM    7  C   UNL     1      24.380  48.218  49.425  1.00  0.00     0.066 A 
HETATM    8  C   UNL     1      24.775  49.169  48.501  1.00  0.00     0.164 A 
HETATM    9  N   UNL     1      26.054  49.549  48.305  1.00  0.00    -0.237 NA
HETATM   10  C   UNL     1      26.980  48.943  49.076  1.00  0.00     0.120 A 
HETATM   11  C   UNL     1      26.688  47.968  50.019  1.00  0.00     0.028 A 
BRANCH   8  12
HETATM   12  O   UNL     1      23.773  49.745  47.740  1.00  0.00    -0.329 OA
BRANCH  12  13
HETATM   13  C   UNL     1      22.480  49.855  48.373  1.00  0.00     0.130 C 
HETATM   14  C   UNL     1      22.246  51.091  49.283  1.00  0.00     0.032 C 
HETATM   15  C   UNL     1      20.827  51.179  48.695  1.00  0.00     0.005 C 
HETATM   16  C   UNL     1      21.364  50.431  47.463  1.00  0.00     0.032 C 
ENDBRANCH  12  13
ENDBRANCH   8  12
ENDBRANCH   5   6
ENDBRANCH   2   5
BRANCH   1  17
HETATM   17  C   UNL     1      27.528  44.445  53.026  1.00  0.00     0.157 A 
HETATM   18  C   UNL     1      28.519  44.481  54.052  1.00  0.00     0.029 A 
HETATM   19  C   UNL     1      28.756  45.252  55.207  1.00  0.00     0.023 A 
HETATM   20  C   UNL     1      29.406  43.461  53.733  1.00  0.00     0.063 A 
HETATM   21  C   UNL     1      29.877  44.974  56.006  1.00  0.00    -0.061 A 
HETATM   22  C   UNL     1      30.145  45.780  57.244  1.00  0.00     0.048 C 
HETATM   23  C   UNL     1      30.746  43.935  55.649  1.00  0.00     0.009 A 
HETATM   24  C   UNL     1      30.529  43.157  54.506  1.00  0.00     0.032 A 
HETATM   25  N   UNL     1      28.916  42.903  52.585  1.00  0.00    -0.277 N 
HETATM   26  H   UNL     1      29.310  42.126  52.066  1.00  0.00     0.189 HD
HETATM   27  N   UNL     1      27.785  43.468  52.127  1.00  0.00    -0.168 NA
ENDBRANCH   1  17
TORSDOF 5
ENDMDL
MODEL 3
REMARK VINA RESULT:      -8.6      1.513      2.056
REMARK  5 active torsions:
REMARK  status: ('A' for Active; 'I' for Inactive)
REMARK    1  A    between atoms: C_9  and  C_10 
REMARK       I    between atoms: C_10  and  N_11 
REMARK    2  A    between atoms: N_11  and  C_12 
REMARK    3  A    between atoms: C_12  and  C_13 
REMARK    4  A    between atoms: C_15  and  O_16 
REMARK    5  A    between atoms: O_16  and  C_17 
ROOT
HETATM    1  C   UNL     1      25.272  46.027  51.467  1.00  0.00     0.273 C 
HETATM    2  N   UNL     1      24.593  47.064  50.871  1.00  0.00    -0.351 N 
HETATM    3  O   UNL     1      25.344  44.901  50.986  1.00  0.00    -0.266 OA
HETATM    4  H   UNL     1      24.592  47.944  51.381  1.00  0.00     0.163 HD
ENDROOT
BRANCH   2   5
HETATM    5  C   UNL     1      23.940  46.953  49.593  1.00  0.00     0.161 C 
BRANCH   5   6
HETATM    6  C   UNL     1      23.450  48.285  49.092  1.00  0.00    -0.035 A 
HETATM    7  C   UNL     1      22.086  48.594  49.049  1.00  0.00     0.066 A 
HETATM    8  C   UNL     1      21.697  49.843  48.593  1.00  0.00     0.164 A 
HETATM    9  N   UNL     1      22.556  50.808  48.207  1.00  0.00    -0.237 NA
HETATM   10  C   UNL     1      23.868  50.504  48.285  1.00  0.00     0.120 A 
HETATM   11  C   UNL     1      24.358  49.279  48.714  1.00  0.00     0.028 A 
BRANCH   8  12
HETATM   12  O   UNL     1      20.337  50.082  48.534  1.00  0.00    -0.329 OA
BRANCH  12  13
HETATM   13  C   UNL     1      19.862  51.231  49.268  1.00  0.00     0.130 C 
HETATM   14  C   UNL     1      19.195  52.365  48.444  1.00  0.00     0.032 C 
HETATM   15  C   UNL     1      18.161  52.497  49.576  1.00  0.00     0.005 C 
HETATM   16  C   UNL     1      18.480  51.038  49.946  1.00  0.00     0.032 C 
ENDBRANCH  12  13
ENDBRANCH   8  12
ENDBRANCH   5   6
ENDBRANCH   2   5
BRANCH   1  17
HETATM   17  C   UNL     1      25.917  46.412  52.733  1.00  0.00     0.157 A 
HETATM   18  C   UNL     1      26.978  45.734  53.403  1.00  0.00     0.029 A 
HETATM   19  C   UNL     1      27.743  44.573  53.176  1.00  0.00     0.023 A 
HETATM   20  C   UNL     1      27.242  46.501  54.531  1.00  0.00     0.063 A 
HETATM   21  C   UNL     1      28.749  44.218  54.090  1.00  0.00    -0.061 A 
HETATM   22  C   UNL     1      29.578  42.986  53.865  1.00  0.00     0.048 C 
HETATM   23  C   UNL     1      28.982  45.019  55.215  1.00  0.00     0.009 A 
HETATM   24  C   UNL     1      28.234  46.176  55.459  1.00  0.00     0.032 A 
HETATM   25  N   UNL     1      26.358  47.543  54.473  1.00  0.00    -0.277 N 
HETATM   26  H   UNL     1      26.266  48.304  55.136  1.00  0.00     0.189 HD
HETATM   27  N   UNL     1      25.542  47.525  53.404  1.00  0.00    -0.168 NA
ENDBRANCH   1  17
TORSDOF 5
ENDMDL
MODEL 4
REMARK VINA RESULT:      -8.6      3.652      5.681
REMARK  5 active torsions:
REMARK  status: ('A' for Active; 'I' for Inactive)
REMARK    1  A    between atoms: C_9  and  C_10 
REMARK       I    between atoms: C_10  and  N_11 
REMARK    2  A    between atoms: N_11  and  C_12 
REMARK    3  A    between atoms: C_12  and  C_13 
REMARK    4  A    between atoms: C_15  and  O_16 
REMARK    5  A    between atoms: O_16  and  C_17 
ROOT
HETATM    1  C   UNL     1      26.929  47.053  55.065  1.00  0.00     0.273 C 
HETATM    2  N   UNL     1      26.782  46.645  53.759  1.00  0.00    -0.351 N 
HETATM    3  O   UNL     1      26.195  47.875  55.604  1.00  0.00    -0.266 OA
HETATM    4  H   UNL     1      27.467  45.972  53.425  1.00  0.00     0.163 HD
ENDROOT
BRANCH   2   5
HETATM    5  C   UNL     1      25.718  47.100  52.903  1.00  0.00     0.161 C 
BRANCH   5   6
HETATM    6  C   UNL     1      25.646  46.310  51.624  1.00  0.00    -0.035 A 
HETATM    7  C   UNL     1      26.441  45.177  51.417  1.00  0.00     0.066 A 
HETATM    8  C   UNL     1      26.318  44.483  50.226  1.00  0.00     0.164 A 
HETATM    9  N   UNL     1      25.451  44.809  49.245  1.00  0.00    -0.237 NA
HETATM   10  C   UNL     1      24.670  45.885  49.475  1.00  0.00     0.120 A 
HETATM   11  C   UNL     1      24.728  46.655  50.627  1.00  0.00     0.028 A 
BRANCH   8  12
HETATM   12  O   UNL     1      27.154  43.394  50.056  1.00  0.00    -0.329 OA
BRANCH  12  13
HETATM   13  C   UNL     1      26.752  42.176  50.717  1.00  0.00     0.130 C 
HETATM   14  C   UNL     1      25.523  41.431  50.130  1.00  0.00     0.032 C 
HETATM   15  C   UNL     1      26.275  40.114  50.386  1.00  0.00     0.005 C 
HETATM   16  C   UNL     1      27.581  40.925  50.323  1.00  0.00     0.032 C 
ENDBRANCH  12  13
ENDBRANCH   8  12
ENDBRANCH   5   6
ENDBRANCH   2   5
BRANCH   1  17
HETATM   17  C   UNL     1      28.047  46.387  55.754  1.00  0.00     0.157 A 
HETATM   18  C   UNL     1      28.811  45.277  55.287  1.00  0.00     0.029 A 
HETATM   19  C   UNL     1      28.814  44.458  54.140  1.00  0.00     0.023 A 
HETATM   20  C   UNL     1      29.753  45.042  56.280  1.00  0.00     0.063 A 
HETATM   21  C   UNL     1      29.764  43.429  54.028  1.00  0.00    -0.061 A 
HETATM   22  C   UNL     1      29.788  42.548  52.812  1.00  0.00     0.048 C 
HETATM   23  C   UNL     1      30.696  43.226  55.053  1.00  0.00     0.009 A 
HETATM   24  C   UNL     1      30.711  44.028  56.200  1.00  0.00     0.032 A 
HETATM   25  N   UNL     1      29.504  45.982  57.242  1.00  0.00    -0.277 N 
HETATM   26  H   UNL     1      30.003  46.111  58.115  1.00  0.00     0.189 HD
HETATM   27  N   UNL     1      28.483  46.812  56.961  1.00  0.00    -0.168 NA
ENDBRANCH   1  17
TORSDOF 5
ENDMDL
MODEL 5
REMARK VINA RESULT:      -8.5      1.710      2.175
REMARK  5 active torsions:
REMARK  status: ('A' for Active; 'I' for Inactive)
REMARK    1  A    between atoms: C_9  and  C_10 
REMARK       I    between atoms: C_10  and  N_11 
REMARK    2  A    between atoms: N_11  and  C_12 
REMARK    3  A    between atoms: C_12  and  C_13 
REMARK    4  A    between atoms: C_15  and  O_16 
REMARK    5  A    between atoms: O_16  and  C_17 
ROOT
HETATM    1  C   UNL     1      25.543  45.177  52.581  1.00  0.00     0.273 C 
HETATM    2  N   UNL     1      26.019  45.528  51.339  1.00  0.00    -0.351 N 
HETATM    3  O   UNL     1      24.631  44.374  52.755  1.00  0.00    -0.266 OA
HETATM    4  H   UNL     1      26.765  46.219  51.330  1.00  0.00     0.163 HD
ENDROOT
BRANCH   2   5
HETATM    5  C   UNL     1      25.534  44.951  50.114  1.00  0.00     0.161 C 
BRANCH   5   6
HETATM    6  C   UNL     1      24.326  45.679  49.586  1.00  0.00    -0.035 A 
HETATM    7  C   UNL     1      24.182  47.063  49.736  1.00  0.00     0.066 A 
HETATM    8  C   UNL     1      23.056  47.677  49.214  1.00  0.00     0.164 A 
HETATM    9  N   UNL     1      22.087  47.031  48.536  1.00  0.00    -0.237 NA
HETATM   10  C   UNL     1      22.258  45.702  48.373  1.00  0.00     0.120 A 
HETATM   11  C   UNL     1      23.341  44.992  48.869  1.00  0.00     0.028 A 
BRANCH   8  12
HETATM   12  O   UNL     1      22.944  49.040  49.424  1.00  0.00    -0.329 OA
BRANCH  12  13
HETATM   13  C   UNL     1      21.850  49.697  48.751  1.00  0.00     0.130 C 
HETATM   14  C   UNL     1      20.689  50.220  49.640  1.00  0.00     0.032 C 
HETATM   15  C   UNL     1      20.647  51.470  48.744  1.00  0.00     0.005 C 
HETATM   16  C   UNL     1      22.116  51.182  48.388  1.00  0.00     0.032 C 
ENDBRANCH  12  13
ENDBRANCH   8  12
ENDBRANCH   5   6
ENDBRANCH   2   5
BRANCH   1  17
HETATM   17  C   UNL     1      26.252  45.851  53.682  1.00  0.00     0.157 A 
HETATM   18  C   UNL     1      27.467  45.440  54.306  1.00  0.00     0.029 A 
HETATM   19  C   UNL     1      28.370  44.368  54.161  1.00  0.00     0.023 A 
HETATM   20  C   UNL     1      27.729  46.413  55.262  1.00  0.00     0.063 A 
HETATM   21  C   UNL     1      29.508  44.307  54.983  1.00  0.00    -0.061 A 
HETATM   22  C   UNL     1      30.485  43.175  54.842  1.00  0.00     0.048 C 
HETATM   23  C   UNL     1      29.735  45.309  55.935  1.00  0.00     0.009 A 
HETATM   24  C   UNL     1      28.851  46.382  56.094  1.00  0.00     0.032 A 
HETATM   25  N   UNL     1      26.698  47.305  55.161  1.00  0.00    -0.277 N 
HETATM   26  H   UNL     1      26.562  48.148  55.707  1.00  0.00     0.189 HD
HETATM   27  N   UNL     1      25.786  47.001  54.219  1.00  0.00    -0.168 NA
ENDBRANCH   1  17
TORSDOF 5
ENDMDL
MODEL 6
REMARK VINA RESULT:      -8.5      5.476      8.965
REMARK  5 active torsions:
REMARK  status: ('A' for Active; 'I' for Inactive)
REMARK    1  A    between atoms: C_9  and  C_10 
REMARK       I    between atoms: C_10  and  N_11 
REMARK    2  A    between atoms: N_11  and  C_12 
REMARK    3  A    between atoms: C_12  and  C_13 
REMARK    4  A    between atoms: C_15  and  O_16 
REMARK    5  A    between atoms: O_16  and  C_17 
ROOT
HETATM    1  C   UNL     1      27.175  42.501  52.345  1.00  0.00     0.273 C 
HETATM    2  N   UNL     1      26.238  43.455  52.669  1.00  0.00    -0.351 N 
HETATM    3  O   UNL     1      27.896  41.952  53.172  1.00  0.00    -0.266 OA
HETATM    4  H   UNL     1      25.718  43.847  51.888  1.00  0.00     0.163 HD
ENDROOT
BRANCH   2   5
HETATM    5  C   UNL     1      25.967  43.872  54.019  1.00  0.00     0.161 C 
BRANCH   5   6
HETATM    6  C   UNL     1      26.745  45.105  54.396  1.00  0.00    -0.035 A 
HETATM    7  C   UNL     1      27.975  45.020  55.057  1.00  0.00     0.066 A 
HETATM    8  C   UNL     1      28.651  46.189  55.363  1.00  0.00     0.164 A 
HETATM    9  N   UNL     1      28.214  47.423  55.039  1.00  0.00    -0.237 NA
HETATM   10  C   UNL     1      27.042  47.484  54.374  1.00  0.00     0.120 A 
HETATM   11  C   UNL     1      26.283  46.374  54.034  1.00  0.00     0.028 A 
BRANCH   8  12
HETATM   12  O   UNL     1      29.843  46.051  56.051  1.00  0.00    -0.329 OA
BRANCH  12  13
HETATM   13  C   UNL     1      30.139  44.729  56.549  1.00  0.00     0.130 C 
HETATM   14  C   UNL     1      31.303  43.964  55.865  1.00  0.00     0.032 C 
HETATM   15  C   UNL     1      31.719  43.470  57.261  1.00  0.00     0.005 C 
HETATM   16  C   UNL     1      31.004  44.705  57.837  1.00  0.00     0.032 C 
ENDBRANCH  12  13
ENDBRANCH   8  12
ENDBRANCH   5   6
ENDBRANCH   2   5
BRANCH   1  17
HETATM   17  C   UNL     1      27.212  42.194  50.906  1.00  0.00     0.157 A 
HETATM   18  C   UNL     1      27.809  41.061  50.279  1.00  0.00     0.029 A 
HETATM   19  C   UNL     1      28.523  39.923  50.707  1.00  0.00     0.023 A 
HETATM   20  C   UNL     1      27.555  41.221  48.923  1.00  0.00     0.063 A 
HETATM   21  C   UNL     1      28.959  38.983  49.758  1.00  0.00    -0.061 A 
HETATM   22  C   UNL     1      29.717  37.762  50.194  1.00  0.00     0.048 C 
HETATM   23  C   UNL     1      28.682  39.184  48.400  1.00  0.00     0.009 A 
HETATM   24  C   UNL     1      27.974  40.306  47.954  1.00  0.00     0.032 A 
HETATM   25  N   UNL     1      26.855  42.392  48.824  1.00  0.00    -0.277 N 
HETATM   26  H   UNL     1      26.500  42.823  47.977  1.00  0.00     0.189 HD
HETATM   27  N   UNL     1      26.628  43.009  49.997  1.00  0.00    -0.168 NA
ENDBRANCH   1  17
TORSDOF 5
ENDMDL
MODEL 7
REMARK VINA RESULT:      -8.3      2.942      3.794
REMARK  5 active torsions:
REMARK  status: ('A' for Active; 'I' for Inactive)
REMARK    1  A    between atoms: C_9  and  C_10 
REMARK       I    between atoms: C_10  and  N_11 
REMARK    2  A    between atoms: N_11  and  C_12 
REMARK    3  A    between atoms: C_12  and  C_13 
REMARK    4  A    between atoms: C_15  and  O_16 
REMARK    5  A    between atoms: O_16  and  C_17 
ROOT
HETATM    1  C   UNL     1      26.901  42.730  50.150  1.00  0.00     0.273 C 
HETATM    2  N   UNL     1      25.743  43.281  50.646  1.00  0.00    -0.351 N 
HETATM    3  O   UNL     1      27.133  42.606  48.952  1.00  0.00    -0.266 OA
HETATM    4  H   UNL     1      25.664  43.309  51.660  1.00  0.00     0.163 HD
ENDROOT
BRANCH   2   5
HETATM    5  C   UNL     1      24.702  43.821  49.812  1.00  0.00     0.161 C 
BRANCH   5   6
HETATM    6  C   UNL     1      24.670  45.326  49.851  1.00  0.00    -0.035 A 
HETATM    7  C   UNL     1      23.625  46.051  49.270  1.00  0.00     0.066 A 
HETATM    8  C   UNL     1      23.643  47.433  49.353  1.00  0.00     0.164 A 
HETATM    9  N   UNL     1      24.599  48.140  49.990  1.00  0.00    -0.237 NA
HETATM   10  C   UNL     1      25.582  47.423  50.572  1.00  0.00     0.120 A 
HETATM   11  C   UNL     1      25.662  46.039  50.532  1.00  0.00     0.028 A 
BRANCH   8  12
HETATM   12  O   UNL     1      22.607  48.103  48.728  1.00  0.00    -0.329 OA
BRANCH  12  13
HETATM   13  C   UNL     1      22.370  49.457  49.168  1.00  0.00     0.130 C 
HETATM   14  C   UNL     1      22.666  50.589  48.147  1.00  0.00     0.032 C 
HETATM   15  C   UNL     1      21.392  51.291  48.649  1.00  0.00     0.005 C 
HETATM   16  C   UNL     1      20.888  49.908  49.097  1.00  0.00     0.032 C 
ENDBRANCH  12  13
ENDBRANCH   8  12
ENDBRANCH   5   6
ENDBRANCH   2   5
BRANCH   1  17
HETATM   17  C   UNL     1      27.842  42.319  51.206  1.00  0.00     0.157 A 
HETATM   18  C   UNL     1      28.196  43.049  52.379  1.00  0.00     0.029 A 
HETATM   19  C   UNL     1      27.854  44.295  52.941  1.00  0.00     0.023 A 
HETATM   20  C   UNL     1      29.092  42.232  53.056  1.00  0.00     0.063 A 
HETATM   21  C   UNL     1      28.423  44.682  54.165  1.00  0.00    -0.061 A 
HETATM   22  C   UNL     1      28.068  46.003  54.784  1.00  0.00     0.048 C 
HETATM   23  C   UNL     1      29.322  43.827  54.816  1.00  0.00     0.009 A 
HETATM   24  C   UNL     1      29.676  42.586  54.276  1.00  0.00     0.032 A 
HETATM   25  N   UNL     1      29.218  41.114  52.280  1.00  0.00    -0.277 N 
HETATM   26  H   UNL     1      29.793  40.300  52.468  1.00  0.00     0.189 HD
HETATM   27  N   UNL     1      28.481  41.128  51.155  1.00  0.00    -0.168 NA
ENDBRANCH   1  17
TORSDOF 5
ENDMDL
MODEL 8
REMARK VINA RESULT:      -8.3      3.492      5.189
REMARK  5 active torsions:
REMARK  status: ('A' for Active; 'I' for Inactive)
REMARK    1  A    between atoms: C_9  and  C_10 
REMARK       I    between atoms: C_10  and  N_11 
REMARK    2  A    between atoms: N_11  and  C_12 
REMARK    3  A    between atoms: C_12  and  C_13 
REMARK    4  A    between atoms: C_15  and  O_16 
REMARK    5  A    between atoms: O_16  and  C_17 
ROOT
HETATM    1  C   UNL     1      28.303  42.542  52.778  1.00  0.00     0.273 C 
HETATM    2  N   UNL     1      27.053  42.312  52.250  1.00  0.00    -0.351 N 
HETATM    3  O   UNL     1      29.277  41.834  52.544  1.00  0.00    -0.266 OA
HETATM    4  H   UNL     1      26.325  42.962  52.538  1.00  0.00     0.163 HD
ENDROOT
BRANCH   2   5
HETATM    5  C   UNL     1      26.768  41.248  51.326  1.00  0.00     0.161 C 
BRANCH   5   6
HETATM    6  C   UNL     1      25.885  41.704  50.194  1.00  0.00    -0.035 A 
HETATM    7  C   UNL     1      25.573  43.055  50.008  1.00  0.00     0.066 A 
HETATM    8  C   UNL     1      24.769  43.414  48.940  1.00  0.00     0.164 A 
HETATM    9  N   UNL     1      24.281  42.542  48.034  1.00  0.00    -0.237 NA
HETATM   10  C   UNL     1      24.618  41.248  48.211  1.00  0.00     0.120 A 
HETATM   11  C   UNL     1      25.403  40.786  49.256  1.00  0.00     0.028 A 
BRANCH   8  12
HETATM   12  O   UNL     1      24.460  44.757  48.824  1.00  0.00    -0.329 OA
BRANCH  12  13
HETATM   13  C   UNL     1      24.930  45.610  49.888  1.00  0.00     0.130 C 
HETATM   14  C   UNL     1      26.302  46.306  49.678  1.00  0.00     0.032 C 
HETATM   15  C   UNL     1      25.694  47.565  50.319  1.00  0.00     0.005 C 
HETATM   16  C   UNL     1      24.314  47.034  49.892  1.00  0.00     0.032 C 
ENDBRANCH  12  13
ENDBRANCH   8  12
ENDBRANCH   5   6
ENDBRANCH   2   5
BRANCH   1  17
HETATM   17  C   UNL     1      28.354  43.736  53.638  1.00  0.00     0.157 A 
HETATM   18  C   UNL     1      29.239  43.975  54.731  1.00  0.00     0.029 A 
HETATM   19  C   UNL     1      30.281  43.271  55.366  1.00  0.00     0.023 A 
HETATM   20  C   UNL     1      28.905  45.240  55.197  1.00  0.00     0.063 A 
HETATM   21  C   UNL     1      30.955  43.860  56.449  1.00  0.00    -0.061 A 
HETATM   22  C   UNL     1      32.072  43.128  57.136  1.00  0.00     0.048 C 
HETATM   23  C   UNL     1      30.586  45.138  56.887  1.00  0.00     0.009 A 
HETATM   24  C   UNL     1      29.554  45.855  56.271  1.00  0.00     0.032 A 
HETATM   25  N   UNL     1      27.882  45.662  54.393  1.00  0.00    -0.277 N 
HETATM   26  H   UNL     1      27.389  46.546  54.442  1.00  0.00     0.189 HD
HETATM   27  N   UNL     1      27.521  44.783  53.441  1.00  0.00    -0.168 NA
ENDBRANCH   1  17
TORSDOF 5
ENDMDL
MODEL 9
REMARK VINA RESULT:      -8.3      2.591      9.707
REMARK  5 active torsions:
REMARK  status: ('A' for Active; 'I' for Inactive)
REMARK    1  A    between atoms: C_9  and  C_10 
REMARK       I    between atoms: C_10  and  N_11 
REMARK    2  A    between atoms: N_11  and  C_12 
REMARK    3  A    between atoms: C_12  and  C_13 
REMARK    4  A    between atoms: C_15  and  O_16 
REMARK    5  A    between atoms: O_16  and  C_17 
ROOT
HETATM    1  C   UNL     1      23.584  48.436  49.294  1.00  0.00     0.273 C 
HETATM    2  N   UNL     1      23.850  47.353  50.099  1.00  0.00    -0.351 N 
HETATM    3  O   UNL     1      24.244  49.470  49.310  1.00  0.00    -0.266 OA
HETATM    4  H   UNL     1      23.217  46.563  50.003  1.00  0.00     0.163 HD
ENDROOT
BRANCH   2   5
HETATM    5  C   UNL     1      24.964  47.297  51.008  1.00  0.00     0.161 C 
BRANCH   5   6
HETATM    6  C   UNL     1      25.718  45.999  50.898  1.00  0.00    -0.035 A 
HETATM    7  C   UNL     1      26.232  45.352  52.027  1.00  0.00     0.066 A 
HETATM    8  C   UNL     1      26.902  44.152  51.864  1.00  0.00     0.164 A 
HETATM    9  N   UNL     1      27.073  43.537  50.676  1.00  0.00    -0.237 NA
HETATM   10  C   UNL     1      26.544  44.158  49.601  1.00  0.00     0.120 A 
HETATM   11  C   UNL     1      25.870  45.369  49.658  1.00  0.00     0.028 A 
BRANCH   8  12
HETATM   12  O   UNL     1      27.423  43.575  53.007  1.00  0.00    -0.329 OA
BRANCH  12  13
HETATM   13  C   UNL     1      28.817  43.837  53.272  1.00  0.00     0.130 C 
HETATM   14  C   UNL     1      29.235  43.979  54.761  1.00  0.00     0.032 C 
HETATM   15  C   UNL     1      30.507  43.183  54.416  1.00  0.00     0.005 C 
HETATM   16  C   UNL     1      29.728  42.582  53.232  1.00  0.00     0.032 C 
ENDBRANCH  12  13
ENDBRANCH   8  12
ENDBRANCH   5   6
ENDBRANCH   2   5
BRANCH   1  17
HETATM   17  C   UNL     1      22.435  48.220  48.398  1.00  0.00     0.157 A 
HETATM   18  C   UNL     1      21.353  49.115  48.151  1.00  0.00     0.029 A 
HETATM   19  C   UNL     1      20.972  50.396  48.599  1.00  0.00     0.023 A 
HETATM   20  C   UNL     1      20.550  48.464  47.223  1.00  0.00     0.063 A 
HETATM   21  C   UNL     1      19.796  50.981  48.101  1.00  0.00    -0.061 A 
HETATM   22  C   UNL     1      19.375  52.347  48.562  1.00  0.00     0.048 C 
HETATM   23  C   UNL     1      19.015  50.290  47.166  1.00  0.00     0.009 A 
HETATM   24  C   UNL     1      19.375  49.018  46.708  1.00  0.00     0.032 A 
HETATM   25  N   UNL     1      21.171  47.269  46.985  1.00  0.00    -0.277 N 
HETATM   26  H   UNL     1      20.866  46.535  46.355  1.00  0.00     0.189 HD
HETATM   27  N   UNL     1      22.311  47.084  47.675  1.00  0.00    -0.168 NA
ENDBRANCH   1  17
TORSDOF 5
ENDMDL
MODEL 10
REMARK VINA RESULT:      -8.0      2.551      2.915
REMARK  5 active torsions:
REMARK  status: ('A' for Active; 'I' for Inactive)
REMARK    1  A    between atoms: C_9  and  C_10 
REMARK       I    between atoms: C_10  and  N_11 
REMARK    2  A    between atoms: N_11  and  C_12 
REMARK    3  A    between atoms: C_12  and  C_13 
REMARK    4  A    between atoms: C_15  and  O_16 
REMARK    5  A    between atoms: O_16  and  C_17 
ROOT
HETATM    1  C   UNL     1      26.459  46.047  50.433  1.00  0.00     0.273 C 
HETATM    2  N   UNL     1      25.970  47.332  50.467  1.00  0.00    -0.351 N 
HETATM    3  O   UNL     1      27.078  45.583  49.482  1.00  0.00    -0.266 OA
HETATM    4  H   UNL     1      25.456  47.589  51.307  1.00  0.00     0.163 HD
ENDROOT
BRANCH   2   5
HETATM    5  C   UNL     1      26.179  48.287  49.412  1.00  0.00     0.161 C 
BRANCH   5   6
HETATM    6  C   UNL     1      24.885  48.879  48.921  1.00  0.00    -0.035 A 
HETATM    7  C   UNL     1      23.649  48.319  49.259  1.00  0.00     0.066 A 
HETATM    8  C   UNL     1      22.492  48.919  48.791  1.00  0.00     0.164 A 
HETATM    9  N   UNL     1      22.472  50.041  48.041  1.00  0.00    -0.237 NA
HETATM   10  C   UNL     1      23.672  50.585  47.751  1.00  0.00     0.120 A 
HETATM   11  C   UNL     1      24.885  50.053  48.160  1.00  0.00     0.028 A 
BRANCH   8  12
HETATM   12  O   UNL     1      21.299  48.303  49.122  1.00  0.00    -0.329 OA
BRANCH  12  13
HETATM   13  C   UNL     1      20.144  49.164  49.209  1.00  0.00     0.130 C 
HETATM   14  C   UNL     1      19.032  48.958  48.145  1.00  0.00     0.032 C 
HETATM   15  C   UNL     1      18.002  49.172  49.268  1.00  0.00     0.005 C 
HETATM   16  C   UNL     1      19.090  48.723  50.259  1.00  0.00     0.032 C 
ENDBRANCH  12  13
ENDBRANCH   8  12
ENDBRANCH   5   6
ENDBRANCH   2   5
BRANCH   1  17
HETATM   17  C   UNL     1      26.177  45.290  51.665  1.00  0.00     0.157 A 
HETATM   18  C   UNL     1      27.077  44.457  52.392  1.00  0.00     0.029 A 
HETATM   19  C   UNL     1      28.421  44.055  52.257  1.00  0.00     0.023 A 
HETATM   20  C   UNL     1      26.345  43.994  53.478  1.00  0.00     0.063 A 
HETATM   21  C   UNL     1      28.987  43.200  53.217  1.00  0.00    -0.061 A 
HETATM   22  C   UNL     1      30.419  42.763  53.095  1.00  0.00     0.048 C 
HETATM   23  C   UNL     1      28.213  42.756  54.297  1.00  0.00     0.009 A 
HETATM   24  C   UNL     1      26.877  43.143  54.450  1.00  0.00     0.032 A 
HETATM   25  N   UNL     1      25.104  44.550  53.338  1.00  0.00    -0.277 N 
HETATM   26  H   UNL     1      24.307  44.431  53.955  1.00  0.00     0.189 HD
HETATM   27  N   UNL     1      24.962  45.338  52.257  1.00  0.00    -0.168 NA
ENDBRANCH   1  17
TORSDOF 5
ENDMDL
