MODEL 1
REMARK VINA RESULT:      -7.8      0.000      0.000
REMARK  6 active torsions:
REMARK  status: ('A' for Active; 'I' for Inactive)
REMARK    1  A    between atoms: C_2  and  C_3 
REMARK    2  A    between atoms: C_3  and  N_4 
REMARK    3  A    between atoms: C_3  and  C_15 
REMARK       I    between atoms: N_4  and  C_5 
REMARK       I    between atoms: C_5  and  N_6 
REMARK    4  A    between atoms: N_6  and  C_7 
REMARK    5  A    between atoms: C_16  and  O_17 
REMARK    6  A    between atoms: O_17  and  C_18 
ROOT
HETATM    1  N   UNL     1      26.661  44.911  54.802  1.00  0.00    -0.334 N 
HETATM    2  C   UNL     1      25.830  44.555  53.781  1.00  0.00     0.321 C 
HETATM    3  N   UNL     1      26.397  44.615  52.538  1.00  0.00    -0.307 N 
HETATM    4  O   UNL     1      24.694  44.176  54.045  1.00  0.00    -0.247 OA
HETATM    5  H   UNL     1      26.229  44.809  55.710  1.00  0.00     0.165 HD
HETATM    6  H   UNL     1      27.358  44.294  52.558  1.00  0.00     0.170 HD
ENDROOT
BRANCH   1   7
HETATM    7  C   UNL     1      27.849  45.763  54.726  1.00  0.00     0.122 C 
BRANCH   7   8
HETATM    8  C   UNL     1      27.493  47.195  55.196  1.00  0.00     0.026 C 
HETATM    9  C   UNL     1      26.280  47.825  54.513  1.00  0.00     0.007 C 
ENDBRANCH   7   8
BRANCH   7  10
HETATM   10  C   UNL     1      29.047  45.071  55.369  1.00  0.00    -0.002 A 
HETATM   11  C   UNL     1      29.607  43.927  54.752  1.00  0.00     0.077 A 
HETATM   12  C   UNL     1      30.734  43.302  55.300  1.00  0.00     0.037 A 
HETATM   13  C   UNL     1      31.310  43.789  56.471  1.00  0.00     0.003 A 
HETATM   14  C   UNL     1      30.774  44.912  57.090  1.00  0.00     0.001 A 
HETATM   15  C   UNL     1      29.659  45.551  56.541  1.00  0.00     0.012 A 
BRANCH  11  16
HETATM   16  O   UNL     1      29.040  43.514  53.568  1.00  0.00    -0.351 OA
BRANCH  16  17
HETATM   17  C   UNL     1      29.374  42.181  53.169  1.00  0.00     0.171 C 
HETATM   18  C   UNL     1      28.149  41.306  53.366  1.00  0.00     0.034 C 
ENDBRANCH  16  17
ENDBRANCH  11  16
ENDBRANCH   7  10
ENDBRANCH   1   7
BRANCH   3  19
HETATM   19  C   UNL     1      25.732  44.498  51.298  1.00  0.00     0.059 A 
HETATM   20  C   UNL     1      25.116  45.544  50.595  1.00  0.00    -0.032 A 
HETATM   21  C   UNL     1      25.100  46.979  51.041  1.00  0.00     0.050 C 
HETATM   22  C   UNL     1      24.487  45.242  49.374  1.00  0.00     0.028 A 
HETATM   23  C   UNL     1      24.543  43.951  48.873  1.00  0.00     0.117 A 
HETATM   24  N   UNL     1      25.178  42.940  49.493  1.00  0.00    -0.271 NA
HETATM   25  C   UNL     1      25.753  43.241  50.683  1.00  0.00     0.146 A 
ENDBRANCH   3  19
TORSDOF 6
ENDMDL
MODEL 2
REMARK VINA RESULT:      -7.7      2.502      4.038
REMARK  6 active torsions:
REMARK  status: ('A' for Active; 'I' for Inactive)
REMARK    1  A    between atoms: C_2  and  C_3 
REMARK    2  A    between atoms: C_3  and  N_4 
REMARK    3  A    between atoms: C_3  and  C_15 
REMARK       I    between atoms: N_4  and  C_5 
REMARK       I    between atoms: C_5  and  N_6 
REMARK    4  A    between atoms: N_6  and  C_7 
REMARK    5  A    between atoms: C_16  and  O_17 
REMARK    6  A    between atoms: O_17  and  C_18 
ROOT
HETATM    1  N   UNL     1      27.319  44.569  51.253  1.00  0.00    -0.334 N 
HETATM    2  C   UNL     1      26.808  45.394  50.295  1.00  0.00     0.321 C 
HETATM    3  N   UNL     1      26.434  46.629  50.748  1.00  0.00    -0.307 N 
HETATM    4  O   UNL     1      26.767  45.003  49.134  1.00  0.00    -0.247 OA
HETATM    5  H   UNL     1      27.630  43.683  50.878  1.00  0.00     0.165 HD
HETATM    6  H   UNL     1      27.088  46.980  51.438  1.00  0.00     0.170 HD
ENDROOT
BRANCH   1   7
HETATM    7  C   UNL     1      27.088  44.631  52.697  1.00  0.00     0.122 C 
BRANCH   7   8
HETATM    8  C   UNL     1      25.752  43.930  53.041  1.00  0.00     0.026 C 
HETATM    9  C   UNL     1      25.081  44.396  54.332  1.00  0.00     0.007 C 
ENDBRANCH   7   8
BRANCH   7  10
HETATM   10  C   UNL     1      28.341  44.209  53.458  1.00  0.00    -0.002 A 
HETATM   11  C   UNL     1      28.648  44.827  54.693  1.00  0.00     0.077 A 
HETATM   12  C   UNL     1      29.768  44.425  55.432  1.00  0.00     0.037 A 
HETATM   13  C   UNL     1      30.605  43.421  54.951  1.00  0.00     0.003 A 
HETATM   14  C   UNL     1      30.318  42.803  53.741  1.00  0.00     0.001 A 
HETATM   15  C   UNL     1      29.194  43.187  53.006  1.00  0.00     0.012 A 
BRANCH  11  16
HETATM   16  O   UNL     1      27.764  45.775  55.157  1.00  0.00    -0.351 OA
BRANCH  16  17
HETATM   17  C   UNL     1      28.204  47.131  55.026  1.00  0.00     0.171 C 
HETATM   18  C   UNL     1      27.012  48.040  55.265  1.00  0.00     0.034 C 
ENDBRANCH  16  17
ENDBRANCH  11  16
ENDBRANCH   7  10
ENDBRANCH   1   7
BRANCH   3  19
HETATM   19  C   UNL     1      25.702  47.606  50.038  1.00  0.00     0.059 A 
HETATM   20  C   UNL     1      26.249  48.668  49.302  1.00  0.00    -0.032 A 
HETATM   21  C   UNL     1      27.720  48.912  49.121  1.00  0.00     0.050 C 
HETATM   22  C   UNL     1      25.366  49.557  48.665  1.00  0.00     0.028 A 
HETATM   23  C   UNL     1      23.999  49.331  48.728  1.00  0.00     0.117 A 
HETATM   24  N   UNL     1      23.447  48.289  49.375  1.00  0.00    -0.271 NA
HETATM   25  C   UNL     1      24.311  47.459  50.008  1.00  0.00     0.146 A 
ENDBRANCH   3  19
TORSDOF 6
ENDMDL
MODEL 3
REMARK VINA RESULT:      -7.6      1.628      3.501
REMARK  6 active torsions:
REMARK  status: ('A' for Active; 'I' for Inactive)
REMARK    1  A    between atoms: C_2  and  C_3 
REMARK    2  A    between atoms: C_3  and  N_4 
REMARK    3  A    between atoms: C_3  and  C_15 
REMARK       I    between atoms: N_4  and  C_5 
REMARK       I    between atoms: C_5  and  N_6 
REMARK    4  A    between atoms: N_6  and  C_7 
REMARK    5  A    between atoms: C_16  and  O_17 
REMARK    6  A    between atoms: O_17  and  C_18 
ROOT
HETATM    1  N   UNL     1      28.247  43.373  52.053  1.00  0.00    -0.334 N 
HETATM    2  C   UNL     1      27.287  43.640  51.123  1.00  0.00     0.321 C 
HETATM    3  N   UNL     1      26.063  43.960  51.644  1.00  0.00    -0.307 N 
HETATM    4  O   UNL     1      27.589  43.623  49.935  1.00  0.00    -0.247 OA
HETATM    5  H   UNL     1      29.150  43.188  51.638  1.00  0.00     0.165 HD
HETATM    6  H   UNL     1      26.157  44.537  52.472  1.00  0.00     0.170 HD
ENDROOT
BRANCH   1   7
HETATM    7  C   UNL     1      28.050  42.928  53.433  1.00  0.00     0.122 C 
BRANCH   7   8
HETATM    8  C   UNL     1      28.121  41.382  53.497  1.00  0.00     0.026 C 
HETATM    9  C   UNL     1      28.951  40.719  52.399  1.00  0.00     0.007 C 
ENDBRANCH   7   8
BRANCH   7  10
HETATM   10  C   UNL     1      28.932  43.729  54.386  1.00  0.00    -0.002 A 
HETATM   11  C   UNL     1      28.586  45.065  54.700  1.00  0.00     0.077 A 
HETATM   12  C   UNL     1      29.355  45.805  55.607  1.00  0.00     0.037 A 
HETATM   13  C   UNL     1      30.482  45.241  56.199  1.00  0.00     0.003 A 
HETATM   14  C   UNL     1      30.835  43.931  55.904  1.00  0.00     0.001 A 
HETATM   15  C   UNL     1      30.064  43.180  55.012  1.00  0.00     0.012 A 
BRANCH  11  16
HETATM   16  O   UNL     1      27.435  45.564  54.134  1.00  0.00    -0.351 OA
BRANCH  16  17
HETATM   17  C   UNL     1      27.102  46.903  54.515  1.00  0.00     0.171 C 
HETATM   18  C   UNL     1      25.847  47.311  53.765  1.00  0.00     0.034 C 
ENDBRANCH  16  17
ENDBRANCH  11  16
ENDBRANCH   7  10
ENDBRANCH   1   7
BRANCH   3  19
HETATM   19  C   UNL     1      24.849  44.089  50.936  1.00  0.00     0.059 A 
HETATM   20  C   UNL     1      24.428  45.224  50.226  1.00  0.00    -0.032 A 
HETATM   21  C   UNL     1      25.233  46.483  50.075  1.00  0.00     0.050 C 
HETATM   22  C   UNL     1      23.176  45.180  49.586  1.00  0.00     0.028 A 
HETATM   23  C   UNL     1      22.428  44.013  49.621  1.00  0.00     0.117 A 
HETATM   24  N   UNL     1      22.830  42.890  50.242  1.00  0.00    -0.271 NA
HETATM   25  C   UNL     1      24.025  42.959  50.878  1.00  0.00     0.146 A 
ENDBRANCH   3  19
TORSDOF 6
ENDMDL
MODEL 4
REMARK VINA RESULT:      -7.2      1.840      3.886
REMARK  6 active torsions:
REMARK  status: ('A' for Active; 'I' for Inactive)
REMARK    1  A    between atoms: C_2  and  C_3 
REMARK    2  A    between atoms: C_3  and  N_4 
REMARK    3  A    between atoms: C_3  and  C_15 
REMARK       I    between atoms: N_4  and  C_5 
REMARK       I    between atoms: C_5  and  N_6 
REMARK    4  A    between atoms: N_6  and  C_7 
REMARK    5  A    between atoms: C_16  and  O_17 
REMARK    6  A    between atoms: O_17  and  C_18 
ROOT
HETATM    1  N   UNL     1      28.299  44.149  52.037  1.00  0.00    -0.334 N 
HETATM    2  C   UNL     1      27.363  44.006  51.056  1.00  0.00     0.321 C 
HETATM    3  N   UNL     1      26.298  43.218  51.396  1.00  0.00    -0.307 N 
HETATM    4  O   UNL     1      27.513  44.609  49.999  1.00  0.00    -0.247 OA
HETATM    5  H   UNL     1      29.047  44.775  51.773  1.00  0.00     0.165 HD
HETATM    6  H   UNL     1      26.019  43.373  52.357  1.00  0.00     0.170 HD
ENDROOT
BRANCH   1   7
HETATM    7  C   UNL     1      28.557  43.244  53.158  1.00  0.00     0.122 C 
BRANCH   7   8
HETATM    8  C   UNL     1      29.309  41.989  52.652  1.00  0.00     0.026 C 
HETATM    9  C   UNL     1      28.594  40.659  52.885  1.00  0.00     0.007 C 
ENDBRANCH   7   8
BRANCH   7  10
HETATM   10  C   UNL     1      29.146  44.010  54.340  1.00  0.00    -0.002 A 
HETATM   11  C   UNL     1      28.445  45.117  54.873  1.00  0.00     0.077 A 
HETATM   12  C   UNL     1      28.944  45.806  55.985  1.00  0.00     0.037 A 
HETATM   13  C   UNL     1      30.148  45.422  56.571  1.00  0.00     0.003 A 
HETATM   14  C   UNL     1      30.848  44.336  56.061  1.00  0.00     0.001 A 
HETATM   15  C   UNL     1      30.349  43.633  54.961  1.00  0.00     0.012 A 
BRANCH  11  16
HETATM   16  O   UNL     1      27.234  45.428  54.299  1.00  0.00    -0.351 OA
BRANCH  16  17
HETATM   17  C   UNL     1      26.941  46.826  54.220  1.00  0.00     0.171 C 
HETATM   18  C   UNL     1      26.190  47.081  52.925  1.00  0.00     0.034 C 
ENDBRANCH  16  17
ENDBRANCH  11  16
ENDBRANCH   7  10
ENDBRANCH   1   7
BRANCH   3  19
HETATM   19  C   UNL     1      25.290  42.738  50.530  1.00  0.00     0.059 A 
HETATM   20  C   UNL     1      25.408  41.642  49.662  1.00  0.00    -0.032 A 
HETATM   21  C   UNL     1      26.628  40.774  49.544  1.00  0.00     0.050 C 
HETATM   22  C   UNL     1      24.301  41.310  48.860  1.00  0.00     0.028 A 
HETATM   23  C   UNL     1      23.121  42.024  48.989  1.00  0.00     0.117 A 
HETATM   24  N   UNL     1      22.957  43.041  49.854  1.00  0.00    -0.271 NA
HETATM   25  C   UNL     1      24.042  43.367  50.598  1.00  0.00     0.146 A 
ENDBRANCH   3  19
TORSDOF 6
ENDMDL
MODEL 5
REMARK VINA RESULT:      -7.2      1.500      6.874
REMARK  6 active torsions:
REMARK  status: ('A' for Active; 'I' for Inactive)
REMARK    1  A    between atoms: C_2  and  C_3 
REMARK    2  A    between atoms: C_3  and  N_4 
REMARK    3  A    between atoms: C_3  and  C_15 
REMARK       I    between atoms: N_4  and  C_5 
REMARK       I    between atoms: C_5  and  N_6 
REMARK    4  A    between atoms: N_6  and  C_7 
REMARK    5  A    between atoms: C_16  and  O_17 
REMARK    6  A    between atoms: O_17  and  C_18 
ROOT
HETATM    1  N   UNL     1      25.620  43.772  53.000  1.00  0.00    -0.334 N 
HETATM    2  C   UNL     1      26.481  43.768  54.057  1.00  0.00     0.321 C 
HETATM    3  N   UNL     1      27.707  44.315  53.796  1.00  0.00    -0.307 N 
HETATM    4  O   UNL     1      26.093  43.335  55.137  1.00  0.00    -0.247 OA
HETATM    5  H   UNL     1      24.709  43.406  53.238  1.00  0.00     0.165 HD
HETATM    6  H   UNL     1      27.625  45.130  53.199  1.00  0.00     0.170 HD
ENDROOT
BRANCH   1   7
HETATM    7  C   UNL     1      25.959  43.828  51.577  1.00  0.00     0.122 C 
BRANCH   7   8
HETATM    8  C   UNL     1      25.895  42.405  50.971  1.00  0.00     0.026 C 
HETATM    9  C   UNL     1      27.164  41.568  51.127  1.00  0.00     0.007 C 
ENDBRANCH   7   8
BRANCH   7  10
HETATM   10  C   UNL     1      25.181  44.943  50.884  1.00  0.00    -0.002 A 
HETATM   11  C   UNL     1      25.353  46.281  51.308  1.00  0.00     0.077 A 
HETATM   12  C   UNL     1      24.684  47.326  50.657  1.00  0.00     0.037 A 
HETATM   13  C   UNL     1      23.825  47.057  49.594  1.00  0.00     0.003 A 
HETATM   14  C   UNL     1      23.645  45.749  49.164  1.00  0.00     0.001 A 
HETATM   15  C   UNL     1      24.322  44.703  49.797  1.00  0.00     0.012 A 
BRANCH  11  16
HETATM   16  O   UNL     1      26.253  46.506  52.325  1.00  0.00    -0.351 OA
BRANCH  16  17
HETATM   17  C   UNL     1      25.769  47.328  53.392  1.00  0.00     0.171 C 
HETATM   18  C   UNL     1      26.957  47.764  54.230  1.00  0.00     0.034 C 
ENDBRANCH  16  17
ENDBRANCH  11  16
ENDBRANCH   7  10
ENDBRANCH   1   7
BRANCH   3  19
HETATM   19  C   UNL     1      28.849  44.270  54.625  1.00  0.00     0.059 A 
HETATM   20  C   UNL     1      29.944  43.406  54.468  1.00  0.00    -0.032 A 
HETATM   21  C   UNL     1      30.091  42.408  53.355  1.00  0.00     0.050 C 
HETATM   22  C   UNL     1      30.994  43.491  55.400  1.00  0.00     0.028 A 
HETATM   23  C   UNL     1      30.950  44.452  56.398  1.00  0.00     0.117 A 
HETATM   24  N   UNL     1      29.944  45.333  56.539  1.00  0.00    -0.271 NA
HETATM   25  C   UNL     1      28.926  45.218  55.652  1.00  0.00     0.146 A 
ENDBRANCH   3  19
TORSDOF 6
ENDMDL
MODEL 6
REMARK VINA RESULT:      -7.0      1.926      4.013
REMARK  6 active torsions:
REMARK  status: ('A' for Active; 'I' for Inactive)
REMARK    1  A    between atoms: C_2  and  C_3 
REMARK    2  A    between atoms: C_3  and  N_4 
REMARK    3  A    between atoms: C_3  and  C_15 
REMARK       I    between atoms: N_4  and  C_5 
REMARK       I    between atoms: C_5  and  N_6 
REMARK    4  A    between atoms: N_6  and  C_7 
REMARK    5  A    between atoms: C_16  and  O_17 
REMARK    6  A    between atoms: O_17  and  C_18 
ROOT
HETATM    1  N   UNL     1      25.262  44.781  52.257  1.00  0.00    -0.334 N 
HETATM    2  C   UNL     1      25.462  43.585  51.633  1.00  0.00     0.321 C 
HETATM    3  N   UNL     1      26.750  43.361  51.232  1.00  0.00    -0.307 N 
HETATM    4  O   UNL     1      24.520  42.808  51.523  1.00  0.00    -0.247 OA
HETATM    5  H   UNL     1      24.313  44.896  52.584  1.00  0.00     0.165 HD
HETATM    6  H   UNL     1      27.413  43.703  51.918  1.00  0.00     0.170 HD
ENDROOT
BRANCH   1   7
HETATM    7  C   UNL     1      26.071  45.995  52.134  1.00  0.00     0.122 C 
BRANCH   7   8
HETATM    8  C   UNL     1      25.363  46.998  51.191  1.00  0.00     0.026 C 
HETATM    9  C   UNL     1      26.285  47.786  50.261  1.00  0.00     0.007 C 
ENDBRANCH   7   8
BRANCH   7  10
HETATM   10  C   UNL     1      26.512  46.487  53.509  1.00  0.00    -0.002 A 
HETATM   11  C   UNL     1      27.509  45.776  54.218  1.00  0.00     0.077 A 
HETATM   12  C   UNL     1      27.962  46.234  55.462  1.00  0.00     0.037 A 
HETATM   13  C   UNL     1      27.422  47.387  56.027  1.00  0.00     0.003 A 
HETATM   14  C   UNL     1      26.444  48.098  55.344  1.00  0.00     0.001 A 
HETATM   15  C   UNL     1      25.998  47.657  54.095  1.00  0.00     0.012 A 
BRANCH  11  16
HETATM   16  O   UNL     1      28.052  44.673  53.599  1.00  0.00    -0.351 OA
BRANCH  16  17
HETATM   17  C   UNL     1      28.475  43.628  54.481  1.00  0.00     0.171 C 
HETATM   18  C   UNL     1      29.952  43.373  54.240  1.00  0.00     0.034 C 
ENDBRANCH  16  17
ENDBRANCH  11  16
ENDBRANCH   7  10
ENDBRANCH   1   7
BRANCH   3  19
HETATM   19  C   UNL     1      27.208  42.317  50.398  1.00  0.00     0.059 A 
HETATM   20  C   UNL     1      27.855  41.148  50.827  1.00  0.00    -0.032 A 
HETATM   21  C   UNL     1      28.133  40.804  52.263  1.00  0.00     0.050 C 
HETATM   22  C   UNL     1      28.255  40.216  49.852  1.00  0.00     0.028 A 
HETATM   23  C   UNL     1      27.949  40.443  48.520  1.00  0.00     0.117 A 
HETATM   24  N   UNL     1      27.278  41.523  48.084  1.00  0.00    -0.271 NA
HETATM   25  C   UNL     1      26.926  42.425  49.032  1.00  0.00     0.146 A 
ENDBRANCH   3  19
TORSDOF 6
ENDMDL
MODEL 7
REMARK VINA RESULT:      -6.6      2.118      3.031
REMARK  6 active torsions:
REMARK  status: ('A' for Active; 'I' for Inactive)
REMARK    1  A    between atoms: C_2  and  C_3 
REMARK    2  A    between atoms: C_3  and  N_4 
REMARK    3  A    between atoms: C_3  and  C_15 
REMARK       I    between atoms: N_4  and  C_5 
REMARK       I    between atoms: C_5  and  N_6 
REMARK    4  A    between atoms: N_6  and  C_7 
REMARK    5  A    between atoms: C_16  and  O_17 
REMARK    6  A    between atoms: O_17  and  C_18 
ROOT
HETATM    1  N   UNL     1      27.547  44.698  51.744  1.00  0.00    -0.334 N 
HETATM    2  C   UNL     1      26.861  45.206  50.681  1.00  0.00     0.321 C 
HETATM    3  N   UNL     1      26.002  46.224  50.992  1.00  0.00    -0.307 N 
HETATM    4  O   UNL     1      27.091  44.765  49.560  1.00  0.00    -0.247 OA
HETATM    5  H   UNL     1      28.208  43.982  51.475  1.00  0.00     0.165 HD
HETATM    6  H   UNL     1      26.399  46.838  51.693  1.00  0.00     0.170 HD
ENDROOT
BRANCH   1   7
HETATM    7  C   UNL     1      27.163  44.747  53.156  1.00  0.00     0.122 C 
BRANCH   7   8
HETATM    8  C   UNL     1      25.884  43.903  53.377  1.00  0.00     0.026 C 
HETATM    9  C   UNL     1      25.118  44.200  54.666  1.00  0.00     0.007 C 
ENDBRANCH   7   8
BRANCH   7  10
HETATM   10  C   UNL     1      28.370  44.474  54.049  1.00  0.00    -0.002 A 
HETATM   11  C   UNL     1      29.156  43.319  53.826  1.00  0.00     0.077 A 
HETATM   12  C   UNL     1      30.294  43.071  54.605  1.00  0.00     0.037 A 
HETATM   13  C   UNL     1      30.657  43.951  55.622  1.00  0.00     0.003 A 
HETATM   14  C   UNL     1      29.897  45.090  55.853  1.00  0.00     0.001 A 
HETATM   15  C   UNL     1      28.769  45.353  55.071  1.00  0.00     0.012 A 
BRANCH  11  16
HETATM   16  O   UNL     1      28.793  42.507  52.776  1.00  0.00    -0.351 OA
BRANCH  16  17
HETATM   17  C   UNL     1      28.398  41.181  53.143  1.00  0.00     0.171 C 
HETATM   18  C   UNL     1      29.029  40.210  52.162  1.00  0.00     0.034 C 
ENDBRANCH  16  17
ENDBRANCH  11  16
ENDBRANCH   7  10
ENDBRANCH   1   7
BRANCH   3  19
HETATM   19  C   UNL     1      25.030  46.800  50.145  1.00  0.00     0.059 A 
HETATM   20  C   UNL     1      23.899  46.148  49.629  1.00  0.00    -0.032 A 
HETATM   21  C   UNL     1      23.521  44.727  49.934  1.00  0.00     0.050 C 
HETATM   22  C   UNL     1      23.041  46.877  48.787  1.00  0.00     0.028 A 
HETATM   23  C   UNL     1      23.296  48.217  48.540  1.00  0.00     0.117 A 
HETATM   24  N   UNL     1      24.337  48.885  49.067  1.00  0.00    -0.271 NA
HETATM   25  C   UNL     1      25.170  48.162  49.852  1.00  0.00     0.146 A 
ENDBRANCH   3  19
TORSDOF 6
ENDMDL
MODEL 8
REMARK VINA RESULT:      -6.6      2.054      3.206
REMARK  6 active torsions:
REMARK  status: ('A' for Active; 'I' for Inactive)
REMARK    1  A    between atoms: C_2  and  C_3 
REMARK    2  A    between atoms: C_3  and  N_4 
REMARK    3  A    between atoms: C_3  and  C_15 
REMARK       I    between atoms: N_4  and  C_5 
REMARK       I    between atoms: C_5  and  N_6 
REMARK    4  A    between atoms: N_6  and  C_7 
REMARK    5  A    between atoms: C_16  and  O_17 
REMARK    6  A    between atoms: O_17  and  C_18 
ROOT
HETATM    1  N   UNL     1      25.550  43.551  52.229  1.00  0.00    -0.334 N 
HETATM    2  C   UNL     1      24.623  43.494  51.232  1.00  0.00     0.321 C 
HETATM    3  N   UNL     1      24.931  44.234  50.124  1.00  0.00    -0.307 N 
HETATM    4  O   UNL     1      23.641  42.773  51.374  1.00  0.00    -0.247 OA
HETATM    5  H   UNL     1      25.317  42.956  53.012  1.00  0.00     0.165 HD
HETATM    6  H   UNL     1      25.921  44.183  49.914  1.00  0.00     0.170 HD
ENDROOT
BRANCH   1   7
HETATM    7  C   UNL     1      26.532  44.609  52.472  1.00  0.00     0.122 C 
BRANCH   7   8
HETATM    8  C   UNL     1      25.848  45.800  53.186  1.00  0.00     0.026 C 
HETATM    9  C   UNL     1      25.634  47.044  52.326  1.00  0.00     0.007 C 
ENDBRANCH   7   8
BRANCH   7  10
HETATM   10  C   UNL     1      27.802  44.031  53.090  1.00  0.00    -0.002 A 
HETATM   11  C   UNL     1      28.493  42.993  52.421  1.00  0.00     0.077 A 
HETATM   12  C   UNL     1      29.685  42.477  52.947  1.00  0.00     0.037 A 
HETATM   13  C   UNL     1      30.197  42.969  54.146  1.00  0.00     0.003 A 
HETATM   14  C   UNL     1      29.532  43.989  54.814  1.00  0.00     0.001 A 
HETATM   15  C   UNL     1      28.351  44.520  54.288  1.00  0.00     0.012 A 
BRANCH  11  16
HETATM   16  O   UNL     1      27.982  42.575  51.214  1.00  0.00    -0.351 OA
BRANCH  16  17
HETATM   17  C   UNL     1      28.143  41.181  50.936  1.00  0.00     0.171 C 
HETATM   18  C   UNL     1      26.766  40.577  50.726  1.00  0.00     0.034 C 
ENDBRANCH  16  17
ENDBRANCH  11  16
ENDBRANCH   7  10
ENDBRANCH   1   7
BRANCH   3  19
HETATM   19  C   UNL     1      24.082  44.521  49.034  1.00  0.00     0.059 A 
HETATM   20  C   UNL     1      23.784  43.652  47.973  1.00  0.00    -0.032 A 
HETATM   21  C   UNL     1      24.301  42.246  47.852  1.00  0.00     0.050 C 
HETATM   22  C   UNL     1      22.922  44.110  46.961  1.00  0.00     0.028 A 
HETATM   23  C   UNL     1      22.349  45.368  47.065  1.00  0.00     0.117 A 
HETATM   24  N   UNL     1      22.567  46.201  48.098  1.00  0.00    -0.271 NA
HETATM   25  C   UNL     1      23.423  45.756  49.050  1.00  0.00     0.146 A 
ENDBRANCH   3  19
TORSDOF 6
ENDMDL
MODEL 9
REMARK VINA RESULT:      -6.5      5.876     10.078
REMARK  6 active torsions:
REMARK  status: ('A' for Active; 'I' for Inactive)
REMARK    1  A    between atoms: C_2  and  C_3 
REMARK    2  A    between atoms: C_3  and  N_4 
REMARK    3  A    between atoms: C_3  and  C_15 
REMARK       I    between atoms: N_4  and  C_5 
REMARK       I    between atoms: C_5  and  N_6 
REMARK    4  A    between atoms: N_6  and  C_7 
REMARK    5  A    between atoms: C_16  and  O_17 
REMARK    6  A    between atoms: O_17  and  C_18 
ROOT
HETATM    1  N   UNL     1      21.462  48.897  48.470  1.00  0.00    -0.334 N 
HETATM    2  C   UNL     1      22.376  47.890  48.370  1.00  0.00     0.321 C 
HETATM    3  N   UNL     1      23.122  47.685  49.498  1.00  0.00    -0.307 N 
HETATM    4  O   UNL     1      22.429  47.235  47.335  1.00  0.00    -0.247 OA
HETATM    5  H   UNL     1      20.895  48.991  47.639  1.00  0.00     0.165 HD
HETATM    6  H   UNL     1      22.559  47.792  50.334  1.00  0.00     0.170 HD
ENDROOT
BRANCH   1   7
HETATM    7  C   UNL     1      21.494  50.041  49.382  1.00  0.00     0.122 C 
BRANCH   7   8
HETATM    8  C   UNL     1      22.836  50.797  49.221  1.00  0.00     0.026 C 
HETATM    9  C   UNL     1      23.388  50.856  47.798  1.00  0.00     0.007 C 
ENDBRANCH   7   8
BRANCH   7  10
HETATM   10  C   UNL     1      20.199  50.842  49.284  1.00  0.00    -0.002 A 
HETATM   11  C   UNL     1      19.098  50.490  50.099  1.00  0.00     0.077 A 
HETATM   12  C   UNL     1      17.914  51.238  50.059  1.00  0.00     0.037 A 
HETATM   13  C   UNL     1      17.800  52.329  49.201  1.00  0.00     0.003 A 
HETATM   14  C   UNL     1      18.872  52.690  48.395  1.00  0.00     0.001 A 
HETATM   15  C   UNL     1      20.062  51.958  48.441  1.00  0.00     0.012 A 
BRANCH  11  16
HETATM   16  O   UNL     1      19.273  49.439  50.971  1.00  0.00    -0.351 OA
BRANCH  16  17
HETATM   17  C   UNL     1      18.276  48.415  50.895  1.00  0.00     0.171 C 
HETATM   18  C   UNL     1      18.330  47.803  49.507  1.00  0.00     0.034 C 
ENDBRANCH  16  17
ENDBRANCH  11  16
ENDBRANCH   7  10
ENDBRANCH   1   7
BRANCH   3  19
HETATM   19  C   UNL     1      24.261  46.859  49.622  1.00  0.00     0.059 A 
HETATM   20  C   UNL     1      24.252  45.461  49.748  1.00  0.00    -0.032 A 
HETATM   21  C   UNL     1      23.014  44.611  49.733  1.00  0.00     0.050 C 
HETATM   22  C   UNL     1      25.486  44.799  49.873  1.00  0.00     0.028 A 
HETATM   23  C   UNL     1      26.665  45.526  49.809  1.00  0.00     0.117 A 
HETATM   24  N   UNL     1      26.708  46.858  49.629  1.00  0.00    -0.271 NA
HETATM   25  C   UNL     1      25.510  47.484  49.539  1.00  0.00     0.146 A 
ENDBRANCH   3  19
TORSDOF 6
ENDMDL
MODEL 10
REMARK VINA RESULT:      -6.5      3.473      5.393
REMARK  6 active torsions:
REMARK  status: ('A' for Active; 'I' for Inactive)
REMARK    1  A    between atoms: C_2  and  C_3 
REMARK    2  A    between atoms: C_3  and  N_4 
REMARK    3  A    between atoms: C_3  and  C_15 
REMARK       I    between atoms: N_4  and  C_5 
REMARK       I    between atoms: C_5  and  N_6 
REMARK    4  A    between atoms: N_6  and  C_7 
REMARK    5  A    between atoms: C_16  and  O_17 
REMARK    6  A    between atoms: O_17  and  C_18 
ROOT
HETATM    1  N   UNL     1      27.083  42.208  51.723  1.00  0.00    -0.334 N 
HETATM    2  C   UNL     1      27.078  41.065  50.979  1.00  0.00     0.321 C 
HETATM    3  N   UNL     1      28.272  40.769  50.382  1.00  0.00    -0.307 N 
HETATM    4  O   UNL     1      26.057  40.387  50.940  1.00  0.00    -0.247 OA
HETATM    5  H   UNL     1      26.202  42.373  52.190  1.00  0.00     0.165 HD
HETATM    6  H   UNL     1      29.051  40.984  50.993  1.00  0.00     0.170 HD
ENDROOT
BRANCH   1   7
HETATM    7  C   UNL     1      27.985  43.353  51.588  1.00  0.00     0.122 C 
BRANCH   7   8
HETATM    8  C   UNL     1      27.222  44.545  50.961  1.00  0.00     0.026 C 
HETATM    9  C   UNL     1      26.534  44.254  49.628  1.00  0.00     0.007 C 
ENDBRANCH   7   8
BRANCH   7  10
HETATM   10  C   UNL     1      28.750  43.589  52.887  1.00  0.00    -0.002 A 
HETATM   11  C   UNL     1      28.172  44.389  53.901  1.00  0.00     0.077 A 
HETATM   12  C   UNL     1      28.835  44.583  55.119  1.00  0.00     0.037 A 
HETATM   13  C   UNL     1      30.082  44.005  55.342  1.00  0.00     0.003 A 
HETATM   14  C   UNL     1      30.663  43.215  54.359  1.00  0.00     0.001 A 
HETATM   15  C   UNL     1      30.001  43.003  53.146  1.00  0.00     0.012 A 
BRANCH  11  16
HETATM   16  O   UNL     1      26.915  44.896  53.660  1.00  0.00    -0.351 OA
BRANCH  16  17
HETATM   17  C   UNL     1      26.553  46.026  54.459  1.00  0.00     0.171 C 
HETATM   18  C   UNL     1      26.319  47.206  53.533  1.00  0.00     0.034 C 
ENDBRANCH  16  17
ENDBRANCH  11  16
ENDBRANCH   7  10
ENDBRANCH   1   7
BRANCH   3  19
HETATM   19  C   UNL     1      28.507  39.774  49.408  1.00  0.00     0.059 A 
HETATM   20  C   UNL     1      29.223  38.583  49.606  1.00  0.00    -0.032 A 
HETATM   21  C   UNL     1      29.827  38.159  50.914  1.00  0.00     0.050 C 
HETATM   22  C   UNL     1      29.370  37.708  48.515  1.00  0.00     0.028 A 
HETATM   23  C   UNL     1      28.762  38.010  47.306  1.00  0.00     0.117 A 
HETATM   24  N   UNL     1      28.019  39.112  47.102  1.00  0.00    -0.271 NA
HETATM   25  C   UNL     1      27.912  39.959  48.154  1.00  0.00     0.146 A 
ENDBRANCH   3  19
TORSDOF 6
ENDMDL
