MODEL 1
REMARK VINA RESULT:      -8.3      0.000      0.000
REMARK  8 active torsions:
REMARK  status: ('A' for Active; 'I' for Inactive)
REMARK    1  A    between atoms: C_2  and  C_3 
REMARK    2  A    between atoms: C_3  and  C_4 
REMARK    3  A    between atoms: C_8  and  C_9 
REMARK       I    between atoms: C_9  and  N_10 
REMARK    4  A    between atoms: N_10  and  C_11 
REMARK    5  A    between atoms: N_10  and  C_17 
REMARK    6  A    between atoms: C_17  and  C_18 
REMARK    7  A    between atoms: C_18  and  O_19 
REMARK    8  A    between atoms: C_18  and  C_20 
ROOT
HETATM    1  C   UNL     1      25.936  45.851  53.548  1.00  0.00     0.272 C 
HETATM    2  N   UNL     1      26.858  44.802  53.736  1.00  0.00    -0.339 N 
HETATM    3  O   UNL     1      25.702  46.636  54.469  1.00  0.00    -0.266 OA
ENDROOT
BRANCH   2   4
HETATM    4  C   UNL     1      27.108  43.722  52.743  1.00  0.00     0.087 C 
HETATM    5  C   UNL     1      28.389  43.966  51.929  1.00  0.00     0.025 C 
HETATM    6  C   UNL     1      29.633  43.276  52.474  1.00  0.00     0.002 C 
HETATM    7  C   UNL     1      29.388  41.793  52.700  1.00  0.00     0.000 C 
HETATM    8  C   UNL     1      28.264  41.581  53.700  1.00  0.00     0.002 C 
HETATM    9  C   UNL     1      26.970  42.279  53.279  1.00  0.00     0.025 C 
ENDBRANCH   2   4
BRANCH   2  10
HETATM   10  C   UNL     1      27.495  44.748  55.068  1.00  0.00     0.163 C 
BRANCH  10  11
HETATM   11  C   UNL     1      28.698  45.710  55.261  1.00  0.00     0.169 C 
BRANCH  11  12
HETATM   12  O   UNL     1      28.353  46.959  55.859  1.00  0.00    -0.389 OA
HETATM   13  H   UNL     1      28.448  46.871  56.828  1.00  0.00     0.210 HD
ENDBRANCH  11  12
BRANCH  11  14
HETATM   14  C   UNL     1      29.764  45.081  56.139  1.00  0.00    -0.028 A 
HETATM   15  C   UNL     1      30.478  43.955  55.703  1.00  0.00     0.010 A 
HETATM   16  C   UNL     1      31.453  43.374  56.518  1.00  0.00     0.001 A 
HETATM   17  C   UNL     1      31.726  43.909  57.777  1.00  0.00     0.000 A 
HETATM   18  C   UNL     1      31.032  45.032  58.219  1.00  0.00     0.001 A 
HETATM   19  C   UNL     1      30.063  45.618  57.403  1.00  0.00     0.010 A 
ENDBRANCH  11  14
ENDBRANCH  10  11
ENDBRANCH   2  10
BRANCH   1  20
HETATM   20  C   UNL     1      25.254  45.992  52.290  1.00  0.00     0.119 A 
HETATM   21  N   UNL     1      24.644  44.994  51.583  1.00  0.00    -0.273 N 
HETATM   22  N   UNL     1      24.089  45.402  50.428  1.00  0.00    -0.179 NA
HETATM   23  H   UNL     1      24.569  44.014  51.827  1.00  0.00     0.189 HD
HETATM   24  C   UNL     1      24.448  46.689  50.336  1.00  0.00     0.057 A 
HETATM   25  C   UNL     1      25.188  47.099  51.467  1.00  0.00     0.065 A 
BRANCH  24  26
HETATM   26  C   UNL     1      24.082  47.507  49.144  1.00  0.00     0.061 C 
BRANCH  26  27
HETATM   27  C   UNL     1      24.941  48.767  49.024  1.00  0.00     0.002 C 
HETATM   28  C   UNL     1      24.287  49.807  48.129  1.00  0.00     0.005 C 
ENDBRANCH  26  27
ENDBRANCH  24  26
ENDBRANCH   1  20
TORSDOF 8
ENDMDL
MODEL 2
REMARK VINA RESULT:      -8.2      1.571      2.413
REMARK  8 active torsions:
REMARK  status: ('A' for Active; 'I' for Inactive)
REMARK    1  A    between atoms: C_2  and  C_3 
REMARK    2  A    between atoms: C_3  and  C_4 
REMARK    3  A    between atoms: C_8  and  C_9 
REMARK       I    between atoms: C_9  and  N_10 
REMARK    4  A    between atoms: N_10  and  C_11 
REMARK    5  A    between atoms: N_10  and  C_17 
REMARK    6  A    between atoms: C_17  and  C_18 
REMARK    7  A    between atoms: C_18  and  O_19 
REMARK    8  A    between atoms: C_18  and  C_20 
ROOT
HETATM    1  C   UNL     1      25.865  45.690  53.306  1.00  0.00     0.272 C 
HETATM    2  N   UNL     1      26.836  44.725  53.644  1.00  0.00    -0.339 N 
HETATM    3  O   UNL     1      25.563  46.567  54.117  1.00  0.00    -0.266 OA
ENDROOT
BRANCH   2   4
HETATM    4  C   UNL     1      27.171  43.547  52.799  1.00  0.00     0.087 C 
HETATM    5  C   UNL     1      28.399  43.801  51.908  1.00  0.00     0.025 C 
HETATM    6  C   UNL     1      29.722  43.322  52.492  1.00  0.00     0.002 C 
HETATM    7  C   UNL     1      29.639  41.869  52.929  1.00  0.00     0.000 C 
HETATM    8  C   UNL     1      28.570  41.688  53.993  1.00  0.00     0.002 C 
HETATM    9  C   UNL     1      27.199  42.187  53.533  1.00  0.00     0.025 C 
ENDBRANCH   2   4
BRANCH   2  10
HETATM   10  C   UNL     1      27.435  44.872  54.987  1.00  0.00     0.163 C 
BRANCH  10  11
HETATM   11  C   UNL     1      28.691  45.782  55.051  1.00  0.00     0.169 C 
BRANCH  11  12
HETATM   12  O   UNL     1      28.404  47.145  55.360  1.00  0.00    -0.389 OA
HETATM   13  H   UNL     1      28.820  47.708  54.677  1.00  0.00     0.210 HD
ENDBRANCH  11  12
BRANCH  11  14
HETATM   14  C   UNL     1      29.669  45.289  56.100  1.00  0.00    -0.028 A 
HETATM   15  C   UNL     1      29.710  45.876  57.372  1.00  0.00     0.010 A 
HETATM   16  C   UNL     1      30.619  45.424  58.334  1.00  0.00     0.001 A 
HETATM   17  C   UNL     1      31.496  44.382  58.036  1.00  0.00     0.000 A 
HETATM   18  C   UNL     1      31.460  43.783  56.780  1.00  0.00     0.001 A 
HETATM   19  C   UNL     1      30.548  44.228  55.821  1.00  0.00     0.010 A 
ENDBRANCH  11  14
ENDBRANCH  10  11
ENDBRANCH   2  10
BRANCH   1  20
HETATM   20  C   UNL     1      25.214  45.636  52.026  1.00  0.00     0.119 A 
HETATM   21  N   UNL     1      25.143  46.646  51.109  1.00  0.00    -0.273 N 
HETATM   22  N   UNL     1      24.461  46.328  49.995  1.00  0.00    -0.179 NA
HETATM   23  H   UNL     1      25.535  47.578  51.177  1.00  0.00     0.189 HD
HETATM   24  C   UNL     1      23.983  45.104  50.249  1.00  0.00     0.057 A 
HETATM   25  C   UNL     1      24.413  44.635  51.510  1.00  0.00     0.065 A 
BRANCH  24  26
HETATM   26  C   UNL     1      23.100  44.404  49.271  1.00  0.00     0.061 C 
BRANCH  26  27
HETATM   27  C   UNL     1      22.794  42.967  49.698  1.00  0.00     0.002 C 
HETATM   28  C   UNL     1      23.344  41.959  48.702  1.00  0.00     0.005 C 
ENDBRANCH  26  27
ENDBRANCH  24  26
ENDBRANCH   1  20
TORSDOF 8
ENDMDL
MODEL 3
REMARK VINA RESULT:      -7.8      2.960      5.271
REMARK  8 active torsions:
REMARK  status: ('A' for Active; 'I' for Inactive)
REMARK    1  A    between atoms: C_2  and  C_3 
REMARK    2  A    between atoms: C_3  and  C_4 
REMARK    3  A    between atoms: C_8  and  C_9 
REMARK       I    between atoms: C_9  and  N_10 
REMARK    4  A    between atoms: N_10  and  C_11 
REMARK    5  A    between atoms: N_10  and  C_17 
REMARK    6  A    between atoms: C_17  and  C_18 
REMARK    7  A    between atoms: C_18  and  O_19 
REMARK    8  A    between atoms: C_18  and  C_20 
ROOT
HETATM    1  C   UNL     1      27.836  41.902  52.913  1.00  0.00     0.272 C 
HETATM    2  N   UNL     1      27.123  43.056  53.296  1.00  0.00    -0.339 N 
HETATM    3  O   UNL     1      28.778  41.506  53.601  1.00  0.00    -0.266 OA
ENDROOT
BRANCH   2   4
HETATM    4  C   UNL     1      26.066  43.698  52.468  1.00  0.00     0.087 C 
HETATM    5  C   UNL     1      25.089  44.530  53.315  1.00  0.00     0.025 C 
HETATM    6  C   UNL     1      25.429  46.012  53.410  1.00  0.00     0.002 C 
HETATM    7  C   UNL     1      25.633  46.622  52.032  1.00  0.00     0.000 C 
HETATM    8  C   UNL     1      26.773  45.931  51.303  1.00  0.00     0.002 C 
HETATM    9  C   UNL     1      26.564  44.419  51.194  1.00  0.00     0.025 C 
ENDBRANCH   2   4
BRANCH   2  10
HETATM   10  C   UNL     1      27.581  43.699  54.546  1.00  0.00     0.163 C 
BRANCH  10  11
HETATM   11  C   UNL     1      28.812  44.631  54.393  1.00  0.00     0.169 C 
BRANCH  11  12
HETATM   12  O   UNL     1      28.482  46.014  54.280  1.00  0.00    -0.389 OA
HETATM   13  H   UNL     1      27.564  46.137  54.594  1.00  0.00     0.210 HD
ENDBRANCH  11  12
BRANCH  11  14
HETATM   14  C   UNL     1      29.748  44.497  55.580  1.00  0.00    -0.028 A 
HETATM   15  C   UNL     1      30.665  43.439  55.653  1.00  0.00     0.010 A 
HETATM   16  C   UNL     1      31.520  43.315  56.752  1.00  0.00     0.001 A 
HETATM   17  C   UNL     1      31.469  44.245  57.789  1.00  0.00     0.000 A 
HETATM   18  C   UNL     1      30.570  45.306  57.726  1.00  0.00     0.001 A 
HETATM   19  C   UNL     1      29.721  45.436  56.626  1.00  0.00     0.010 A 
ENDBRANCH  11  14
ENDBRANCH  10  11
ENDBRANCH   2  10
BRANCH   1  20
HETATM   20  C   UNL     1      27.478  41.203  51.709  1.00  0.00     0.119 A 
HETATM   21  N   UNL     1      26.425  40.347  51.552  1.00  0.00    -0.273 N 
HETATM   22  N   UNL     1      26.327  39.821  50.319  1.00  0.00    -0.179 NA
HETATM   23  H   UNL     1      25.735  40.074  52.242  1.00  0.00     0.189 HD
HETATM   24  C   UNL     1      27.419  40.271  49.689  1.00  0.00     0.057 A 
HETATM   25  C   UNL     1      28.177  41.125  50.520  1.00  0.00     0.065 A 
BRANCH  24  26
HETATM   26  C   UNL     1      27.727  39.856  48.290  1.00  0.00     0.061 C 
BRANCH  26  27
HETATM   27  C   UNL     1      28.161  38.391  48.207  1.00  0.00     0.002 C 
HETATM   28  C   UNL     1      29.503  38.167  48.886  1.00  0.00     0.005 C 
ENDBRANCH  26  27
ENDBRANCH  24  26
ENDBRANCH   1  20
TORSDOF 8
ENDMDL
MODEL 4
REMARK VINA RESULT:      -7.7     15.082     16.722
REMARK  8 active torsions:
REMARK  status: ('A' for Active; 'I' for Inactive)
REMARK    1  A    between atoms: C_2  and  C_3 
REMARK    2  A    between atoms: C_3  and  C_4 
REMARK    3  A    between atoms: C_8  and  C_9 
REMARK       I    between atoms: C_9  and  N_10 
REMARK    4  A    between atoms: N_10  and  C_11 
REMARK    5  A    between atoms: N_10  and  C_17 
REMARK    6  A    between atoms: C_17  and  C_18 
REMARK    7  A    between atoms: C_18  and  O_19 
REMARK    8  A    between atoms: C_18  and  C_20 
ROOT
HETATM    1  C   UNL     1      37.070  46.280  64.597  1.00  0.00     0.272 C 
HETATM    2  N   UNL     1      38.098  45.334  64.405  1.00  0.00    -0.339 N 
HETATM    3  O   UNL     1      35.950  46.072  64.128  1.00  0.00    -0.266 OA
ENDROOT
BRANCH   2   4
HETATM    4  C   UNL     1      39.516  45.549  64.804  1.00  0.00     0.087 C 
HETATM    5  C   UNL     1      39.806  45.024  66.220  1.00  0.00     0.025 C 
HETATM    6  C   UNL     1      40.369  43.608  66.272  1.00  0.00     0.002 C 
HETATM    7  C   UNL     1      41.576  43.459  65.361  1.00  0.00     0.000 C 
HETATM    8  C   UNL     1      41.201  43.756  63.919  1.00  0.00     0.002 C 
HETATM    9  C   UNL     1      40.573  45.141  63.753  1.00  0.00     0.025 C 
ENDBRANCH   2   4
BRANCH   2  10
HETATM   10  C   UNL     1      37.715  44.127  63.643  1.00  0.00     0.163 C 
BRANCH  10  11
HETATM   11  C   UNL     1      37.291  42.910  64.508  1.00  0.00     0.169 C 
BRANCH  11  12
HETATM   12  O   UNL     1      35.905  42.583  64.410  1.00  0.00    -0.389 OA
HETATM   13  H   UNL     1      35.567  42.410  65.311  1.00  0.00     0.210 HD
ENDBRANCH  11  12
BRANCH  11  14
HETATM   14  C   UNL     1      38.066  41.666  64.117  1.00  0.00    -0.028 A 
HETATM   15  C   UNL     1      38.636  41.550  62.842  1.00  0.00     0.010 A 
HETATM   16  C   UNL     1      39.343  40.398  62.483  1.00  0.00     0.001 A 
HETATM   17  C   UNL     1      39.488  39.351  63.392  1.00  0.00     0.000 A 
HETATM   18  C   UNL     1      38.935  39.457  64.665  1.00  0.00     0.001 A 
HETATM   19  C   UNL     1      38.235  40.609  65.029  1.00  0.00     0.010 A 
ENDBRANCH  11  14
ENDBRANCH  10  11
ENDBRANCH   2  10
BRANCH   1  20
HETATM   20  C   UNL     1      37.337  47.494  65.319  1.00  0.00     0.119 A 
HETATM   21  N   UNL     1      37.155  47.697  66.658  1.00  0.00    -0.273 N 
HETATM   22  N   UNL     1      37.475  48.936  67.072  1.00  0.00    -0.179 NA
HETATM   23  H   UNL     1      36.815  47.038  67.348  1.00  0.00     0.189 HD
HETATM   24  C   UNL     1      37.772  49.586  65.940  1.00  0.00     0.057 A 
HETATM   25  C   UNL     1      37.686  48.733  64.818  1.00  0.00     0.065 A 
BRANCH  24  26
HETATM   26  C   UNL     1      38.122  51.036  65.955  1.00  0.00     0.061 C 
BRANCH  26  27
HETATM   27  C   UNL     1      37.508  51.764  67.153  1.00  0.00     0.002 C 
HETATM   28  C   UNL     1      37.713  53.267  67.059  1.00  0.00     0.005 C 
ENDBRANCH  26  27
ENDBRANCH  24  26
ENDBRANCH   1  20
TORSDOF 8
ENDMDL
MODEL 5
REMARK VINA RESULT:      -7.7      3.758      5.938
REMARK  8 active torsions:
REMARK  status: ('A' for Active; 'I' for Inactive)
REMARK    1  A    between atoms: C_2  and  C_3 
REMARK    2  A    between atoms: C_3  and  C_4 
REMARK    3  A    between atoms: C_8  and  C_9 
REMARK       I    between atoms: C_9  and  N_10 
REMARK    4  A    between atoms: N_10  and  C_11 
REMARK    5  A    between atoms: N_10  and  C_17 
REMARK    6  A    between atoms: C_17  and  C_18 
REMARK    7  A    between atoms: C_18  and  O_19 
REMARK    8  A    between atoms: C_18  and  C_20 
ROOT
HETATM    1  C   UNL     1      28.176  41.777  51.482  1.00  0.00     0.272 C 
HETATM    2  N   UNL     1      27.634  43.079  51.481  1.00  0.00    -0.339 N 
HETATM    3  O   UNL     1      29.142  41.515  52.202  1.00  0.00    -0.266 OA
ENDROOT
BRANCH   2   4
HETATM    4  C   UNL     1      26.565  43.537  50.552  1.00  0.00     0.087 C 
HETATM    5  C   UNL     1      25.170  43.470  51.194  1.00  0.00     0.025 C 
HETATM    6  C   UNL     1      24.696  44.772  51.828  1.00  0.00     0.002 C 
HETATM    7  C   UNL     1      24.809  45.934  50.854  1.00  0.00     0.000 C 
HETATM    8  C   UNL     1      26.251  46.129  50.416  1.00  0.00     0.002 C 
HETATM    9  C   UNL     1      26.852  44.861  49.808  1.00  0.00     0.025 C 
ENDBRANCH   2   4
BRANCH   2  10
HETATM   10  C   UNL     1      28.291  44.040  52.391  1.00  0.00     0.163 C 
BRANCH  10  11
HETATM   11  C   UNL     1      27.771  44.023  53.853  1.00  0.00     0.169 C 
BRANCH  11  12
HETATM   12  O   UNL     1      27.080  42.826  54.208  1.00  0.00    -0.389 OA
HETATM   13  H   UNL     1      26.122  43.021  54.235  1.00  0.00     0.210 HD
ENDBRANCH  11  12
BRANCH  11  14
HETATM   14  C   UNL     1      28.911  44.184  54.840  1.00  0.00    -0.028 A 
HETATM   15  C   UNL     1      29.885  43.185  54.977  1.00  0.00     0.010 A 
HETATM   16  C   UNL     1      30.930  43.333  55.893  1.00  0.00     0.001 A 
HETATM   17  C   UNL     1      31.015  44.479  56.683  1.00  0.00     0.000 A 
HETATM   18  C   UNL     1      30.060  45.483  56.551  1.00  0.00     0.001 A 
HETATM   19  C   UNL     1      29.020  45.341  55.631  1.00  0.00     0.010 A 
ENDBRANCH  11  14
ENDBRANCH  10  11
ENDBRANCH   2  10
BRANCH   1  20
HETATM   20  C   UNL     1      27.617  40.765  50.629  1.00  0.00     0.119 A 
HETATM   21  N   UNL     1      26.548  39.963  50.915  1.00  0.00    -0.273 N 
HETATM   22  N   UNL     1      26.241  39.091  49.939  1.00  0.00    -0.179 NA
HETATM   23  H   UNL     1      25.984  39.954  51.757  1.00  0.00     0.189 HD
HETATM   24  C   UNL     1      27.213  39.265  49.035  1.00  0.00     0.057 A 
HETATM   25  C   UNL     1      28.105  40.288  49.427  1.00  0.00     0.065 A 
BRANCH  24  26
HETATM   26  C   UNL     1      27.278  38.424  47.804  1.00  0.00     0.061 C 
BRANCH  26  27
HETATM   27  C   UNL     1      28.603  37.667  47.695  1.00  0.00     0.002 C 
HETATM   28  C   UNL     1      28.883  37.235  46.264  1.00  0.00     0.005 C 
ENDBRANCH  26  27
ENDBRANCH  24  26
ENDBRANCH   1  20
TORSDOF 8
ENDMDL
MODEL 6
REMARK VINA RESULT:      -7.7      7.212     12.901
REMARK  8 active torsions:
REMARK  status: ('A' for Active; 'I' for Inactive)
REMARK    1  A    between atoms: C_2  and  C_3 
REMARK    2  A    between atoms: C_3  and  C_4 
REMARK    3  A    between atoms: C_8  and  C_9 
REMARK       I    between atoms: C_9  and  N_10 
REMARK    4  A    between atoms: N_10  and  C_11 
REMARK    5  A    between atoms: N_10  and  C_17 
REMARK    6  A    between atoms: C_17  and  C_18 
REMARK    7  A    between atoms: C_18  and  O_19 
REMARK    8  A    between atoms: C_18  and  C_20 
ROOT
HETATM    1  C   UNL     1      20.807  48.281  47.747  1.00  0.00     0.272 C 
HETATM    2  N   UNL     1      19.748  49.133  48.119  1.00  0.00    -0.339 N 
HETATM    3  O   UNL     1      20.603  47.357  46.956  1.00  0.00    -0.266 OA
ENDROOT
BRANCH   2   4
HETATM    4  C   UNL     1      19.851  50.184  49.167  1.00  0.00     0.087 C 
HETATM    5  C   UNL     1      20.227  51.554  48.580  1.00  0.00     0.025 C 
HETATM    6  C   UNL     1      19.045  52.465  48.274  1.00  0.00     0.002 C 
HETATM    7  C   UNL     1      18.129  52.605  49.480  1.00  0.00     0.000 C 
HETATM    8  C   UNL     1      17.577  51.252  49.895  1.00  0.00     0.002 C 
HETATM    9  C   UNL     1      18.683  50.233  50.179  1.00  0.00     0.025 C 
ENDBRANCH   2   4
BRANCH   2  10
HETATM   10  C   UNL     1      18.444  48.837  47.489  1.00  0.00     0.163 C 
BRANCH  10  11
HETATM   11  C   UNL     1      18.304  49.305  46.016  1.00  0.00     0.169 C 
BRANCH  11  12
HETATM   12  O   UNL     1      17.761  48.316  45.142  1.00  0.00    -0.389 OA
HETATM   13  H   UNL     1      18.043  47.436  45.463  1.00  0.00     0.210 HD
ENDBRANCH  11  12
BRANCH  11  14
HETATM   14  C   UNL     1      17.406  50.524  45.914  1.00  0.00    -0.028 A 
HETATM   15  C   UNL     1      16.220  50.603  46.658  1.00  0.00     0.010 A 
HETATM   16  C   UNL     1      15.391  51.724  46.555  1.00  0.00     0.001 A 
HETATM   17  C   UNL     1      15.736  52.777  45.709  1.00  0.00     0.000 A 
HETATM   18  C   UNL     1      16.915  52.716  44.971  1.00  0.00     0.001 A 
HETATM   19  C   UNL     1      17.748  51.601  45.078  1.00  0.00     0.010 A 
ENDBRANCH  11  14
ENDBRANCH  10  11
ENDBRANCH   2  10
BRANCH   1  20
HETATM   20  C   UNL     1      22.117  48.476  48.306  1.00  0.00     0.119 A 
HETATM   21  N   UNL     1      22.538  48.077  49.543  1.00  0.00    -0.273 N 
HETATM   22  N   UNL     1      23.814  48.398  49.817  1.00  0.00    -0.179 NA
HETATM   23  H   UNL     1      22.008  47.583  50.252  1.00  0.00     0.189 HD
HETATM   24  C   UNL     1      24.196  49.125  48.759  1.00  0.00     0.057 A 
HETATM   25  C   UNL     1      23.167  49.215  47.797  1.00  0.00     0.065 A 
BRANCH  24  26
HETATM   26  C   UNL     1      25.554  49.741  48.700  1.00  0.00     0.061 C 
BRANCH  26  27
HETATM   27  C   UNL     1      26.650  48.758  49.114  1.00  0.00     0.002 C 
HETATM   28  C   UNL     1      28.010  49.434  49.184  1.00  0.00     0.005 C 
ENDBRANCH  26  27
ENDBRANCH  24  26
ENDBRANCH   1  20
TORSDOF 8
ENDMDL
MODEL 7
REMARK VINA RESULT:      -7.7      1.903      2.638
REMARK  8 active torsions:
REMARK  status: ('A' for Active; 'I' for Inactive)
REMARK    1  A    between atoms: C_2  and  C_3 
REMARK    2  A    between atoms: C_3  and  C_4 
REMARK    3  A    between atoms: C_8  and  C_9 
REMARK       I    between atoms: C_9  and  N_10 
REMARK    4  A    between atoms: N_10  and  C_11 
REMARK    5  A    between atoms: N_10  and  C_17 
REMARK    6  A    between atoms: C_17  and  C_18 
REMARK    7  A    between atoms: C_18  and  O_19 
REMARK    8  A    between atoms: C_18  and  C_20 
ROOT
HETATM    1  C   UNL     1      25.877  46.932  52.128  1.00  0.00     0.272 C 
HETATM    2  N   UNL     1      26.406  45.625  52.143  1.00  0.00    -0.339 N 
HETATM    3  O   UNL     1      25.701  47.535  53.189  1.00  0.00    -0.266 OA
ENDROOT
BRANCH   2   4
HETATM    4  C   UNL     1      26.527  44.760  50.938  1.00  0.00     0.087 C 
HETATM    5  C   UNL     1      27.678  43.748  51.062  1.00  0.00     0.025 C 
HETATM    6  C   UNL     1      27.268  42.375  51.580  1.00  0.00     0.002 C 
HETATM    7  C   UNL     1      26.107  41.807  50.780  1.00  0.00     0.000 C 
HETATM    8  C   UNL     1      24.894  42.718  50.871  1.00  0.00     0.002 C 
HETATM    9  C   UNL     1      25.204  44.147  50.422  1.00  0.00     0.025 C 
ENDBRANCH   2   4
BRANCH   2  10
HETATM   10  C   UNL     1      26.727  45.085  53.481  1.00  0.00     0.163 C 
BRANCH  10  11
HETATM   11  C   UNL     1      27.779  45.897  54.282  1.00  0.00     0.169 C 
BRANCH  11  12
HETATM   12  O   UNL     1      27.235  46.623  55.384  1.00  0.00    -0.389 OA
HETATM   13  H   UNL     1      27.890  46.612  56.111  1.00  0.00     0.210 HD
ENDBRANCH  11  12
BRANCH  11  14
HETATM   14  C   UNL     1      28.858  44.989  54.842  1.00  0.00    -0.028 A 
HETATM   15  C   UNL     1      29.709  45.435  55.864  1.00  0.00     0.010 A 
HETATM   16  C   UNL     1      30.707  44.598  56.371  1.00  0.00     0.001 A 
HETATM   17  C   UNL     1      30.866  43.309  55.866  1.00  0.00     0.000 A 
HETATM   18  C   UNL     1      30.022  42.850  54.858  1.00  0.00     0.001 A 
HETATM   19  C   UNL     1      29.021  43.681  54.355  1.00  0.00     0.010 A 
ENDBRANCH  11  14
ENDBRANCH  10  11
ENDBRANCH   2  10
BRANCH   1  20
HETATM   20  C   UNL     1      25.524  47.550  50.880  1.00  0.00     0.119 A 
HETATM   21  N   UNL     1      26.366  48.228  50.044  1.00  0.00    -0.273 N 
HETATM   22  N   UNL     1      25.768  48.717  48.943  1.00  0.00    -0.179 NA
HETATM   23  H   UNL     1      27.358  48.398  50.163  1.00  0.00     0.189 HD
HETATM   24  C   UNL     1      24.473  48.435  49.129  1.00  0.00     0.057 A 
HETATM   25  C   UNL     1      24.268  47.722  50.331  1.00  0.00     0.065 A 
BRANCH  24  26
HETATM   26  C   UNL     1      23.441  48.876  48.146  1.00  0.00     0.061 C 
BRANCH  26  27
HETATM   27  C   UNL     1      22.382  49.775  48.787  1.00  0.00     0.002 C 
HETATM   28  C   UNL     1      22.794  51.238  48.748  1.00  0.00     0.005 C 
ENDBRANCH  26  27
ENDBRANCH  24  26
ENDBRANCH   1  20
TORSDOF 8
ENDMDL
MODEL 8
REMARK VINA RESULT:      -7.6      2.566      3.913
REMARK  8 active torsions:
REMARK  status: ('A' for Active; 'I' for Inactive)
REMARK    1  A    between atoms: C_2  and  C_3 
REMARK    2  A    between atoms: C_3  and  C_4 
REMARK    3  A    between atoms: C_8  and  C_9 
REMARK       I    between atoms: C_9  and  N_10 
REMARK    4  A    between atoms: N_10  and  C_11 
REMARK    5  A    between atoms: N_10  and  C_17 
REMARK    6  A    between atoms: C_17  and  C_18 
REMARK    7  A    between atoms: C_18  and  O_19 
REMARK    8  A    between atoms: C_18  and  C_20 
ROOT
HETATM    1  C   UNL     1      25.299  46.954  51.494  1.00  0.00     0.272 C 
HETATM    2  N   UNL     1      25.452  45.564  51.313  1.00  0.00    -0.339 N 
HETATM    3  O   UNL     1      25.263  47.424  52.632  1.00  0.00    -0.266 OA
ENDROOT
BRANCH   2   4
HETATM    4  C   UNL     1      25.367  44.879  49.995  1.00  0.00     0.087 C 
HETATM    5  C   UNL     1      26.662  44.125  49.648  1.00  0.00     0.025 C 
HETATM    6  C   UNL     1      26.661  42.649  50.024  1.00  0.00     0.002 C 
HETATM    7  C   UNL     1      25.434  41.938  49.474  1.00  0.00     0.000 C 
HETATM    8  C   UNL     1      24.162  42.559  50.026  1.00  0.00     0.002 C 
HETATM    9  C   UNL     1      24.079  44.061  49.750  1.00  0.00     0.025 C 
ENDBRANCH   2   4
BRANCH   2  10
HETATM   10  C   UNL     1      25.575  44.773  52.556  1.00  0.00     0.163 C 
BRANCH  10  11
HETATM   11  C   UNL     1      26.906  44.968  53.330  1.00  0.00     0.169 C 
BRANCH  11  12
HETATM   12  O   UNL     1      26.733  45.290  54.709  1.00  0.00    -0.389 OA
HETATM   13  H   UNL     1      26.000  44.746  55.061  1.00  0.00     0.210 HD
ENDBRANCH  11  12
BRANCH  11  14
HETATM   14  C   UNL     1      27.759  43.714  53.275  1.00  0.00    -0.028 A 
HETATM   15  C   UNL     1      29.102  43.779  52.878  1.00  0.00     0.010 A 
HETATM   16  C   UNL     1      29.882  42.621  52.820  1.00  0.00     0.001 A 
HETATM   17  C   UNL     1      29.331  41.386  53.158  1.00  0.00     0.000 A 
HETATM   18  C   UNL     1      28.001  41.307  53.564  1.00  0.00     0.001 A 
HETATM   19  C   UNL     1      27.222  42.464  53.629  1.00  0.00     0.010 A 
ENDBRANCH  11  14
ENDBRANCH  10  11
ENDBRANCH   2  10
BRANCH   1  20
HETATM   20  C   UNL     1      25.163  47.816  50.352  1.00  0.00     0.119 A 
HETATM   21  N   UNL     1      26.180  48.407  49.658  1.00  0.00    -0.273 N 
HETATM   22  N   UNL     1      25.769  49.177  48.634  1.00  0.00    -0.179 NA
HETATM   23  H   UNL     1      27.176  48.333  49.827  1.00  0.00     0.189 HD
HETATM   24  C   UNL     1      24.435  49.166  48.740  1.00  0.00     0.057 A 
HETATM   25  C   UNL     1      24.009  48.343  49.805  1.00  0.00     0.065 A 
BRANCH  24  26
HETATM   26  C   UNL     1      23.583  49.968  47.814  1.00  0.00     0.061 C 
BRANCH  26  27
HETATM   27  C   UNL     1      22.939  51.164  48.516  1.00  0.00     0.002 C 
HETATM   28  C   UNL     1      21.422  51.061  48.518  1.00  0.00     0.005 C 
ENDBRANCH  26  27
ENDBRANCH  24  26
ENDBRANCH   1  20
TORSDOF 8
ENDMDL
MODEL 9
REMARK VINA RESULT:      -7.4     13.219     16.052
REMARK  8 active torsions:
REMARK  status: ('A' for Active; 'I' for Inactive)
REMARK    1  A    between atoms: C_2  and  C_3 
REMARK    2  A    between atoms: C_3  and  C_4 
REMARK    3  A    between atoms: C_8  and  C_9 
REMARK       I    between atoms: C_9  and  N_10 
REMARK    4  A    between atoms: N_10  and  C_11 
REMARK    5  A    between atoms: N_10  and  C_17 
REMARK    6  A    between atoms: C_17  and  C_18 
REMARK    7  A    between atoms: C_18  and  O_19 
REMARK    8  A    between atoms: C_18  and  C_20 
ROOT
HETATM    1  C   UNL     1      31.915  50.503  42.486  1.00  0.00     0.272 C 
HETATM    2  N   UNL     1      30.944  50.965  41.574  1.00  0.00    -0.339 N 
HETATM    3  O   UNL     1      31.572  49.830  43.460  1.00  0.00    -0.266 OA
ENDROOT
BRANCH   2   4
HETATM    4  C   UNL     1      31.231  51.897  40.449  1.00  0.00     0.087 C 
HETATM    5  C   UNL     1      31.498  51.151  39.132  1.00  0.00     0.025 C 
HETATM    6  C   UNL     1      30.280  50.991  38.231  1.00  0.00     0.002 C 
HETATM    7  C   UNL     1      29.592  52.325  37.989  1.00  0.00     0.000 C 
HETATM    8  C   UNL     1      29.122  52.932  39.301  1.00  0.00     0.002 C 
HETATM    9  C   UNL     1      30.261  53.092  40.310  1.00  0.00     0.025 C 
ENDBRANCH   2   4
BRANCH   2  10
HETATM   10  C   UNL     1      29.552  50.571  41.876  1.00  0.00     0.163 C 
BRANCH  10  11
HETATM   11  C   UNL     1      29.189  49.108  41.506  1.00  0.00     0.169 C 
BRANCH  11  12
HETATM   12  O   UNL     1      28.539  48.389  42.554  1.00  0.00    -0.389 OA
HETATM   13  H   UNL     1      28.708  48.856  43.396  1.00  0.00     0.210 HD
ENDBRANCH  11  12
BRANCH  11  14
HETATM   14  C   UNL     1      28.266  49.062  40.302  1.00  0.00    -0.028 A 
HETATM   15  C   UNL     1      27.252  50.016  40.142  1.00  0.00     0.010 A 
HETATM   16  C   UNL     1      26.399  49.966  39.035  1.00  0.00     0.001 A 
HETATM   17  C   UNL     1      26.549  48.964  38.078  1.00  0.00     0.000 A 
HETATM   18  C   UNL     1      27.558  48.015  38.219  1.00  0.00     0.001 A 
HETATM   19  C   UNL     1      28.416  48.068  39.319  1.00  0.00     0.010 A 
ENDBRANCH  11  14
ENDBRANCH  10  11
ENDBRANCH   2  10
BRANCH   1  20
HETATM   20  C   UNL     1      33.300  50.835  42.290  1.00  0.00     0.119 A 
HETATM   21  N   UNL     1      33.934  51.961  42.734  1.00  0.00    -0.273 N 
HETATM   22  N   UNL     1      35.235  52.024  42.401  1.00  0.00    -0.179 NA
HETATM   23  H   UNL     1      33.541  52.728  43.268  1.00  0.00     0.189 HD
HETATM   24  C   UNL     1      35.420  50.951  41.622  1.00  0.00     0.057 A 
HETATM   25  C   UNL     1      34.238  50.186  41.511  1.00  0.00     0.065 A 
BRANCH  24  26
HETATM   26  C   UNL     1      36.739  50.685  40.979  1.00  0.00     0.061 C 
BRANCH  26  27
HETATM   27  C   UNL     1      36.641  50.663  39.453  1.00  0.00     0.002 C 
HETATM   28  C   UNL     1      36.439  52.059  38.886  1.00  0.00     0.005 C 
ENDBRANCH  26  27
ENDBRANCH  24  26
ENDBRANCH   1  20
TORSDOF 8
ENDMDL
MODEL 10
REMARK VINA RESULT:      -7.4     13.638     16.377
REMARK  8 active torsions:
REMARK  status: ('A' for Active; 'I' for Inactive)
REMARK    1  A    between atoms: C_2  and  C_3 
REMARK    2  A    between atoms: C_3  and  C_4 
REMARK    3  A    between atoms: C_8  and  C_9 
REMARK       I    between atoms: C_9  and  N_10 
REMARK    4  A    between atoms: N_10  and  C_11 
REMARK    5  A    between atoms: N_10  and  C_17 
REMARK    6  A    between atoms: C_17  and  C_18 
REMARK    7  A    between atoms: C_18  and  O_19 
REMARK    8  A    between atoms: C_18  and  C_20 
ROOT
HETATM    1  C   UNL     1      33.454  51.261  39.732  1.00  0.00     0.272 C 
HETATM    2  N   UNL     1      32.401  50.324  39.713  1.00  0.00    -0.339 N 
HETATM    3  O   UNL     1      33.614  52.025  38.778  1.00  0.00    -0.266 OA
ENDROOT
BRANCH   2   4
HETATM    4  C   UNL     1      32.205  49.266  40.741  1.00  0.00     0.087 C 
HETATM    5  C   UNL     1      31.655  49.834  42.060  1.00  0.00     0.025 C 
HETATM    6  C   UNL     1      30.139  49.766  42.202  1.00  0.00     0.002 C 
HETATM    7  C   UNL     1      29.622  48.361  41.938  1.00  0.00     0.000 C 
HETATM    8  C   UNL     1      29.978  47.913  40.530  1.00  0.00     0.002 C 
HETATM    9  C   UNL     1      31.481  47.990  40.256  1.00  0.00     0.025 C 
ENDBRANCH   2   4
BRANCH   2  10
HETATM   10  C   UNL     1      31.543  50.359  38.510  1.00  0.00     0.163 C 
BRANCH  10  11
HETATM   11  C   UNL     1      30.761  51.683  38.298  1.00  0.00     0.169 C 
BRANCH  11  12
HETATM   12  O   UNL     1      30.230  51.839  36.982  1.00  0.00    -0.389 OA
HETATM   13  H   UNL     1      29.448  51.258  36.897  1.00  0.00     0.210 HD
ENDBRANCH  11  12
BRANCH  11  14
HETATM   14  C   UNL     1      29.592  51.786  39.260  1.00  0.00    -0.028 A 
HETATM   15  C   UNL     1      29.583  52.755  40.272  1.00  0.00     0.010 A 
HETATM   16  C   UNL     1      28.508  52.842  41.162  1.00  0.00     0.001 A 
HETATM   17  C   UNL     1      27.432  51.963  41.050  1.00  0.00     0.000 A 
HETATM   18  C   UNL     1      27.423  51.001  40.043  1.00  0.00     0.001 A 
HETATM   19  C   UNL     1      28.492  50.918  39.150  1.00  0.00     0.010 A 
ENDBRANCH  11  14
ENDBRANCH  10  11
ENDBRANCH   2  10
BRANCH   1  20
HETATM   20  C   UNL     1      34.353  51.308  40.852  1.00  0.00     0.119 A 
HETATM   21  N   UNL     1      34.192  52.046  41.991  1.00  0.00    -0.273 N 
HETATM   22  N   UNL     1      35.193  51.912  42.877  1.00  0.00    -0.179 NA
HETATM   23  H   UNL     1      33.425  52.664  42.229  1.00  0.00     0.189 HD
HETATM   24  C   UNL     1      36.085  51.142  42.241  1.00  0.00     0.057 A 
HETATM   25  C   UNL     1      35.613  50.752  40.968  1.00  0.00     0.065 A 
BRANCH  24  26
HETATM   26  C   UNL     1      37.395  50.803  42.868  1.00  0.00     0.061 C 
BRANCH  26  27
HETATM   27  C   UNL     1      38.554  50.918  41.875  1.00  0.00     0.002 C 
HETATM   28  C   UNL     1      39.631  51.864  42.380  1.00  0.00     0.005 C 
ENDBRANCH  26  27
ENDBRANCH  24  26
ENDBRANCH   1  20
TORSDOF 8
ENDMDL
