MODEL 1
REMARK VINA RESULT:     -10.0      0.000      0.000
REMARK  9 active torsions:
REMARK  status: ('A' for Active; 'I' for Inactive)
REMARK    1  A    between atoms: O_2  and  C_3 
REMARK    2  A    between atoms: C_4  and  O_5 
REMARK    3  A    between atoms: C_8  and  C_9 
REMARK    4  A    between atoms: C_9  and  N_10 
REMARK    5  A    between atoms: C_14  and  O_15 
REMARK    6  A    between atoms: C_14  and  C_16 
REMARK    7  A    between atoms: C_21  and  C_22 
REMARK       I    between atoms: C_22  and  N_23 
REMARK    8  A    between atoms: N_23  and  C_24 
REMARK    9  A    between atoms: C_24  and  C_25 
ROOT
HETATM    1  N   UNL     1      26.329  43.680  52.572  1.00  0.00    -0.067 N 
HETATM    2  H   UNL     1      26.555  42.682  52.682  1.00  0.00     0.280 HD
HETATM    3  C   UNL     1      24.892  43.752  52.105  1.00  0.00     0.238 C 
HETATM    4  C   UNL     1      24.758  43.239  50.682  1.00  0.00     0.071 C 
HETATM    5  C   UNL     1      25.645  44.036  49.707  1.00  0.00     0.088 C 
HETATM    6  C   UNL     1      27.088  43.784  50.183  1.00  0.00     0.071 C 
HETATM    7  C   UNL     1      27.319  44.280  51.601  1.00  0.00     0.238 C 
ENDROOT
BRANCH   5   8
HETATM    8  O   UNL     1      25.519  43.416  48.427  1.00  0.00    -0.385 OA
HETATM    9  H   UNL     1      24.679  43.684  48.012  1.00  0.00     0.211 HD
ENDBRANCH   5   8
BRANCH   5  10
HETATM   10  C   UNL     1      25.244  45.513  49.573  1.00  0.00    -0.023 A 
HETATM   11  C   UNL     1      23.916  45.867  49.232  1.00  0.00     0.024 A 
HETATM   12  C   UNL     1      23.516  47.217  49.247  1.00  0.00     0.001 A 
HETATM   13  C   UNL     1      24.462  48.184  49.545  1.00  0.00     0.086 A 
HETATM   14  C   UNL     1      22.304  47.920  49.028  1.00  0.00     0.057 A 
HETATM   15  O   UNL     1      23.893  49.418  49.572  1.00  0.00    -0.304 OA
HETATM   16  C   UNL     1      25.802  47.906  49.780  1.00  0.00     0.039 A 
HETATM   17  C   UNL     1      22.567  49.258  49.262  1.00  0.00     0.144 A 
HETATM   18  C   UNL     1      26.174  46.553  49.772  1.00  0.00     0.013 A 
BRANCH  17  19
HETATM   19  C   UNL     1      21.693  50.412  49.232  1.00  0.00     0.275 C 
HETATM   20  N   UNL     1      20.650  50.353  50.129  1.00  0.00    -0.353 N 
HETATM   21  H   UNL     1      20.502  49.475  50.613  1.00  0.00     0.162 HD
HETATM   22  O   UNL     1      21.841  51.347  48.450  1.00  0.00    -0.265 OA
BRANCH  20  23
HETATM   23  C   UNL     1      19.578  51.331  50.137  1.00  0.00     0.155 C 
BRANCH  23  24
HETATM   24  C   UNL     1      18.204  50.710  49.868  1.00  0.00     0.139 C 
HETATM   25  O   UNL     1      17.150  51.656  50.148  1.00  0.00    -0.384 OA
HETATM   26  C   UNL     1      16.096  51.444  49.193  1.00  0.00     0.168 C 
HETATM   27  C   UNL     1      16.506  50.278  48.314  1.00  0.00     0.029 C 
HETATM   28  C   UNL     1      18.011  50.314  48.414  1.00  0.00     0.035 C 
ENDBRANCH  23  24
ENDBRANCH  20  23
ENDBRANCH  17  19
ENDBRANCH   5  10
BRANCH   1  29
HETATM   29  C   UNL     1      26.525  44.314  53.945  1.00  0.00     0.273 C 
BRANCH  29  30
HETATM   30  C   UNL     1      27.912  44.180  54.504  1.00  0.00    -0.030 A 
HETATM   31  C   UNL     1      28.442  45.195  55.317  1.00  0.00     0.048 A 
HETATM   32  C   UNL     1      29.720  45.067  55.864  1.00  0.00     0.102 A 
HETATM   33  C   UNL     1      30.518  43.959  55.560  1.00  0.00     0.101 A 
HETATM   34  C   UNL     1      29.991  42.942  54.759  1.00  0.00     0.040 A 
HETATM   35  C   UNL     1      28.695  43.049  54.240  1.00  0.00     0.012 A 
BRANCH  32  36
HETATM   36  O   UNL     1      30.238  46.083  56.624  1.00  0.00    -0.353 OA
HETATM   37  C   UNL     1      29.626  46.143  57.911  1.00  0.00     0.210 C 
ENDBRANCH  32  36
BRANCH  33  38
HETATM   38  O   UNL     1      31.763  43.918  56.127  1.00  0.00    -0.353 OA
HETATM   39  C   UNL     1      31.868  43.171  57.335  1.00  0.00     0.210 C 
ENDBRANCH  33  38
ENDBRANCH  29  30
ENDBRANCH   1  29
TORSDOF 9
ENDMDL
MODEL 2
REMARK VINA RESULT:      -9.6      2.193     11.680
REMARK  9 active torsions:
REMARK  status: ('A' for Active; 'I' for Inactive)
REMARK    1  A    between atoms: O_2  and  C_3 
REMARK    2  A    between atoms: C_4  and  O_5 
REMARK    3  A    between atoms: C_8  and  C_9 
REMARK    4  A    between atoms: C_9  and  N_10 
REMARK    5  A    between atoms: C_14  and  O_15 
REMARK    6  A    between atoms: C_14  and  C_16 
REMARK    7  A    between atoms: C_21  and  C_22 
REMARK       I    between atoms: C_22  and  N_23 
REMARK    8  A    between atoms: N_23  and  C_24 
REMARK    9  A    between atoms: C_24  and  C_25 
ROOT
HETATM    1  N   UNL     1      20.510  50.761  49.342  1.00  0.00    -0.067 N 
HETATM    2  H   UNL     1      20.301  51.708  48.995  1.00  0.00     0.280 HD
HETATM    3  C   UNL     1      21.812  50.853  50.106  1.00  0.00     0.238 C 
HETATM    4  C   UNL     1      22.976  51.109  49.164  1.00  0.00     0.071 C 
HETATM    5  C   UNL     1      23.095  50.004  48.098  1.00  0.00     0.088 C 
HETATM    6  C   UNL     1      21.787  50.087  47.290  1.00  0.00     0.071 C 
HETATM    7  C   UNL     1      20.562  49.830  48.153  1.00  0.00     0.238 C 
ENDROOT
BRANCH   5   8
HETATM    8  O   UNL     1      24.149  50.388  47.215  1.00  0.00    -0.385 OA
HETATM    9  H   UNL     1      24.453  51.288  47.437  1.00  0.00     0.211 HD
ENDBRANCH   5   8
BRANCH   5  10
HETATM   10  C   UNL     1      23.426  48.619  48.675  1.00  0.00    -0.023 A 
HETATM   11  C   UNL     1      24.433  48.476  49.661  1.00  0.00     0.024 A 
HETATM   12  C   UNL     1      24.638  47.233  50.290  1.00  0.00     0.001 A 
HETATM   13  C   UNL     1      23.874  46.152  49.882  1.00  0.00     0.086 A 
HETATM   14  C   UNL     1      25.478  46.742  51.321  1.00  0.00     0.057 A 
HETATM   15  O   UNL     1      24.161  45.053  50.630  1.00  0.00    -0.304 OA
HETATM   16  C   UNL     1      22.950  46.206  48.847  1.00  0.00     0.039 A 
HETATM   17  C   UNL     1      25.140  45.415  51.519  1.00  0.00     0.144 A 
HETATM   18  C   UNL     1      22.755  47.458  48.244  1.00  0.00     0.013 A 
BRANCH  17  19
HETATM   19  C   UNL     1      25.640  44.445  52.471  1.00  0.00     0.275 C 
HETATM   20  N   UNL     1      27.006  44.466  52.633  1.00  0.00    -0.353 N 
HETATM   21  H   UNL     1      27.542  45.036  51.990  1.00  0.00     0.162 HD
HETATM   22  O   UNL     1      24.915  43.645  53.056  1.00  0.00    -0.265 OA
BRANCH  20  23
HETATM   23  C   UNL     1      27.709  43.467  53.416  1.00  0.00     0.155 C 
BRANCH  23  24
HETATM   24  C   UNL     1      29.064  43.961  53.932  1.00  0.00     0.139 C 
HETATM   25  O   UNL     1      28.894  45.088  54.819  1.00  0.00    -0.384 OA
HETATM   26  C   UNL     1      29.890  44.996  55.852  1.00  0.00     0.168 C 
HETATM   27  C   UNL     1      30.742  43.777  55.555  1.00  0.00     0.029 C 
HETATM   28  C   UNL     1      29.801  42.915  54.751  1.00  0.00     0.035 C 
ENDBRANCH  23  24
ENDBRANCH  20  23
ENDBRANCH  17  19
ENDBRANCH   5  10
BRANCH   1  29
HETATM   29  C   UNL     1      19.339  50.368  50.236  1.00  0.00     0.273 C 
BRANCH  29  30
HETATM   30  C   UNL     1      18.151  49.814  49.505  1.00  0.00    -0.030 A 
HETATM   31  C   UNL     1      17.978  48.426  49.396  1.00  0.00     0.048 A 
HETATM   32  C   UNL     1      16.861  47.901  48.742  1.00  0.00     0.102 A 
HETATM   33  C   UNL     1      15.931  48.748  48.130  1.00  0.00     0.101 A 
HETATM   34  C   UNL     1      16.094  50.131  48.243  1.00  0.00     0.040 A 
HETATM   35  C   UNL     1      17.193  50.661  48.932  1.00  0.00     0.012 A 
BRANCH  32  36
HETATM   36  O   UNL     1      16.726  46.544  48.611  1.00  0.00    -0.353 OA
HETATM   37  C   UNL     1      17.906  45.946  48.080  1.00  0.00     0.210 C 
ENDBRANCH  32  36
BRANCH  33  38
HETATM   38  O   UNL     1      14.873  48.152  47.499  1.00  0.00    -0.353 OA
HETATM   39  C   UNL     1      14.484  48.734  46.259  1.00  0.00     0.210 C 
ENDBRANCH  33  38
ENDBRANCH  29  30
ENDBRANCH   1  29
TORSDOF 9
ENDMDL
MODEL 3
REMARK VINA RESULT:      -9.0      4.088     10.438
REMARK  9 active torsions:
REMARK  status: ('A' for Active; 'I' for Inactive)
REMARK    1  A    between atoms: O_2  and  C_3 
REMARK    2  A    between atoms: C_4  and  O_5 
REMARK    3  A    between atoms: C_8  and  C_9 
REMARK    4  A    between atoms: C_9  and  N_10 
REMARK    5  A    between atoms: C_14  and  O_15 
REMARK    6  A    between atoms: C_14  and  C_16 
REMARK    7  A    between atoms: C_21  and  C_22 
REMARK       I    between atoms: C_22  and  N_23 
REMARK    8  A    between atoms: N_23  and  C_24 
REMARK    9  A    between atoms: C_24  and  C_25 
ROOT
HETATM    1  N   UNL     1      16.285  49.298  47.254  1.00  0.00    -0.067 N 
HETATM    2  H   UNL     1      15.424  49.610  46.786  1.00  0.00     0.280 HD
HETATM    3  C   UNL     1      16.448  50.155  48.489  1.00  0.00     0.238 C 
HETATM    4  C   UNL     1      16.792  51.586  48.114  1.00  0.00     0.071 C 
HETATM    5  C   UNL     1      18.084  51.658  47.279  1.00  0.00     0.088 C 
HETATM    6  C   UNL     1      17.769  50.877  45.989  1.00  0.00     0.071 C 
HETATM    7  C   UNL     1      17.424  49.423  46.267  1.00  0.00     0.238 C 
ENDROOT
BRANCH   5   8
HETATM    8  O   UNL     1      18.263  53.022  46.901  1.00  0.00    -0.385 OA
HETATM    9  H   UNL     1      18.778  53.489  47.585  1.00  0.00     0.211 HD
ENDBRANCH   5   8
BRANCH   5  10
HETATM   10  C   UNL     1      19.338  51.196  48.038  1.00  0.00    -0.023 A 
HETATM   11  C   UNL     1      20.353  50.469  47.369  1.00  0.00     0.024 A 
HETATM   12  C   UNL     1      21.562  50.169  48.026  1.00  0.00     0.001 A 
HETATM   13  C   UNL     1      21.706  50.550  49.350  1.00  0.00     0.086 A 
HETATM   14  C   UNL     1      22.780  49.535  47.674  1.00  0.00     0.057 A 
HETATM   15  O   UNL     1      22.947  50.235  49.806  1.00  0.00    -0.304 OA
HETATM   16  C   UNL     1      20.706  51.167  50.089  1.00  0.00     0.039 A 
HETATM   17  C   UNL     1      23.611  49.619  48.777  1.00  0.00     0.144 A 
HETATM   18  C   UNL     1      19.516  51.467  49.409  1.00  0.00     0.013 A 
BRANCH  17  19
HETATM   19  C   UNL     1      24.979  49.183  48.964  1.00  0.00     0.275 C 
HETATM   20  N   UNL     1      25.105  47.996  49.649  1.00  0.00    -0.353 N 
HETATM   21  H   UNL     1      24.269  47.615  50.077  1.00  0.00     0.162 HD
HETATM   22  O   UNL     1      25.949  49.832  48.580  1.00  0.00    -0.265 OA
BRANCH  20  23
HETATM   23  C   UNL     1      26.391  47.480  50.077  1.00  0.00     0.155 C 
BRANCH  23  24
HETATM   24  C   UNL     1      26.288  46.103  50.742  1.00  0.00     0.139 C 
HETATM   25  O   UNL     1      25.044  45.975  51.465  1.00  0.00    -0.384 OA
HETATM   26  C   UNL     1      24.597  44.614  51.342  1.00  0.00     0.168 C 
HETATM   27  C   UNL     1      25.642  43.861  50.543  1.00  0.00     0.029 C 
HETATM   28  C   UNL     1      26.287  44.962  49.739  1.00  0.00     0.035 C 
ENDBRANCH  23  24
ENDBRANCH  20  23
ENDBRANCH  17  19
ENDBRANCH   5  10
BRANCH   1  29
HETATM   29  C   UNL     1      16.075  47.826  47.593  1.00  0.00     0.273 C 
BRANCH  29  30
HETATM   30  C   UNL     1      17.331  47.076  47.932  1.00  0.00    -0.030 A 
HETATM   31  C   UNL     1      17.549  45.796  47.399  1.00  0.00     0.048 A 
HETATM   32  C   UNL     1      18.727  45.102  47.686  1.00  0.00     0.102 A 
HETATM   33  C   UNL     1      19.677  45.641  48.560  1.00  0.00     0.101 A 
HETATM   34  C   UNL     1      19.468  46.919  49.085  1.00  0.00     0.040 A 
HETATM   35  C   UNL     1      18.306  47.635  48.768  1.00  0.00     0.012 A 
BRANCH  32  36
HETATM   36  O   UNL     1      18.908  43.838  47.189  1.00  0.00    -0.353 OA
HETATM   37  C   UNL     1      19.263  43.860  45.808  1.00  0.00     0.210 C 
ENDBRANCH  32  36
BRANCH  33  38
HETATM   38  O   UNL     1      20.795  44.890  48.798  1.00  0.00    -0.353 OA
HETATM   39  C   UNL     1      22.035  45.496  48.445  1.00  0.00     0.210 C 
ENDBRANCH  33  38
ENDBRANCH  29  30
ENDBRANCH   1  29
TORSDOF 9
ENDMDL
MODEL 4
REMARK VINA RESULT:      -9.0      3.955     10.891
REMARK  9 active torsions:
REMARK  status: ('A' for Active; 'I' for Inactive)
REMARK    1  A    between atoms: O_2  and  C_3 
REMARK    2  A    between atoms: C_4  and  O_5 
REMARK    3  A    between atoms: C_8  and  C_9 
REMARK    4  A    between atoms: C_9  and  N_10 
REMARK    5  A    between atoms: C_14  and  O_15 
REMARK    6  A    between atoms: C_14  and  C_16 
REMARK    7  A    between atoms: C_21  and  C_22 
REMARK       I    between atoms: C_22  and  N_23 
REMARK    8  A    between atoms: N_23  and  C_24 
REMARK    9  A    between atoms: C_24  and  C_25 
ROOT
HETATM    1  N   UNL     1      16.383  49.717  46.831  1.00  0.00    -0.067 N 
HETATM    2  H   UNL     1      15.440  50.047  46.584  1.00  0.00     0.280 HD
HETATM    3  C   UNL     1      16.473  49.742  48.341  1.00  0.00     0.238 C 
HETATM    4  C   UNL     1      16.491  51.170  48.859  1.00  0.00     0.071 C 
HETATM    5  C   UNL     1      17.669  51.971  48.271  1.00  0.00     0.088 C 
HETATM    6  C   UNL     1      17.409  52.005  46.753  1.00  0.00     0.071 C 
HETATM    7  C   UNL     1      17.387  50.613  46.143  1.00  0.00     0.238 C 
ENDROOT
BRANCH   5   8
HETATM    8  O   UNL     1      17.538  53.312  48.742  1.00  0.00    -0.385 OA
HETATM    9  H   UNL     1      17.463  53.921  47.984  1.00  0.00     0.211 HD
ENDBRANCH   5   8
BRANCH   5  10
HETATM   10  C   UNL     1      19.049  51.441  48.691  1.00  0.00    -0.023 A 
HETATM   11  C   UNL     1      19.987  51.032  47.713  1.00  0.00     0.024 A 
HETATM   12  C   UNL     1      21.298  50.681  48.089  1.00  0.00     0.001 A 
HETATM   13  C   UNL     1      21.623  50.691  49.435  1.00  0.00     0.086 A 
HETATM   14  C   UNL     1      22.481  50.293  47.411  1.00  0.00     0.057 A 
HETATM   15  O   UNL     1      22.936  50.384  49.613  1.00  0.00    -0.304 OA
HETATM   16  C   UNL     1      20.716  50.977  50.447  1.00  0.00     0.039 A 
HETATM   17  C   UNL     1      23.466  50.147  48.371  1.00  0.00     0.144 A 
HETATM   18  C   UNL     1      19.420  51.335  50.046  1.00  0.00     0.013 A 
BRANCH  17  19
HETATM   19  C   UNL     1      24.869  49.812  48.242  1.00  0.00     0.275 C 
HETATM   20  N   UNL     1      25.303  48.848  49.123  1.00  0.00    -0.353 N 
HETATM   21  H   UNL     1      24.664  48.570  49.859  1.00  0.00     0.162 HD
HETATM   22  O   UNL     1      25.620  50.365  47.443  1.00  0.00    -0.265 OA
BRANCH  20  23
HETATM   23  C   UNL     1      26.704  48.497  49.260  1.00  0.00     0.155 C 
BRANCH  23  24
HETATM   24  C   UNL     1      26.937  47.364  50.265  1.00  0.00     0.139 C 
HETATM   25  O   UNL     1      26.239  47.626  51.502  1.00  0.00    -0.384 OA
HETATM   26  C   UNL     1      25.772  46.369  52.023  1.00  0.00     0.168 C 
HETATM   27  C   UNL     1      26.249  45.280  51.081  1.00  0.00     0.029 C 
HETATM   28  C   UNL     1      26.405  46.026  49.780  1.00  0.00     0.035 C 
ENDBRANCH  23  24
ENDBRANCH  20  23
ENDBRANCH  17  19
ENDBRANCH   5  10
BRANCH   1  29
HETATM   29  C   UNL     1      16.501  48.306  46.267  1.00  0.00     0.273 C 
BRANCH  29  30
HETATM   30  C   UNL     1      17.895  47.747  46.262  1.00  0.00    -0.030 A 
HETATM   31  C   UNL     1      18.475  47.318  45.058  1.00  0.00     0.048 A 
HETATM   32  C   UNL     1      19.781  46.823  45.040  1.00  0.00     0.102 A 
HETATM   33  C   UNL     1      20.508  46.686  46.227  1.00  0.00     0.101 A 
HETATM   34  C   UNL     1      19.938  47.120  47.426  1.00  0.00     0.040 A 
HETATM   35  C   UNL     1      18.642  47.653  47.443  1.00  0.00     0.012 A 
BRANCH  32  36
HETATM   36  O   UNL     1      20.319  46.373  43.862  1.00  0.00    -0.353 OA
HETATM   37  C   UNL     1      19.519  45.349  43.274  1.00  0.00     0.210 C 
ENDBRANCH  32  36
BRANCH  33  38
HETATM   38  O   UNL     1      21.775  46.180  46.121  1.00  0.00    -0.353 OA
HETATM   39  C   UNL     1      22.366  45.733  47.337  1.00  0.00     0.210 C 
ENDBRANCH  33  38
ENDBRANCH  29  30
ENDBRANCH   1  29
TORSDOF 9
ENDMDL
MODEL 5
REMARK VINA RESULT:      -8.9      1.927      2.871
REMARK  9 active torsions:
REMARK  status: ('A' for Active; 'I' for Inactive)
REMARK    1  A    between atoms: O_2  and  C_3 
REMARK    2  A    between atoms: C_4  and  O_5 
REMARK    3  A    between atoms: C_8  and  C_9 
REMARK    4  A    between atoms: C_9  and  N_10 
REMARK    5  A    between atoms: C_14  and  O_15 
REMARK    6  A    between atoms: C_14  and  C_16 
REMARK    7  A    between atoms: C_21  and  C_22 
REMARK       I    between atoms: C_22  and  N_23 
REMARK    8  A    between atoms: N_23  and  C_24 
REMARK    9  A    between atoms: C_24  and  C_25 
ROOT
HETATM    1  N   UNL     1      27.036  42.022  52.473  1.00  0.00    -0.067 N 
HETATM    2  H   UNL     1      27.277  41.022  52.478  1.00  0.00     0.280 HD
HETATM    3  C   UNL     1      25.679  42.141  51.814  1.00  0.00     0.238 C 
HETATM    4  C   UNL     1      25.768  41.829  50.330  1.00  0.00     0.071 C 
HETATM    5  C   UNL     1      26.759  42.765  49.613  1.00  0.00     0.088 C 
HETATM    6  C   UNL     1      28.126  42.468  50.258  1.00  0.00     0.071 C 
HETATM    7  C   UNL     1      28.135  42.764  51.749  1.00  0.00     0.238 C 
ENDROOT
BRANCH   5   8
HETATM    8  O   UNL     1      26.839  42.328  48.257  1.00  0.00    -0.385 OA
HETATM    9  H   UNL     1      27.773  42.200  48.007  1.00  0.00     0.211 HD
ENDBRANCH   5   8
BRANCH   5  10
HETATM   10  C   UNL     1      26.334  44.242  49.624  1.00  0.00    -0.023 A 
HETATM   11  C   UNL     1      25.027  44.614  49.226  1.00  0.00     0.024 A 
HETATM   12  C   UNL     1      24.594  45.946  49.369  1.00  0.00     0.001 A 
HETATM   13  C   UNL     1      25.491  46.884  49.852  1.00  0.00     0.086 A 
HETATM   14  C   UNL     1      23.385  46.652  49.142  1.00  0.00     0.057 A 
HETATM   15  O   UNL     1      24.892  48.098  49.980  1.00  0.00    -0.304 OA
HETATM   16  C   UNL     1      26.816  46.601  50.156  1.00  0.00     0.039 A 
HETATM   17  C   UNL     1      23.597  47.956  49.552  1.00  0.00     0.144 A 
HETATM   18  C   UNL     1      27.221  45.265  50.016  1.00  0.00     0.013 A 
BRANCH  17  19
HETATM   19  C   UNL     1      22.700  49.091  49.591  1.00  0.00     0.275 C 
HETATM   20  N   UNL     1      21.365  48.758  49.550  1.00  0.00    -0.353 N 
HETATM   21  H   UNL     1      21.134  47.791  49.354  1.00  0.00     0.162 HD
HETATM   22  O   UNL     1      23.091  50.255  49.620  1.00  0.00    -0.265 OA
BRANCH  20  23
HETATM   23  C   UNL     1      20.320  49.755  49.415  1.00  0.00     0.155 C 
BRANCH  23  24
HETATM   24  C   UNL     1      19.024  49.183  48.830  1.00  0.00     0.139 C 
HETATM   25  O   UNL     1      19.311  48.228  47.785  1.00  0.00    -0.384 OA
HETATM   26  C   UNL     1      18.323  47.186  47.852  1.00  0.00     0.168 C 
HETATM   27  C   UNL     1      17.356  47.545  48.963  1.00  0.00     0.029 C 
HETATM   28  C   UNL     1      18.202  48.420  49.855  1.00  0.00     0.035 C 
ENDBRANCH  23  24
ENDBRANCH  20  23
ENDBRANCH  17  19
ENDBRANCH   5  10
BRANCH   1  29
HETATM   29  C   UNL     1      27.012  42.461  53.933  1.00  0.00     0.273 C 
BRANCH  29  30
HETATM   30  C   UNL     1      27.059  43.947  54.141  1.00  0.00    -0.030 A 
HETATM   31  C   UNL     1      28.185  44.537  54.736  1.00  0.00     0.048 A 
HETATM   32  C   UNL     1      28.250  45.922  54.908  1.00  0.00     0.102 A 
HETATM   33  C   UNL     1      27.170  46.736  54.552  1.00  0.00     0.101 A 
HETATM   34  C   UNL     1      26.051  46.154  53.952  1.00  0.00     0.040 A 
HETATM   35  C   UNL     1      25.998  44.770  53.742  1.00  0.00     0.012 A 
BRANCH  32  36
HETATM   36  O   UNL     1      29.340  46.478  55.525  1.00  0.00    -0.353 OA
HETATM   37  C   UNL     1      29.658  45.807  56.742  1.00  0.00     0.210 C 
ENDBRANCH  32  36
BRANCH  33  38
HETATM   38  O   UNL     1      27.311  48.080  54.768  1.00  0.00    -0.353 OA
HETATM   39  C   UNL     1      26.447  48.642  55.750  1.00  0.00     0.210 C 
ENDBRANCH  33  38
ENDBRANCH  29  30
ENDBRANCH   1  29
TORSDOF 9
ENDMDL
MODEL 6
REMARK VINA RESULT:      -8.9      1.285      2.091
REMARK  9 active torsions:
REMARK  status: ('A' for Active; 'I' for Inactive)
REMARK    1  A    between atoms: O_2  and  C_3 
REMARK    2  A    between atoms: C_4  and  O_5 
REMARK    3  A    between atoms: C_8  and  C_9 
REMARK    4  A    between atoms: C_9  and  N_10 
REMARK    5  A    between atoms: C_14  and  O_15 
REMARK    6  A    between atoms: C_14  and  C_16 
REMARK    7  A    between atoms: C_21  and  C_22 
REMARK       I    between atoms: C_22  and  N_23 
REMARK    8  A    between atoms: N_23  and  C_24 
REMARK    9  A    between atoms: C_24  and  C_25 
ROOT
HETATM    1  N   UNL     1      26.117  45.075  52.383  1.00  0.00    -0.067 N 
HETATM    2  H   UNL     1      26.480  44.136  52.598  1.00  0.00     0.280 HD
HETATM    3  C   UNL     1      24.639  44.919  52.105  1.00  0.00     0.238 C 
HETATM    4  C   UNL     1      24.409  44.184  50.796  1.00  0.00     0.071 C 
HETATM    5  C   UNL     1      25.070  44.915  49.612  1.00  0.00     0.088 C 
HETATM    6  C   UNL     1      26.578  44.897  49.923  1.00  0.00     0.071 C 
HETATM    7  C   UNL     1      26.906  45.625  51.217  1.00  0.00     0.238 C 
ENDROOT
BRANCH   5   8
HETATM    8  O   UNL     1      24.878  44.098  48.457  1.00  0.00    -0.385 OA
HETATM    9  H   UNL     1      25.048  43.165  48.682  1.00  0.00     0.211 HD
ENDBRANCH   5   8
BRANCH   5  10
HETATM   10  C   UNL     1      24.473  46.303  49.330  1.00  0.00    -0.023 A 
HETATM   11  C   UNL     1      23.125  46.432  48.914  1.00  0.00     0.024 A 
HETATM   12  C   UNL     1      22.539  47.707  48.793  1.00  0.00     0.001 A 
HETATM   13  C   UNL     1      23.326  48.821  49.033  1.00  0.00     0.086 A 
HETATM   14  C   UNL     1      21.252  48.207  48.471  1.00  0.00     0.057 A 
HETATM   15  O   UNL     1      22.589  49.959  48.928  1.00  0.00    -0.304 OA
HETATM   16  C   UNL     1      24.679  48.760  49.337  1.00  0.00     0.039 A 
HETATM   17  C   UNL     1      21.314  49.584  48.590  1.00  0.00     0.144 A 
HETATM   18  C   UNL     1      25.237  47.479  49.465  1.00  0.00     0.013 A 
BRANCH  17  19
HETATM   19  C   UNL     1      20.289  50.593  48.426  1.00  0.00     0.275 C 
HETATM   20  N   UNL     1      19.028  50.086  48.208  1.00  0.00    -0.353 N 
HETATM   21  H   UNL     1      18.950  49.090  48.040  1.00  0.00     0.162 HD
HETATM   22  O   UNL     1      20.525  51.798  48.442  1.00  0.00    -0.265 OA
BRANCH  20  23
HETATM   23  C   UNL     1      17.902  50.933  47.859  1.00  0.00     0.155 C 
BRANCH  23  24
HETATM   24  C   UNL     1      17.023  51.279  49.065  1.00  0.00     0.139 C 
HETATM   25  O   UNL     1      17.471  52.501  49.691  1.00  0.00    -0.384 OA
HETATM   26  C   UNL     1      16.311  53.207  50.167  1.00  0.00     0.168 C 
HETATM   27  C   UNL     1      15.098  52.352  49.858  1.00  0.00     0.029 C 
HETATM   28  C   UNL     1      15.574  51.532  48.685  1.00  0.00     0.035 C 
ENDBRANCH  23  24
ENDBRANCH  20  23
ENDBRANCH  17  19
ENDBRANCH   5  10
BRANCH   1  29
HETATM   29  C   UNL     1      26.388  45.928  53.618  1.00  0.00     0.273 C 
BRANCH  29  30
HETATM   30  C   UNL     1      27.625  45.551  54.381  1.00  0.00    -0.030 A 
HETATM   31  C   UNL     1      28.264  44.328  54.124  1.00  0.00     0.048 A 
HETATM   32  C   UNL     1      29.431  43.981  54.808  1.00  0.00     0.102 A 
HETATM   33  C   UNL     1      29.946  44.816  55.806  1.00  0.00     0.101 A 
HETATM   34  C   UNL     1      29.318  46.038  56.059  1.00  0.00     0.040 A 
HETATM   35  C   UNL     1      28.170  46.407  55.347  1.00  0.00     0.012 A 
BRANCH  32  36
HETATM   36  O   UNL     1      30.021  42.767  54.573  1.00  0.00    -0.353 OA
HETATM   37  C   UNL     1      29.182  41.915  53.796  1.00  0.00     0.210 C 
ENDBRANCH  32  36
BRANCH  33  38
HETATM   38  O   UNL     1      31.084  44.395  56.437  1.00  0.00    -0.353 OA
HETATM   39  C   UNL     1      31.108  44.568  57.851  1.00  0.00     0.210 C 
ENDBRANCH  33  38
ENDBRANCH  29  30
ENDBRANCH   1  29
TORSDOF 9
ENDMDL
MODEL 7
REMARK VINA RESULT:      -8.9      1.681     12.042
REMARK  9 active torsions:
REMARK  status: ('A' for Active; 'I' for Inactive)
REMARK    1  A    between atoms: O_2  and  C_3 
REMARK    2  A    between atoms: C_4  and  O_5 
REMARK    3  A    between atoms: C_8  and  C_9 
REMARK    4  A    between atoms: C_9  and  N_10 
REMARK    5  A    between atoms: C_14  and  O_15 
REMARK    6  A    between atoms: C_14  and  C_16 
REMARK    7  A    between atoms: C_21  and  C_22 
REMARK       I    between atoms: C_22  and  N_23 
REMARK    8  A    between atoms: N_23  and  C_24 
REMARK    9  A    between atoms: C_24  and  C_25 
ROOT
HETATM    1  N   UNL     1      20.836  50.770  49.235  1.00  0.00    -0.067 N 
HETATM    2  H   UNL     1      20.657  51.741  48.944  1.00  0.00     0.280 HD
HETATM    3  C   UNL     1      22.074  50.795  50.103  1.00  0.00     0.238 C 
HETATM    4  C   UNL     1      23.309  51.110  49.276  1.00  0.00     0.071 C 
HETATM    5  C   UNL     1      23.509  50.085  48.144  1.00  0.00     0.088 C 
HETATM    6  C   UNL     1      22.268  50.237  47.245  1.00  0.00     0.071 C 
HETATM    7  C   UNL     1      20.978  49.927  47.988  1.00  0.00     0.238 C 
ENDROOT
BRANCH   5   8
HETATM    8  O   UNL     1      24.629  50.525  47.376  1.00  0.00    -0.385 OA
HETATM    9  H   UNL     1      24.388  51.320  46.867  1.00  0.00     0.211 HD
ENDBRANCH   5   8
BRANCH   5  10
HETATM   10  C   UNL     1      23.790  48.659  48.642  1.00  0.00    -0.023 A 
HETATM   11  C   UNL     1      25.020  48.350  49.273  1.00  0.00     0.024 A 
HETATM   12  C   UNL     1      25.221  47.083  49.854  1.00  0.00     0.001 A 
HETATM   13  C   UNL     1      24.215  46.138  49.742  1.00  0.00     0.086 A 
HETATM   14  C   UNL     1      26.257  46.456  50.591  1.00  0.00     0.057 A 
HETATM   15  O   UNL     1      24.551  45.000  50.405  1.00  0.00    -0.304 OA
HETATM   16  C   UNL     1      23.034  46.347  49.042  1.00  0.00     0.039 A 
HETATM   17  C   UNL     1      25.801  45.196  50.933  1.00  0.00     0.144 A 
HETATM   18  C   UNL     1      22.851  47.621  48.483  1.00  0.00     0.013 A 
BRANCH  17  19
HETATM   19  C   UNL     1      26.420  44.149  51.719  1.00  0.00     0.275 C 
HETATM   20  N   UNL     1      27.211  44.608  52.748  1.00  0.00    -0.353 N 
HETATM   21  H   UNL     1      27.404  45.602  52.777  1.00  0.00     0.162 HD
HETATM   22  O   UNL     1      26.285  42.954  51.470  1.00  0.00    -0.265 OA
BRANCH  20  23
HETATM   23  C   UNL     1      28.042  43.723  53.542  1.00  0.00     0.155 C 
BRANCH  23  24
HETATM   24  C   UNL     1      28.371  44.297  54.924  1.00  0.00     0.139 C 
HETATM   25  O   UNL     1      29.732  43.989  55.296  1.00  0.00    -0.384 OA
HETATM   26  C   UNL     1      30.253  45.105  56.038  1.00  0.00     0.168 C 
HETATM   27  C   UNL     1      29.140  46.127  56.166  1.00  0.00     0.029 C 
HETATM   28  C   UNL     1      28.276  45.813  54.970  1.00  0.00     0.035 C 
ENDBRANCH  23  24
ENDBRANCH  20  23
ENDBRANCH  17  19
ENDBRANCH   5  10
BRANCH   1  29
HETATM   29  C   UNL     1      19.598  50.322  50.004  1.00  0.00     0.273 C 
BRANCH  29  30
HETATM   30  C   UNL     1      18.328  51.019  49.608  1.00  0.00    -0.030 A 
HETATM   31  C   UNL     1      17.371  50.347  48.832  1.00  0.00     0.048 A 
HETATM   32  C   UNL     1      16.175  50.977  48.483  1.00  0.00     0.102 A 
HETATM   33  C   UNL     1      15.938  52.308  48.844  1.00  0.00     0.101 A 
HETATM   34  C   UNL     1      16.885  52.977  49.624  1.00  0.00     0.040 A 
HETATM   35  C   UNL     1      18.069  52.336  50.009  1.00  0.00     0.012 A 
BRANCH  32  36
HETATM   36  O   UNL     1      15.267  50.321  47.694  1.00  0.00    -0.353 OA
HETATM   37  C   UNL     1      15.479  48.911  47.706  1.00  0.00     0.210 C 
ENDBRANCH  32  36
BRANCH  33  38
HETATM   38  O   UNL     1      14.747  52.853  48.450  1.00  0.00    -0.353 OA
HETATM   39  C   UNL     1      14.401  54.092  49.062  1.00  0.00     0.210 C 
ENDBRANCH  33  38
ENDBRANCH  29  30
ENDBRANCH   1  29
TORSDOF 9
ENDMDL
MODEL 8
REMARK VINA RESULT:      -8.8     12.091     15.549
REMARK  9 active torsions:
REMARK  status: ('A' for Active; 'I' for Inactive)
REMARK    1  A    between atoms: O_2  and  C_3 
REMARK    2  A    between atoms: C_4  and  O_5 
REMARK    3  A    between atoms: C_8  and  C_9 
REMARK    4  A    between atoms: C_9  and  N_10 
REMARK    5  A    between atoms: C_14  and  O_15 
REMARK    6  A    between atoms: C_14  and  C_16 
REMARK    7  A    between atoms: C_21  and  C_22 
REMARK       I    between atoms: C_22  and  N_23 
REMARK    8  A    between atoms: N_23  and  C_24 
REMARK    9  A    between atoms: C_24  and  C_25 
ROOT
HETATM    1  N   UNL     1      26.458  48.319  39.385  1.00  0.00    -0.067 N 
HETATM    2  H   UNL     1      25.691  47.756  38.991  1.00  0.00     0.280 HD
HETATM    3  C   UNL     1      27.616  48.216  38.418  1.00  0.00     0.238 C 
HETATM    4  C   UNL     1      28.210  46.819  38.429  1.00  0.00     0.071 C 
HETATM    5  C   UNL     1      28.694  46.421  39.837  1.00  0.00     0.088 C 
HETATM    6  C   UNL     1      27.424  46.419  40.709  1.00  0.00     0.071 C 
HETATM    7  C   UNL     1      26.765  47.788  40.766  1.00  0.00     0.238 C 
ENDROOT
BRANCH   5   8
HETATM    8  O   UNL     1      29.141  45.068  39.758  1.00  0.00    -0.385 OA
HETATM    9  H   UNL     1      29.012  44.731  38.852  1.00  0.00     0.211 HD
ENDBRANCH   5   8
BRANCH   5  10
HETATM   10  C   UNL     1      29.851  47.286  40.361  1.00  0.00    -0.023 A 
HETATM   11  C   UNL     1      29.590  48.411  41.180  1.00  0.00     0.024 A 
HETATM   12  C   UNL     1      30.654  49.118  41.774  1.00  0.00     0.001 A 
HETATM   13  C   UNL     1      31.950  48.721  41.492  1.00  0.00     0.086 A 
HETATM   14  C   UNL     1      30.773  50.215  42.664  1.00  0.00     0.057 A 
HETATM   15  O   UNL     1      32.843  49.471  42.191  1.00  0.00    -0.304 OA
HETATM   16  C   UNL     1      32.269  47.695  40.612  1.00  0.00     0.039 A 
HETATM   17  C   UNL     1      32.122  50.384  42.917  1.00  0.00     0.144 A 
HETATM   18  C   UNL     1      31.193  46.998  40.042  1.00  0.00     0.013 A 
BRANCH  17  19
HETATM   19  C   UNL     1      32.812  51.317  43.783  1.00  0.00     0.275 C 
HETATM   20  N   UNL     1      34.120  51.555  43.429  1.00  0.00    -0.353 N 
HETATM   21  H   UNL     1      34.520  50.968  42.706  1.00  0.00     0.162 HD
HETATM   22  O   UNL     1      32.291  51.825  44.772  1.00  0.00    -0.265 OA
BRANCH  20  23
HETATM   23  C   UNL     1      35.021  52.328  44.263  1.00  0.00     0.155 C 
BRANCH  23  24
HETATM   24  C   UNL     1      36.415  52.484  43.646  1.00  0.00     0.139 C 
HETATM   25  O   UNL     1      36.362  53.306  42.460  1.00  0.00    -0.384 OA
HETATM   26  C   UNL     1      37.569  54.087  42.405  1.00  0.00     0.168 C 
HETATM   27  C   UNL     1      38.423  53.687  43.592  1.00  0.00     0.029 C 
HETATM   28  C   UNL     1      37.395  53.183  44.574  1.00  0.00     0.035 C 
ENDBRANCH  23  24
ENDBRANCH  20  23
ENDBRANCH  17  19
ENDBRANCH   5  10
BRANCH   1  29
HETATM   29  C   UNL     1      25.924  49.742  39.502  1.00  0.00     0.273 C 
BRANCH  29  30
HETATM   30  C   UNL     1      26.979  50.794  39.684  1.00  0.00    -0.030 A 
HETATM   31  C   UNL     1      27.748  51.215  38.588  1.00  0.00     0.048 A 
HETATM   32  C   UNL     1      28.712  52.214  38.742  1.00  0.00     0.102 A 
HETATM   33  C   UNL     1      28.974  52.764  40.002  1.00  0.00     0.101 A 
HETATM   34  C   UNL     1      28.205  52.353  41.094  1.00  0.00     0.040 A 
HETATM   35  C   UNL     1      27.210  51.380  40.936  1.00  0.00     0.012 A 
BRANCH  32  36
HETATM   36  O   UNL     1      29.480  52.587  37.671  1.00  0.00    -0.353 OA
HETATM   37  C   UNL     1      30.537  51.659  37.431  1.00  0.00     0.210 C 
ENDBRANCH  32  36
BRANCH  33  38
HETATM   38  O   UNL     1      29.944  53.726  40.067  1.00  0.00    -0.353 OA
HETATM   39  C   UNL     1      31.129  53.363  40.769  1.00  0.00     0.210 C 
ENDBRANCH  33  38
ENDBRANCH  29  30
ENDBRANCH   1  29
TORSDOF 9
ENDMDL
MODEL 9
REMARK VINA RESULT:      -8.8      2.225     11.634
REMARK  9 active torsions:
REMARK  status: ('A' for Active; 'I' for Inactive)
REMARK    1  A    between atoms: O_2  and  C_3 
REMARK    2  A    between atoms: C_4  and  O_5 
REMARK    3  A    between atoms: C_8  and  C_9 
REMARK    4  A    between atoms: C_9  and  N_10 
REMARK    5  A    between atoms: C_14  and  O_15 
REMARK    6  A    between atoms: C_14  and  C_16 
REMARK    7  A    between atoms: C_21  and  C_22 
REMARK       I    between atoms: C_22  and  N_23 
REMARK    8  A    between atoms: N_23  and  C_24 
REMARK    9  A    between atoms: C_24  and  C_25 
ROOT
HETATM    1  N   UNL     1      20.808  50.009  49.301  1.00  0.00    -0.067 N 
HETATM    2  H   UNL     1      20.329  50.811  48.871  1.00  0.00     0.280 HD
HETATM    3  C   UNL     1      21.959  50.568  50.107  1.00  0.00     0.238 C 
HETATM    4  C   UNL     1      23.037  51.128  49.195  1.00  0.00     0.071 C 
HETATM    5  C   UNL     1      23.574  50.056  48.228  1.00  0.00     0.088 C 
HETATM    6  C   UNL     1      22.363  49.656  47.364  1.00  0.00     0.071 C 
HETATM    7  C   UNL     1      21.233  49.070  48.196  1.00  0.00     0.238 C 
ENDROOT
BRANCH   5   8
HETATM    8  O   UNL     1      24.503  50.704  47.360  1.00  0.00    -0.385 OA
HETATM    9  H   UNL     1      24.285  51.652  47.292  1.00  0.00     0.211 HD
ENDBRANCH   5   8
BRANCH   5  10
HETATM   10  C   UNL     1      24.294  48.894  48.930  1.00  0.00    -0.023 A 
HETATM   11  C   UNL     1      23.587  47.716  49.274  1.00  0.00     0.024 A 
HETATM   12  C   UNL     1      24.275  46.600  49.787  1.00  0.00     0.001 A 
HETATM   13  C   UNL     1      25.640  46.705  49.999  1.00  0.00     0.086 A 
HETATM   14  C   UNL     1      23.927  45.281  50.175  1.00  0.00     0.057 A 
HETATM   15  O   UNL     1      26.149  45.524  50.440  1.00  0.00    -0.304 OA
HETATM   16  C   UNL     1      26.367  47.868  49.784  1.00  0.00     0.039 A 
HETATM   17  C   UNL     1      25.100  44.646  50.542  1.00  0.00     0.144 A 
HETATM   18  C   UNL     1      25.662  48.962  49.261  1.00  0.00     0.013 A 
BRANCH  17  19
HETATM   19  C   UNL     1      25.342  43.286  50.974  1.00  0.00     0.275 C 
HETATM   20  N   UNL     1      26.590  43.080  51.517  1.00  0.00    -0.353 N 
HETATM   21  H   UNL     1      27.262  43.834  51.438  1.00  0.00     0.162 HD
HETATM   22  O   UNL     1      24.523  42.381  50.835  1.00  0.00    -0.265 OA
BRANCH  20  23
HETATM   23  C   UNL     1      27.079  41.757  51.857  1.00  0.00     0.155 C 
BRANCH  23  24
HETATM   24  C   UNL     1      28.152  41.782  52.950  1.00  0.00     0.139 C 
HETATM   25  O   UNL     1      29.456  42.034  52.383  1.00  0.00    -0.384 OA
HETATM   26  C   UNL     1      30.199  42.838  53.315  1.00  0.00     0.168 C 
HETATM   27  C   UNL     1      29.323  43.049  54.534  1.00  0.00     0.029 C 
HETATM   28  C   UNL     1      27.935  42.894  53.963  1.00  0.00     0.035 C 
ENDBRANCH  23  24
ENDBRANCH  20  23
ENDBRANCH  17  19
ENDBRANCH   5  10
BRANCH   1  29
HETATM   29  C   UNL     1      19.771  49.315  50.177  1.00  0.00     0.273 C 
BRANCH  29  30
HETATM   30  C   UNL     1      18.464  49.029  49.494  1.00  0.00    -0.030 A 
HETATM   31  C   UNL     1      17.668  50.088  49.030  1.00  0.00     0.048 A 
HETATM   32  C   UNL     1      16.465  49.831  48.369  1.00  0.00     0.102 A 
HETATM   33  C   UNL     1      16.002  48.520  48.216  1.00  0.00     0.101 A 
HETATM   34  C   UNL     1      16.795  47.463  48.669  1.00  0.00     0.040 A 
HETATM   35  C   UNL     1      18.021  47.715  49.298  1.00  0.00     0.012 A 
BRANCH  32  36
HETATM   36  O   UNL     1      15.681  50.876  47.955  1.00  0.00    -0.353 OA
HETATM   37  C   UNL     1      15.555  51.873  48.967  1.00  0.00     0.210 C 
ENDBRANCH  32  36
BRANCH  33  38
HETATM   38  O   UNL     1      14.807  48.357  47.569  1.00  0.00    -0.353 OA
HETATM   39  C   UNL     1      14.889  48.150  46.162  1.00  0.00     0.210 C 
ENDBRANCH  33  38
ENDBRANCH  29  30
ENDBRANCH   1  29
TORSDOF 9
ENDMDL
MODEL 10
REMARK VINA RESULT:      -8.7      3.093     11.645
REMARK  9 active torsions:
REMARK  status: ('A' for Active; 'I' for Inactive)
REMARK    1  A    between atoms: O_2  and  C_3 
REMARK    2  A    between atoms: C_4  and  O_5 
REMARK    3  A    between atoms: C_8  and  C_9 
REMARK    4  A    between atoms: C_9  and  N_10 
REMARK    5  A    between atoms: C_14  and  O_15 
REMARK    6  A    between atoms: C_14  and  C_16 
REMARK    7  A    between atoms: C_21  and  C_22 
REMARK       I    between atoms: C_22  and  N_23 
REMARK    8  A    between atoms: N_23  and  C_24 
REMARK    9  A    between atoms: C_24  and  C_25 
ROOT
HETATM    1  N   UNL     1      20.555  50.661  49.426  1.00  0.00    -0.067 N 
HETATM    2  H   UNL     1      20.301  51.607  49.110  1.00  0.00     0.280 HD
HETATM    3  C   UNL     1      21.858  50.789  50.183  1.00  0.00     0.238 C 
HETATM    4  C   UNL     1      23.001  51.125  49.241  1.00  0.00     0.071 C 
HETATM    5  C   UNL     1      23.161  50.058  48.141  1.00  0.00     0.088 C 
HETATM    6  C   UNL     1      21.842  50.105  47.346  1.00  0.00     0.071 C 
HETATM    7  C   UNL     1      20.638  49.768  48.210  1.00  0.00     0.238 C 
ENDROOT
BRANCH   5   8
HETATM    8  O   UNL     1      24.188  50.515  47.262  1.00  0.00    -0.385 OA
HETATM    9  H   UNL     1      24.576  51.339  47.609  1.00  0.00     0.211 HD
ENDBRANCH   5   8
BRANCH   5  10
HETATM   10  C   UNL     1      23.558  48.673  48.675  1.00  0.00    -0.023 A 
HETATM   11  C   UNL     1      24.737  48.512  49.442  1.00  0.00     0.024 A 
HETATM   12  C   UNL     1      25.026  47.275  50.049  1.00  0.00     0.001 A 
HETATM   13  C   UNL     1      24.164  46.214  49.828  1.00  0.00     0.086 A 
HETATM   14  C   UNL     1      26.042  46.773  50.902  1.00  0.00     0.057 A 
HETATM   15  O   UNL     1      24.561  45.120  50.530  1.00  0.00    -0.304 OA
HETATM   16  C   UNL     1      23.053  46.282  48.998  1.00  0.00     0.039 A 
HETATM   17  C   UNL     1      25.710  45.463  51.196  1.00  0.00     0.144 A 
HETATM   18  C   UNL     1      22.779  47.528  48.415  1.00  0.00     0.013 A 
BRANCH  17  19
HETATM   19  C   UNL     1      26.360  44.493  52.053  1.00  0.00     0.275 C 
HETATM   20  N   UNL     1      26.853  43.394  51.387  1.00  0.00    -0.353 N 
HETATM   21  H   UNL     1      26.600  43.289  50.412  1.00  0.00     0.162 HD
HETATM   22  O   UNL     1      26.434  44.618  53.272  1.00  0.00    -0.265 OA
BRANCH  20  23
HETATM   23  C   UNL     1      27.390  42.242  52.086  1.00  0.00     0.155 C 
BRANCH  23  24
HETATM   24  C   UNL     1      27.420  40.980  51.217  1.00  0.00     0.139 C 
HETATM   25  O   UNL     1      27.459  41.325  49.814  1.00  0.00    -0.384 OA
HETATM   26  C   UNL     1      28.275  40.352  49.140  1.00  0.00     0.168 C 
HETATM   27  C   UNL     1      28.720  39.335  50.173  1.00  0.00     0.029 C 
HETATM   28  C   UNL     1      28.656  40.129  51.454  1.00  0.00     0.035 C 
ENDBRANCH  23  24
ENDBRANCH  20  23
ENDBRANCH  17  19
ENDBRANCH   5  10
BRANCH   1  29
HETATM   29  C   UNL     1      19.411  50.190  50.317  1.00  0.00     0.273 C 
BRANCH  29  30
HETATM   30  C   UNL     1      18.212  49.673  49.576  1.00  0.00    -0.030 A 
HETATM   31  C   UNL     1      17.999  48.290  49.462  1.00  0.00     0.048 A 
HETATM   32  C   UNL     1      16.872  47.801  48.799  1.00  0.00     0.102 A 
HETATM   33  C   UNL     1      15.971  48.676  48.182  1.00  0.00     0.101 A 
HETATM   34  C   UNL     1      16.174  50.053  48.301  1.00  0.00     0.040 A 
HETATM   35  C   UNL     1      17.283  50.549  48.999  1.00  0.00     0.012 A 
BRANCH  32  36
HETATM   36  O   UNL     1      16.698  46.448  48.664  1.00  0.00    -0.353 OA
HETATM   37  C   UNL     1      17.708  45.867  47.841  1.00  0.00     0.210 C 
ENDBRANCH  32  36
BRANCH  33  38
HETATM   38  O   UNL     1      14.901  48.113  47.543  1.00  0.00    -0.353 OA
HETATM   39  C   UNL     1      14.574  48.673  46.275  1.00  0.00     0.210 C 
ENDBRANCH  33  38
ENDBRANCH  29  30
ENDBRANCH   1  29
TORSDOF 9
ENDMDL
