MODEL 1
REMARK VINA RESULT:      -9.1      0.000      0.000
REMARK  6 active torsions:
REMARK  status: ('A' for Active; 'I' for Inactive)
REMARK    1  A    between atoms: C_2  and  O_3 
REMARK    2  A    between atoms: C_2  and  C_4 
REMARK    3  A    between atoms: C_6  and  N_7 
REMARK       I    between atoms: N_7  and  C_8 
REMARK    4  A    between atoms: C_8  and  C_9 
REMARK    5  A    between atoms: C_12  and  C_13 
REMARK    6  A    between atoms: C_18  and  C_19 
ROOT
HETATM    1  C   UNL     1      23.845  46.111  49.333  1.00  0.00     0.096 A 
HETATM    2  C   UNL     1      24.980  45.458  49.776  1.00  0.00     0.138 A 
HETATM    3  N   UNL     1      24.862  44.163  49.332  1.00  0.00    -0.240 N 
HETATM    4  C   UNL     1      25.859  43.127  49.520  1.00  0.00     0.221 C 
HETATM    5  C   UNL     1      27.180  43.735  50.032  1.00  0.00     0.066 C 
HETATM    6  C   UNL     1      26.990  44.870  51.054  1.00  0.00     0.118 C 
HETATM    7  N   UNL     1      26.056  45.861  50.503  1.00  0.00    -0.365 N 
HETATM    8  N   UNL     1      23.740  43.930  48.635  1.00  0.00    -0.181 NA
HETATM    9  C   UNL     1      23.098  45.101  48.682  1.00  0.00     0.160 A 
HETATM   10  H   UNL     1      25.978  46.697  51.087  1.00  0.00     0.161 HD
ENDROOT
BRANCH   1  11
HETATM   11  C   UNL     1      23.475  47.509  49.473  1.00  0.00     0.261 C 
HETATM   12  N   UNL     1      22.259  47.802  48.883  1.00  0.00    -0.323 N 
HETATM   13  H   UNL     1      21.751  47.002  48.521  1.00  0.00     0.169 HD
HETATM   14  O   UNL     1      24.175  48.282  50.115  1.00  0.00    -0.267 OA
BRANCH  12  15
HETATM   15  C   UNL     1      21.581  49.035  48.870  1.00  0.00     0.035 A 
HETATM   16  C   UNL     1      20.293  49.220  49.379  1.00  0.00     0.039 A 
HETATM   17  C   UNL     1      19.668  50.480  49.332  1.00  0.00    -0.028 A 
HETATM   18  C   UNL     1      20.360  51.557  48.764  1.00  0.00     0.010 A 
HETATM   19  C   UNL     1      21.646  51.383  48.258  1.00  0.00     0.003 A 
HETATM   20  C   UNL     1      22.257  50.131  48.320  1.00  0.00     0.029 A 
BRANCH  17  21
HETATM   21  C   UNL     1      18.290  50.655  49.936  1.00  0.00     0.147 C 
HETATM   22  C   UNL     1      17.846  52.113  49.879  1.00  0.00     0.044 C 
BRANCH  21  23
HETATM   23  O   UNL     1      17.340  49.853  49.237  1.00  0.00    -0.391 OA
HETATM   24  H   UNL     1      17.555  48.926  49.434  1.00  0.00     0.210 HD
ENDBRANCH  21  23
ENDBRANCH  17  21
ENDBRANCH  12  15
ENDBRANCH   1  11
BRANCH   4  25
HETATM   25  C   UNL     1      25.318  42.011  50.389  1.00  0.00     0.409 C 
HETATM   26  F   UNL     1      26.248  41.412  51.155  1.00  0.00    -0.169 F 
HETATM   27  F   UNL     1      24.330  42.438  51.208  1.00  0.00    -0.169 F 
HETATM   28  F   UNL     1      24.763  41.046  49.607  1.00  0.00    -0.169 F 
ENDBRANCH   4  25
BRANCH   6  29
HETATM   29  C   UNL     1      26.640  44.413  52.462  1.00  0.00    -0.035 A 
HETATM   30  C   UNL     1      27.534  43.567  53.147  1.00  0.00     0.009 A 
HETATM   31  C   UNL     1      27.251  43.108  54.437  1.00  0.00     0.001 A 
HETATM   32  C   UNL     1      26.077  43.496  55.072  1.00  0.00     0.000 A 
HETATM   33  C   UNL     1      25.188  44.347  54.423  1.00  0.00     0.001 A 
HETATM   34  C   UNL     1      25.468  44.804  53.132  1.00  0.00     0.009 A 
ENDBRANCH   6  29
TORSDOF 6
ENDMDL
MODEL 2
REMARK VINA RESULT:      -8.7      3.887      8.925
REMARK  6 active torsions:
REMARK  status: ('A' for Active; 'I' for Inactive)
REMARK    1  A    between atoms: C_2  and  O_3 
REMARK    2  A    between atoms: C_2  and  C_4 
REMARK    3  A    between atoms: C_6  and  N_7 
REMARK       I    between atoms: N_7  and  C_8 
REMARK    4  A    between atoms: C_8  and  C_9 
REMARK    5  A    between atoms: C_12  and  C_13 
REMARK    6  A    between atoms: C_18  and  C_19 
ROOT
HETATM    1  C   UNL     1      21.775  46.897  48.286  1.00  0.00     0.096 A 
HETATM    2  C   UNL     1      20.534  47.361  48.683  1.00  0.00     0.138 A 
HETATM    3  N   UNL     1      19.676  47.056  47.654  1.00  0.00    -0.240 N 
HETATM    4  C   UNL     1      18.248  47.310  47.660  1.00  0.00     0.221 C 
HETATM    5  C   UNL     1      17.777  47.708  49.072  1.00  0.00     0.066 C 
HETATM    6  C   UNL     1      18.764  48.617  49.827  1.00  0.00     0.118 C 
HETATM    7  N   UNL     1      20.098  48.003  49.800  1.00  0.00    -0.365 N 
HETATM    8  N   UNL     1      20.266  46.428  46.625  1.00  0.00    -0.181 NA
HETATM    9  C   UNL     1      21.551  46.380  46.989  1.00  0.00     0.160 A 
HETATM   10  H   UNL     1      20.774  48.501  50.383  1.00  0.00     0.161 HD
ENDROOT
BRANCH   1  11
HETATM   11  C   UNL     1      23.034  46.908  49.010  1.00  0.00     0.261 C 
HETATM   12  N   UNL     1      23.397  45.656  49.472  1.00  0.00    -0.323 N 
HETATM   13  H   UNL     1      22.798  44.895  49.170  1.00  0.00     0.169 HD
HETATM   14  O   UNL     1      23.692  47.936  49.108  1.00  0.00    -0.267 OA
BRANCH  12  15
HETATM   15  C   UNL     1      24.569  45.298  50.164  1.00  0.00     0.035 A 
HETATM   16  C   UNL     1      24.642  45.168  51.553  1.00  0.00     0.039 A 
HETATM   17  C   UNL     1      25.848  44.811  52.186  1.00  0.00    -0.028 A 
HETATM   18  C   UNL     1      26.984  44.586  51.397  1.00  0.00     0.010 A 
HETATM   19  C   UNL     1      26.919  44.710  50.011  1.00  0.00     0.003 A 
HETATM   20  C   UNL     1      25.715  45.054  49.398  1.00  0.00     0.029 A 
BRANCH  17  21
HETATM   21  C   UNL     1      25.881  44.632  53.689  1.00  0.00     0.147 C 
HETATM   22  C   UNL     1      26.023  45.974  54.399  1.00  0.00     0.044 C 
BRANCH  21  23
HETATM   23  O   UNL     1      24.685  43.995  54.136  1.00  0.00    -0.391 OA
HETATM   24  H   UNL     1      24.011  44.152  53.454  1.00  0.00     0.210 HD
ENDBRANCH  21  23
ENDBRANCH  17  21
ENDBRANCH  12  15
ENDBRANCH   1  11
BRANCH   4  25
HETATM   25  C   UNL     1      17.875  48.307  46.583  1.00  0.00     0.409 C 
HETATM   26  F   UNL     1      16.828  49.090  46.899  1.00  0.00    -0.169 F 
HETATM   27  F   UNL     1      18.908  49.120  46.263  1.00  0.00    -0.169 F 
HETATM   28  F   UNL     1      17.550  47.649  45.438  1.00  0.00    -0.169 F 
ENDBRANCH   4  25
BRANCH   6  29
HETATM   29  C   UNL     1      18.750  50.075  49.398  1.00  0.00    -0.035 A 
HETATM   30  C   UNL     1      17.560  50.817  49.536  1.00  0.00     0.009 A 
HETATM   31  C   UNL     1      17.492  52.156  49.142  1.00  0.00     0.001 A 
HETATM   32  C   UNL     1      18.614  52.785  48.616  1.00  0.00     0.000 A 
HETATM   33  C   UNL     1      19.806  52.079  48.489  1.00  0.00     0.001 A 
HETATM   34  C   UNL     1      19.875  50.739  48.879  1.00  0.00     0.009 A 
ENDBRANCH   6  29
TORSDOF 6
ENDMDL
MODEL 3
REMARK VINA RESULT:      -8.4      4.198      8.943
REMARK  6 active torsions:
REMARK  status: ('A' for Active; 'I' for Inactive)
REMARK    1  A    between atoms: C_2  and  O_3 
REMARK    2  A    between atoms: C_2  and  C_4 
REMARK    3  A    between atoms: C_6  and  N_7 
REMARK       I    between atoms: N_7  and  C_8 
REMARK    4  A    between atoms: C_8  and  C_9 
REMARK    5  A    between atoms: C_12  and  C_13 
REMARK    6  A    between atoms: C_18  and  C_19 
ROOT
HETATM    1  C   UNL     1      20.559  45.557  48.156  1.00  0.00     0.096 A 
HETATM    2  C   UNL     1      19.572  46.423  48.588  1.00  0.00     0.138 A 
HETATM    3  N   UNL     1      18.638  46.456  47.581  1.00  0.00    -0.240 N 
HETATM    4  C   UNL     1      17.392  47.197  47.627  1.00  0.00     0.221 C 
HETATM    5  C   UNL     1      17.124  47.714  49.053  1.00  0.00     0.066 C 
HETATM    6  C   UNL     1      18.385  48.204  49.788  1.00  0.00     0.118 C 
HETATM    7  N   UNL     1      19.416  47.160  49.721  1.00  0.00    -0.365 N 
HETATM    8  N   UNL     1      18.945  45.676  46.532  1.00  0.00    -0.181 NA
HETATM    9  C   UNL     1      20.138  45.172  46.862  1.00  0.00     0.160 A 
HETATM   10  H   UNL     1      20.237  47.379  50.289  1.00  0.00     0.161 HD
ENDROOT
BRANCH   1  11
HETATM   11  C   UNL     1      21.758  45.112  48.846  1.00  0.00     0.261 C 
HETATM   12  N   UNL     1      22.730  46.093  48.916  1.00  0.00    -0.323 N 
HETATM   13  H   UNL     1      22.450  47.004  48.568  1.00  0.00     0.169 HD
HETATM   14  O   UNL     1      21.814  43.997  49.351  1.00  0.00    -0.267 OA
BRANCH  12  15
HETATM   15  C   UNL     1      23.985  46.020  49.549  1.00  0.00     0.035 A 
HETATM   16  C   UNL     1      24.815  44.897  49.503  1.00  0.00     0.039 A 
HETATM   17  C   UNL     1      26.058  44.886  50.163  1.00  0.00    -0.028 A 
HETATM   18  C   UNL     1      26.456  46.027  50.873  1.00  0.00     0.010 A 
HETATM   19  C   UNL     1      25.636  47.152  50.921  1.00  0.00     0.003 A 
HETATM   20  C   UNL     1      24.412  47.151  50.254  1.00  0.00     0.029 A 
BRANCH  17  21
HETATM   21  C   UNL     1      26.954  43.670  50.053  1.00  0.00     0.147 C 
HETATM   22  C   UNL     1      26.626  42.647  51.135  1.00  0.00     0.044 C 
BRANCH  21  23
HETATM   23  O   UNL     1      26.799  43.058  48.774  1.00  0.00    -0.391 OA
HETATM   24  H   UNL     1      26.702  42.104  48.928  1.00  0.00     0.210 HD
ENDBRANCH  21  23
ENDBRANCH  17  21
ENDBRANCH  12  15
ENDBRANCH   1  11
BRANCH   4  25
HETATM   25  C   UNL     1      17.371  48.278  46.567  1.00  0.00     0.409 C 
HETATM   26  F   UNL     1      16.668  49.372  46.912  1.00  0.00    -0.169 F 
HETATM   27  F   UNL     1      18.616  48.684  46.229  1.00  0.00    -0.169 F 
HETATM   28  F   UNL     1      16.816  47.792  45.423  1.00  0.00    -0.169 F 
ENDBRANCH   4  25
BRANCH   6  29
HETATM   29  C   UNL     1      18.876  49.581  49.368  1.00  0.00    -0.035 A 
HETATM   30  C   UNL     1      18.039  50.696  49.569  1.00  0.00     0.009 A 
HETATM   31  C   UNL     1      18.439  51.979  49.188  1.00  0.00     0.001 A 
HETATM   32  C   UNL     1      19.689  52.177  48.610  1.00  0.00     0.000 A 
HETATM   33  C   UNL     1      20.541  51.093  48.420  1.00  0.00     0.001 A 
HETATM   34  C   UNL     1      20.141  49.809  48.799  1.00  0.00     0.009 A 
ENDBRANCH   6  29
TORSDOF 6
ENDMDL
MODEL 4
REMARK VINA RESULT:      -8.3      5.341      9.026
REMARK  6 active torsions:
REMARK  status: ('A' for Active; 'I' for Inactive)
REMARK    1  A    between atoms: C_2  and  O_3 
REMARK    2  A    between atoms: C_2  and  C_4 
REMARK    3  A    between atoms: C_6  and  N_7 
REMARK       I    between atoms: N_7  and  C_8 
REMARK    4  A    between atoms: C_8  and  C_9 
REMARK    5  A    between atoms: C_12  and  C_13 
REMARK    6  A    between atoms: C_18  and  C_19 
ROOT
HETATM    1  C   UNL     1      25.813  43.390  50.440  1.00  0.00     0.096 A 
HETATM    2  C   UNL     1      25.771  43.767  51.769  1.00  0.00     0.138 A 
HETATM    3  N   UNL     1      25.569  45.126  51.765  1.00  0.00    -0.240 N 
HETATM    4  C   UNL     1      25.402  45.944  52.951  1.00  0.00     0.221 C 
HETATM    5  C   UNL     1      25.203  45.058  54.195  1.00  0.00     0.066 C 
HETATM    6  C   UNL     1      26.073  43.788  54.204  1.00  0.00     0.118 C 
HETATM    7  N   UNL     1      25.893  43.074  52.933  1.00  0.00    -0.365 N 
HETATM    8  N   UNL     1      25.475  45.656  50.536  1.00  0.00    -0.181 NA
HETATM    9  C   UNL     1      25.676  44.608  49.732  1.00  0.00     0.160 A 
HETATM   10  H   UNL     1      26.356  42.162  52.924  1.00  0.00     0.161 HD
ENDROOT
BRANCH   1  11
HETATM   11  C   UNL     1      25.951  42.064  49.864  1.00  0.00     0.261 C 
HETATM   12  N   UNL     1      27.268  41.723  49.617  1.00  0.00    -0.323 N 
HETATM   13  H   UNL     1      27.956  42.389  49.950  1.00  0.00     0.169 HD
HETATM   14  O   UNL     1      24.973  41.345  49.703  1.00  0.00    -0.267 OA
BRANCH  12  15
HETATM   15  C   UNL     1      27.764  40.506  49.112  1.00  0.00     0.035 A 
HETATM   16  C   UNL     1      28.305  39.496  49.911  1.00  0.00     0.039 A 
HETATM   17  C   UNL     1      28.789  38.302  49.344  1.00  0.00    -0.028 A 
HETATM   18  C   UNL     1      28.720  38.139  47.954  1.00  0.00     0.010 A 
HETATM   19  C   UNL     1      28.179  39.139  47.150  1.00  0.00     0.003 A 
HETATM   20  C   UNL     1      27.694  40.312  47.728  1.00  0.00     0.029 A 
BRANCH  17  21
HETATM   21  C   UNL     1      29.326  37.209  50.244  1.00  0.00     0.147 C 
HETATM   22  C   UNL     1      30.059  37.796  51.444  1.00  0.00     0.044 C 
BRANCH  21  23
HETATM   23  O   UNL     1      28.258  36.385  50.709  1.00  0.00    -0.391 OA
HETATM   24  H   UNL     1      27.675  36.225  49.949  1.00  0.00     0.210 HD
ENDBRANCH  21  23
ENDBRANCH  17  21
ENDBRANCH  12  15
ENDBRANCH   1  11
BRANCH   4  25
HETATM   25  C   UNL     1      26.537  46.940  53.081  1.00  0.00     0.409 C 
HETATM   26  F   UNL     1      26.570  47.584  54.261  1.00  0.00    -0.169 F 
HETATM   27  F   UNL     1      27.745  46.360  52.900  1.00  0.00    -0.169 F 
HETATM   28  F   UNL     1      26.431  47.889  52.111  1.00  0.00    -0.169 F 
ENDBRANCH   4  25
BRANCH   6  29
HETATM   29  C   UNL     1      27.529  44.012  54.582  1.00  0.00    -0.035 A 
HETATM   30  C   UNL     1      28.518  43.184  54.014  1.00  0.00     0.009 A 
HETATM   31  C   UNL     1      29.867  43.340  54.340  1.00  0.00     0.001 A 
HETATM   32  C   UNL     1      30.259  44.335  55.228  1.00  0.00     0.000 A 
HETATM   33  C   UNL     1      29.303  45.178  55.787  1.00  0.00     0.001 A 
HETATM   34  C   UNL     1      27.953  45.022  55.464  1.00  0.00     0.009 A 
ENDBRANCH   6  29
TORSDOF 6
ENDMDL
MODEL 5
REMARK VINA RESULT:      -8.3      4.757     10.075
REMARK  6 active torsions:
REMARK  status: ('A' for Active; 'I' for Inactive)
REMARK    1  A    between atoms: C_2  and  O_3 
REMARK    2  A    between atoms: C_2  and  C_4 
REMARK    3  A    between atoms: C_6  and  N_7 
REMARK       I    between atoms: N_7  and  C_8 
REMARK    4  A    between atoms: C_8  and  C_9 
REMARK    5  A    between atoms: C_12  and  C_13 
REMARK    6  A    between atoms: C_18  and  C_19 
ROOT
HETATM    1  C   UNL     1      20.273  48.266  48.530  1.00  0.00     0.096 A 
HETATM    2  C   UNL     1      19.533  49.424  48.373  1.00  0.00     0.138 A 
HETATM    3  N   UNL     1      18.271  49.124  48.826  1.00  0.00    -0.240 N 
HETATM    4  C   UNL     1      17.171  50.065  48.902  1.00  0.00     0.221 C 
HETATM    5  C   UNL     1      17.673  51.503  48.672  1.00  0.00     0.066 C 
HETATM    6  C   UNL     1      18.764  51.619  47.593  1.00  0.00     0.118 C 
HETATM    7  N   UNL     1      19.835  50.658  47.887  1.00  0.00    -0.365 N 
HETATM    8  N   UNL     1      18.139  47.863  49.266  1.00  0.00    -0.181 NA
HETATM    9  C   UNL     1      19.342  47.328  49.036  1.00  0.00     0.160 A 
HETATM   10  H   UNL     1      20.644  50.766  47.271  1.00  0.00     0.161 HD
ENDROOT
BRANCH   1  11
HETATM   11  C   UNL     1      21.681  48.032  48.261  1.00  0.00     0.261 C 
HETATM   12  N   UNL     1      22.483  48.277  49.360  1.00  0.00    -0.323 N 
HETATM   13  H   UNL     1      21.986  48.491  50.218  1.00  0.00     0.169 HD
HETATM   14  O   UNL     1      22.049  47.598  47.176  1.00  0.00    -0.267 OA
BRANCH  12  15
HETATM   15  C   UNL     1      23.877  48.107  49.466  1.00  0.00     0.035 A 
HETATM   16  C   UNL     1      24.482  46.978  50.022  1.00  0.00     0.039 A 
HETATM   17  C   UNL     1      25.884  46.872  50.103  1.00  0.00    -0.028 A 
HETATM   18  C   UNL     1      26.670  47.923  49.613  1.00  0.00     0.010 A 
HETATM   19  C   UNL     1      26.075  49.050  49.054  1.00  0.00     0.003 A 
HETATM   20  C   UNL     1      24.685  49.137  48.972  1.00  0.00     0.029 A 
BRANCH  17  21
HETATM   21  C   UNL     1      26.507  45.613  50.669  1.00  0.00     0.147 C 
HETATM   22  C   UNL     1      25.440  44.651  51.177  1.00  0.00     0.044 C 
BRANCH  21  23
HETATM   23  O   UNL     1      27.287  44.957  49.671  1.00  0.00    -0.391 OA
HETATM   24  H   UNL     1      27.896  44.360  50.136  1.00  0.00     0.210 HD
ENDBRANCH  21  23
ENDBRANCH  17  21
ENDBRANCH  12  15
ENDBRANCH   1  11
BRANCH   4  25
HETATM   25  C   UNL     1      16.046  49.652  47.975  1.00  0.00     0.409 C 
HETATM   26  F   UNL     1      15.289  50.675  47.540  1.00  0.00    -0.169 F 
HETATM   27  F   UNL     1      16.500  48.990  46.887  1.00  0.00    -0.169 F 
HETATM   28  F   UNL     1      15.215  48.786  48.617  1.00  0.00    -0.169 F 
ENDBRANCH   4  25
BRANCH   6  29
HETATM   29  C   UNL     1      18.258  51.555  46.160  1.00  0.00    -0.035 A 
HETATM   30  C   UNL     1      17.287  52.483  45.736  1.00  0.00     0.009 A 
HETATM   31  C   UNL     1      16.780  52.456  44.434  1.00  0.00     0.001 A 
HETATM   32  C   UNL     1      17.242  51.510  43.526  1.00  0.00     0.000 A 
HETATM   33  C   UNL     1      18.215  50.595  43.916  1.00  0.00     0.001 A 
HETATM   34  C   UNL     1      18.721  50.620  45.218  1.00  0.00     0.009 A 
ENDBRANCH   6  29
TORSDOF 6
ENDMDL
MODEL 6
REMARK VINA RESULT:      -8.3     13.006     15.528
REMARK  6 active torsions:
REMARK  status: ('A' for Active; 'I' for Inactive)
REMARK    1  A    between atoms: C_2  and  O_3 
REMARK    2  A    between atoms: C_2  and  C_4 
REMARK    3  A    between atoms: C_6  and  N_7 
REMARK       I    between atoms: N_7  and  C_8 
REMARK    4  A    between atoms: C_8  and  C_9 
REMARK    5  A    between atoms: C_12  and  C_13 
REMARK    6  A    between atoms: C_18  and  C_19 
ROOT
HETATM    1  C   UNL     1      33.422  50.269  42.168  1.00  0.00     0.096 A 
HETATM    2  C   UNL     1      32.072  50.027  41.996  1.00  0.00     0.138 A 
HETATM    3  N   UNL     1      31.992  48.854  41.283  1.00  0.00    -0.240 N 
HETATM    4  C   UNL     1      30.757  48.186  40.921  1.00  0.00     0.221 C 
HETATM    5  C   UNL     1      29.565  48.808  41.673  1.00  0.00     0.066 C 
HETATM    6  C   UNL     1      29.645  50.339  41.814  1.00  0.00     0.118 C 
HETATM    7  N   UNL     1      30.954  50.702  42.374  1.00  0.00    -0.365 N 
HETATM    8  N   UNL     1      33.186  48.319  40.985  1.00  0.00    -0.181 NA
HETATM    9  C   UNL     1      34.054  49.208  41.477  1.00  0.00     0.160 A 
HETATM   10  H   UNL     1      31.024  51.696  42.599  1.00  0.00     0.161 HD
ENDROOT
BRANCH   1  11
HETATM   11  C   UNL     1      34.078  51.344  42.893  1.00  0.00     0.261 C 
HETATM   12  N   UNL     1      35.424  51.448  42.593  1.00  0.00    -0.323 N 
HETATM   13  H   UNL     1      35.749  50.836  41.853  1.00  0.00     0.169 HD
HETATM   14  O   UNL     1      33.438  52.088  43.625  1.00  0.00    -0.267 OA
BRANCH  12  15
HETATM   15  C   UNL     1      36.343  52.399  43.073  1.00  0.00     0.035 A 
HETATM   16  C   UNL     1      36.670  52.553  44.423  1.00  0.00     0.039 A 
HETATM   17  C   UNL     1      37.596  53.528  44.839  1.00  0.00    -0.028 A 
HETATM   18  C   UNL     1      38.190  54.351  43.873  1.00  0.00     0.010 A 
HETATM   19  C   UNL     1      37.873  54.202  42.526  1.00  0.00     0.003 A 
HETATM   20  C   UNL     1      36.961  53.225  42.127  1.00  0.00     0.029 A 
BRANCH  17  21
HETATM   21  C   UNL     1      37.962  53.635  46.304  1.00  0.00     0.147 C 
HETATM   22  C   UNL     1      39.366  53.098  46.561  1.00  0.00     0.044 C 
BRANCH  21  23
HETATM   23  O   UNL     1      37.901  54.995  46.730  1.00  0.00    -0.391 OA
HETATM   24  H   UNL     1      37.214  55.426  46.196  1.00  0.00     0.210 HD
ENDBRANCH  21  23
ENDBRANCH  17  21
ENDBRANCH  12  15
ENDBRANCH   1  11
BRANCH   4  25
HETATM   25  C   UNL     1      30.585  48.153  39.417  1.00  0.00     0.409 C 
HETATM   26  F   UNL     1      31.108  49.216  38.781  1.00  0.00    -0.169 F 
HETATM   27  F   UNL     1      31.128  47.043  38.867  1.00  0.00    -0.169 F 
HETATM   28  F   UNL     1      29.261  48.113  39.105  1.00  0.00    -0.169 F 
ENDBRANCH   4  25
BRANCH   6  29
HETATM   29  C   UNL     1      29.276  51.117  40.561  1.00  0.00    -0.035 A 
HETATM   30  C   UNL     1      28.073  50.812  39.895  1.00  0.00     0.009 A 
HETATM   31  C   UNL     1      27.697  51.489  38.732  1.00  0.00     0.001 A 
HETATM   32  C   UNL     1      28.508  52.494  38.218  1.00  0.00     0.000 A 
HETATM   33  C   UNL     1      29.692  52.827  38.869  1.00  0.00     0.001 A 
HETATM   34  C   UNL     1      30.071  52.150  40.031  1.00  0.00     0.009 A 
ENDBRANCH   6  29
TORSDOF 6
ENDMDL
MODEL 7
REMARK VINA RESULT:      -8.2      4.913      7.698
REMARK  6 active torsions:
REMARK  status: ('A' for Active; 'I' for Inactive)
REMARK    1  A    between atoms: C_2  and  O_3 
REMARK    2  A    between atoms: C_2  and  C_4 
REMARK    3  A    between atoms: C_6  and  N_7 
REMARK       I    between atoms: N_7  and  C_8 
REMARK    4  A    between atoms: C_8  and  C_9 
REMARK    5  A    between atoms: C_12  and  C_13 
REMARK    6  A    between atoms: C_18  and  C_19 
ROOT
HETATM    1  C   UNL     1      27.106  41.291  50.986  1.00  0.00     0.096 A 
HETATM    2  C   UNL     1      26.945  40.252  50.089  1.00  0.00     0.138 A 
HETATM    3  N   UNL     1      27.992  39.393  50.321  1.00  0.00    -0.240 N 
HETATM    4  C   UNL     1      28.196  38.128  49.642  1.00  0.00     0.221 C 
HETATM    5  C   UNL     1      26.942  37.743  48.832  1.00  0.00     0.066 C 
HETATM    6  C   UNL     1      26.257  38.933  48.137  1.00  0.00     0.118 C 
HETATM    7  N   UNL     1      26.020  39.994  49.125  1.00  0.00    -0.365 N 
HETATM    8  N   UNL     1      28.816  39.797  51.301  1.00  0.00    -0.181 NA
HETATM    9  C   UNL     1      28.305  40.976  51.667  1.00  0.00     0.160 A 
HETATM   10  H   UNL     1      25.464  40.765  48.750  1.00  0.00     0.161 HD
ENDROOT
BRANCH   1  11
HETATM   11  C   UNL     1      26.257  42.448  51.215  1.00  0.00     0.261 C 
HETATM   12  N   UNL     1      26.965  43.554  51.648  1.00  0.00    -0.323 N 
HETATM   13  H   UNL     1      27.974  43.444  51.657  1.00  0.00     0.169 HD
HETATM   14  O   UNL     1      25.058  42.405  50.966  1.00  0.00    -0.267 OA
BRANCH  12  15
HETATM   15  C   UNL     1      26.471  44.844  51.916  1.00  0.00     0.035 A 
HETATM   16  C   UNL     1      26.575  45.473  53.159  1.00  0.00     0.039 A 
HETATM   17  C   UNL     1      26.055  46.765  53.364  1.00  0.00    -0.028 A 
HETATM   18  C   UNL     1      25.425  47.417  52.296  1.00  0.00     0.010 A 
HETATM   19  C   UNL     1      25.319  46.798  51.053  1.00  0.00     0.003 A 
HETATM   20  C   UNL     1      25.849  45.522  50.862  1.00  0.00     0.029 A 
BRANCH  17  21
HETATM   21  C   UNL     1      26.228  47.436  54.710  1.00  0.00     0.147 C 
HETATM   22  C   UNL     1      27.697  47.732  54.993  1.00  0.00     0.044 C 
BRANCH  21  23
HETATM   23  O   UNL     1      25.494  48.658  54.750  1.00  0.00    -0.391 OA
HETATM   24  H   UNL     1      24.730  48.547  54.160  1.00  0.00     0.210 HD
ENDBRANCH  21  23
ENDBRANCH  17  21
ENDBRANCH  12  15
ENDBRANCH   1  11
BRANCH   4  25
HETATM   25  C   UNL     1      29.471  38.155  48.826  1.00  0.00     0.409 C 
HETATM   26  F   UNL     1      30.559  37.731  49.493  1.00  0.00    -0.169 F 
HETATM   27  F   UNL     1      29.369  37.413  47.699  1.00  0.00    -0.169 F 
HETATM   28  F   UNL     1      29.727  39.425  48.412  1.00  0.00    -0.169 F 
ENDBRANCH   4  25
BRANCH   6  29
HETATM   29  C   UNL     1      26.943  39.417  46.869  1.00  0.00    -0.035 A 
HETATM   30  C   UNL     1      27.040  38.542  45.769  1.00  0.00     0.009 A 
HETATM   31  C   UNL     1      27.673  38.935  44.587  1.00  0.00     0.001 A 
HETATM   32  C   UNL     1      28.211  40.212  44.475  1.00  0.00     0.000 A 
HETATM   33  C   UNL     1      28.110  41.100  45.541  1.00  0.00     0.001 A 
HETATM   34  C   UNL     1      27.479  40.708  46.725  1.00  0.00     0.009 A 
ENDBRANCH   6  29
TORSDOF 6
ENDMDL
MODEL 8
REMARK VINA RESULT:      -8.1      9.342     14.581
REMARK  6 active torsions:
REMARK  status: ('A' for Active; 'I' for Inactive)
REMARK    1  A    between atoms: C_2  and  O_3 
REMARK    2  A    between atoms: C_2  and  C_4 
REMARK    3  A    between atoms: C_6  and  N_7 
REMARK       I    between atoms: N_7  and  C_8 
REMARK    4  A    between atoms: C_8  and  C_9 
REMARK    5  A    between atoms: C_12  and  C_13 
REMARK    6  A    between atoms: C_18  and  C_19 
ROOT
HETATM    1  C   UNL     1      14.536  54.618  49.974  1.00  0.00     0.096 A 
HETATM    2  C   UNL     1      13.806  55.231  50.975  1.00  0.00     0.138 A 
HETATM    3  N   UNL     1      13.218  56.326  50.390  1.00  0.00    -0.240 N 
HETATM    4  C   UNL     1      12.310  57.238  51.058  1.00  0.00     0.221 C 
HETATM    5  C   UNL     1      11.873  56.663  52.420  1.00  0.00     0.066 C 
HETATM    6  C   UNL     1      12.997  55.938  53.181  1.00  0.00     0.118 C 
HETATM    7  N   UNL     1      13.617  54.947  52.292  1.00  0.00    -0.365 N 
HETATM    8  N   UNL     1      13.510  56.466  49.087  1.00  0.00    -0.181 NA
HETATM    9  C   UNL     1      14.353  55.457  48.850  1.00  0.00     0.160 A 
HETATM   10  H   UNL     1      14.294  54.352  52.775  1.00  0.00     0.161 HD
ENDROOT
BRANCH   1  11
HETATM   11  C   UNL     1      15.312  53.391  50.023  1.00  0.00     0.261 C 
HETATM   12  N   UNL     1      16.544  53.512  49.406  1.00  0.00    -0.323 N 
HETATM   13  H   UNL     1      16.779  54.447  49.092  1.00  0.00     0.169 HD
HETATM   14  O   UNL     1      14.894  52.407  50.621  1.00  0.00    -0.267 OA
BRANCH  12  15
HETATM   15  C   UNL     1      17.560  52.543  49.311  1.00  0.00     0.035 A 
HETATM   16  C   UNL     1      17.505  51.295  49.936  1.00  0.00     0.039 A 
HETATM   17  C   UNL     1      18.559  50.370  49.806  1.00  0.00    -0.028 A 
HETATM   18  C   UNL     1      19.674  50.722  49.034  1.00  0.00     0.010 A 
HETATM   19  C   UNL     1      19.736  51.963  48.405  1.00  0.00     0.003 A 
HETATM   20  C   UNL     1      18.680  52.864  48.535  1.00  0.00     0.029 A 
BRANCH  17  21
HETATM   21  C   UNL     1      18.444  49.008  50.457  1.00  0.00     0.147 C 
HETATM   22  C   UNL     1      19.286  47.973  49.719  1.00  0.00     0.044 C 
BRANCH  21  23
HETATM   23  O   UNL     1      18.875  49.073  51.815  1.00  0.00    -0.391 OA
HETATM   24  H   UNL     1      19.674  48.526  51.884  1.00  0.00     0.210 HD
ENDBRANCH  21  23
ENDBRANCH  17  21
ENDBRANCH  12  15
ENDBRANCH   1  11
BRANCH   4  25
HETATM   25  C   UNL     1      12.906  58.628  51.140  1.00  0.00     0.409 C 
HETATM   26  F   UNL     1      12.442  59.365  52.165  1.00  0.00    -0.169 F 
HETATM   27  F   UNL     1      14.255  58.597  51.239  1.00  0.00    -0.169 F 
HETATM   28  F   UNL     1      12.632  59.315  49.999  1.00  0.00    -0.169 F 
ENDBRANCH   4  25
BRANCH   6  29
HETATM   29  C   UNL     1      13.996  56.852  53.874  1.00  0.00    -0.035 A 
HETATM   30  C   UNL     1      13.517  57.867  54.725  1.00  0.00     0.009 A 
HETATM   31  C   UNL     1      14.393  58.741  55.373  1.00  0.00     0.001 A 
HETATM   32  C   UNL     1      15.766  58.612  55.194  1.00  0.00     0.000 A 
HETATM   33  C   UNL     1      16.264  57.604  54.373  1.00  0.00     0.001 A 
HETATM   34  C   UNL     1      15.388  56.730  53.723  1.00  0.00     0.009 A 
ENDBRANCH   6  29
TORSDOF 6
ENDMDL
MODEL 9
REMARK VINA RESULT:      -8.1      1.820      2.146
REMARK  6 active torsions:
REMARK  status: ('A' for Active; 'I' for Inactive)
REMARK    1  A    between atoms: C_2  and  O_3 
REMARK    2  A    between atoms: C_2  and  C_4 
REMARK    3  A    between atoms: C_6  and  N_7 
REMARK       I    between atoms: N_7  and  C_8 
REMARK    4  A    between atoms: C_8  and  C_9 
REMARK    5  A    between atoms: C_12  and  C_13 
REMARK    6  A    between atoms: C_18  and  C_19 
ROOT
HETATM    1  C   UNL     1      22.931  46.589  48.779  1.00  0.00     0.096 A 
HETATM    2  C   UNL     1      24.162  46.103  49.180  1.00  0.00     0.138 A 
HETATM    3  N   UNL     1      24.006  44.743  49.293  1.00  0.00    -0.240 N 
HETATM    4  C   UNL     1      25.064  43.813  49.638  1.00  0.00     0.221 C 
HETATM    5  C   UNL     1      26.436  44.512  49.587  1.00  0.00     0.066 C 
HETATM    6  C   UNL     1      26.423  45.955  50.122  1.00  0.00     0.118 C 
HETATM    7  N   UNL     1      25.351  46.705  49.452  1.00  0.00    -0.365 N 
HETATM    8  N   UNL     1      22.771  44.312  48.994  1.00  0.00    -0.181 NA
HETATM    9  C   UNL     1      22.106  45.441  48.733  1.00  0.00     0.160 A 
HETATM   10  H   UNL     1      25.365  47.701  49.680  1.00  0.00     0.161 HD
ENDROOT
BRANCH   1  11
HETATM   11  C   UNL     1      22.540  47.951  48.458  1.00  0.00     0.261 C 
HETATM   12  N   UNL     1      21.226  48.223  48.790  1.00  0.00    -0.323 N 
HETATM   13  H   UNL     1      20.745  47.482  49.289  1.00  0.00     0.169 HD
HETATM   14  O   UNL     1      23.354  48.747  48.007  1.00  0.00    -0.267 OA
BRANCH  12  15
HETATM   15  C   UNL     1      20.539  49.444  48.662  1.00  0.00     0.035 A 
HETATM   16  C   UNL     1      19.746  49.779  47.561  1.00  0.00     0.039 A 
HETATM   17  C   UNL     1      19.087  51.021  47.491  1.00  0.00    -0.028 A 
HETATM   18  C   UNL     1      19.239  51.926  48.550  1.00  0.00     0.010 A 
HETATM   19  C   UNL     1      20.025  51.600  49.653  1.00  0.00     0.003 A 
HETATM   20  C   UNL     1      20.663  50.361  49.712  1.00  0.00     0.029 A 
BRANCH  17  21
HETATM   21  C   UNL     1      18.198  51.332  46.306  1.00  0.00     0.147 C 
HETATM   22  C   UNL     1      17.061  50.322  46.192  1.00  0.00     0.044 C 
BRANCH  21  23
HETATM   23  O   UNL     1      17.645  52.640  46.433  1.00  0.00    -0.391 OA
HETATM   24  H   UNL     1      18.371  53.227  46.703  1.00  0.00     0.210 HD
ENDBRANCH  21  23
ENDBRANCH  17  21
ENDBRANCH  12  15
ENDBRANCH   1  11
BRANCH   4  25
HETATM   25  C   UNL     1      24.770  43.130  50.958  1.00  0.00     0.409 C 
HETATM   26  F   UNL     1      24.272  43.949  51.901  1.00  0.00    -0.169 F 
HETATM   27  F   UNL     1      23.907  42.099  50.817  1.00  0.00    -0.169 F 
HETATM   28  F   UNL     1      25.913  42.591  51.462  1.00  0.00    -0.169 F 
ENDBRANCH   4  25
BRANCH   6  29
HETATM   29  C   UNL     1      26.403  46.077  51.637  1.00  0.00    -0.035 A 
HETATM   30  C   UNL     1      27.186  45.191  52.404  1.00  0.00     0.009 A 
HETATM   31  C   UNL     1      27.191  45.253  53.800  1.00  0.00     0.001 A 
HETATM   32  C   UNL     1      26.426  46.210  54.458  1.00  0.00     0.000 A 
HETATM   33  C   UNL     1      25.661  47.109  53.721  1.00  0.00     0.001 A 
HETATM   34  C   UNL     1      25.652  47.046  52.325  1.00  0.00     0.009 A 
ENDBRANCH   6  29
TORSDOF 6
ENDMDL
MODEL 10
REMARK VINA RESULT:      -8.0     19.833     23.450
REMARK  6 active torsions:
REMARK  status: ('A' for Active; 'I' for Inactive)
REMARK    1  A    between atoms: C_2  and  O_3 
REMARK    2  A    between atoms: C_2  and  C_4 
REMARK    3  A    between atoms: C_6  and  N_7 
REMARK       I    between atoms: N_7  and  C_8 
REMARK    4  A    between atoms: C_8  and  C_9 
REMARK    5  A    between atoms: C_12  and  C_13 
REMARK    6  A    between atoms: C_18  and  C_19 
ROOT
HETATM    1  C   UNL     1      39.715  46.238  65.279  1.00  0.00     0.096 A 
HETATM    2  C   UNL     1      39.159  45.289  64.441  1.00  0.00     0.138 A 
HETATM    3  N   UNL     1      37.938  44.978  64.988  1.00  0.00    -0.240 N 
HETATM    4  C   UNL     1      36.977  44.060  64.407  1.00  0.00     0.221 C 
HETATM    5  C   UNL     1      37.382  43.696  62.966  1.00  0.00     0.066 C 
HETATM    6  C   UNL     1      38.897  43.512  62.770  1.00  0.00     0.118 C 
HETATM    7  N   UNL     1      39.597  44.689  63.302  1.00  0.00    -0.365 N 
HETATM    8  N   UNL     1      37.660  45.654  66.114  1.00  0.00    -0.181 NA
HETATM    9  C   UNL     1      38.764  46.380  66.317  1.00  0.00     0.160 A 
HETATM   10  H   UNL     1      40.598  44.679  63.097  1.00  0.00     0.161 HD
ENDROOT
BRANCH   1  11
HETATM   11  C   UNL     1      40.972  46.953  65.152  1.00  0.00     0.261 C 
HETATM   12  N   UNL     1      41.987  46.391  65.905  1.00  0.00    -0.323 N 
HETATM   13  H   UNL     1      41.750  45.517  66.363  1.00  0.00     0.169 HD
HETATM   14  O   UNL     1      41.078  47.906  64.389  1.00  0.00    -0.267 OA
BRANCH  12  15
HETATM   15  C   UNL     1      43.333  46.796  65.978  1.00  0.00     0.035 A 
HETATM   16  C   UNL     1      44.347  46.270  65.175  1.00  0.00     0.039 A 
HETATM   17  C   UNL     1      45.677  46.715  65.301  1.00  0.00    -0.028 A 
HETATM   18  C   UNL     1      45.972  47.700  66.251  1.00  0.00     0.010 A 
HETATM   19  C   UNL     1      44.966  48.232  67.055  1.00  0.00     0.003 A 
HETATM   20  C   UNL     1      43.652  47.789  66.911  1.00  0.00     0.029 A 
BRANCH  17  21
HETATM   21  C   UNL     1      46.743  46.158  64.381  1.00  0.00     0.147 C 
HETATM   22  C   UNL     1      47.396  44.918  64.982  1.00  0.00     0.044 C 
BRANCH  21  23
HETATM   23  O   UNL     1      46.175  45.816  63.118  1.00  0.00    -0.391 OA
HETATM   24  H   UNL     1      46.899  45.477  62.566  1.00  0.00     0.210 HD
ENDBRANCH  21  23
ENDBRANCH  17  21
ENDBRANCH  12  15
ENDBRANCH   1  11
BRANCH   4  25
HETATM   25  C   UNL     1      36.766  42.861  65.308  1.00  0.00     0.409 C 
HETATM   26  F   UNL     1      37.828  42.556  66.074  1.00  0.00    -0.169 F 
HETATM   27  F   UNL     1      35.704  43.023  66.130  1.00  0.00    -0.169 F 
HETATM   28  F   UNL     1      36.489  41.762  64.556  1.00  0.00    -0.169 F 
ENDBRANCH   4  25
BRANCH   6  29
HETATM   29  C   UNL     1      39.452  42.188  63.273  1.00  0.00    -0.035 A 
HETATM   30  C   UNL     1      39.024  40.992  62.666  1.00  0.00     0.009 A 
HETATM   31  C   UNL     1      39.494  39.750  63.101  1.00  0.00     0.001 A 
HETATM   32  C   UNL     1      40.411  39.679  64.143  1.00  0.00     0.000 A 
HETATM   33  C   UNL     1      40.864  40.848  64.746  1.00  0.00     0.001 A 
HETATM   34  C   UNL     1      40.394  42.091  64.313  1.00  0.00     0.009 A 
ENDBRANCH   6  29
TORSDOF 6
ENDMDL
