MODEL 1
REMARK VINA RESULT:      -9.9      0.000      0.000
REMARK  6 active torsions:
REMARK  status: ('A' for Active; 'I' for Inactive)
REMARK    1  A    between atoms: C_9  and  C_10 
REMARK    2  A    between atoms: C_10  and  N_11 
REMARK       I    between atoms: N_11  and  C_12 
REMARK    3  A    between atoms: N_11  and  C_22 
REMARK    4  A    between atoms: C_12  and  C_13 
REMARK    5  A    between atoms: C_15  and  O_16 
REMARK    6  A    between atoms: C_22  and  C_23 
ROOT
HETATM    1  N   UNL     1      25.982  45.696  50.980  1.00  0.00    -0.341 N 
HETATM    2  C   UNL     1      25.909  47.079  51.189  1.00  0.00     0.254 C 
HETATM    3  O   UNL     1      25.818  47.582  52.309  1.00  0.00    -0.267 OA
ENDROOT
BRANCH   1   4
HETATM    4  C   UNL     1      25.737  44.850  52.159  1.00  0.00     0.170 C 
BRANCH   4   5
HETATM    5  C   UNL     1      26.965  44.606  52.998  1.00  0.00     0.029 A 
HETATM    6  C   UNL     1      27.781  43.443  52.520  1.00  0.00     0.253 A 
HETATM    7  N   UNL     1      28.897  43.116  53.238  1.00  0.00    -0.322 N 
HETATM    8  O   UNL     1      27.477  42.808  51.513  1.00  0.00    -0.268 OA
HETATM    9  C   UNL     1      29.318  43.810  54.375  1.00  0.00     0.045 A 
HETATM   10  H   UNL     1      29.421  42.322  52.899  1.00  0.00     0.169 HD
HETATM   11  C   UNL     1      28.575  44.908  54.818  1.00  0.00    -0.008 A 
HETATM   12  C   UNL     1      30.467  43.404  55.050  1.00  0.00     0.031 A 
HETATM   13  C   UNL     1      28.994  45.603  55.958  1.00  0.00     0.020 A 
HETATM   14  C   UNL     1      27.370  45.294  54.082  1.00  0.00     0.028 A 
HETATM   15  C   UNL     1      30.142  45.196  56.656  1.00  0.00    -0.061 A 
HETATM   16  C   UNL     1      30.610  45.953  57.864  1.00  0.00     0.048 C 
HETATM   17  C   UNL     1      30.880  44.101  56.187  1.00  0.00     0.009 A 
ENDBRANCH   4   5
ENDBRANCH   1   4
BRANCH   1  18
HETATM   18  C   UNL     1      25.813  45.039  49.672  1.00  0.00     0.158 C 
BRANCH  18  19
HETATM   19  C   UNL     1      24.615  44.067  49.620  1.00  0.00     0.139 C 
HETATM   20  O   UNL     1      24.641  43.331  48.381  1.00  0.00    -0.384 OA
HETATM   21  C   UNL     1      23.593  43.805  47.525  1.00  0.00     0.168 C 
HETATM   22  C   UNL     1      23.033  45.057  48.163  1.00  0.00     0.029 C 
HETATM   23  C   UNL     1      23.280  44.801  49.629  1.00  0.00     0.035 C 
ENDBRANCH  18  19
ENDBRANCH   1  18
BRANCH   2  24
HETATM   24  C   UNL     1      25.902  48.022  50.047  1.00  0.00     0.034 A 
HETATM   25  C   UNL     1      24.661  48.310  49.460  1.00  0.00     0.053 A 
HETATM   26  C   UNL     1      24.580  49.229  48.416  1.00  0.00     0.069 A 
HETATM   27  C   UNL     1      25.747  49.831  47.940  1.00  0.00     0.037 A 
HETATM   28  C   UNL     1      26.979  49.572  48.546  1.00  0.00     0.004 A 
HETATM   29  C   UNL     1      27.055  48.686  49.620  1.00  0.00     0.017 A 
BRANCH  26  30
HETATM   30  O   UNL     1      23.428  49.601  47.780  1.00  0.00    -0.356 OA
HETATM   31  C   UNL     1      22.829  50.808  48.247  1.00  0.00     0.210 C 
ENDBRANCH  26  30
ENDBRANCH   2  24
TORSDOF 6
ENDMDL
MODEL 2
REMARK VINA RESULT:      -9.4      2.451      5.564
REMARK  6 active torsions:
REMARK  status: ('A' for Active; 'I' for Inactive)
REMARK    1  A    between atoms: C_9  and  C_10 
REMARK    2  A    between atoms: C_10  and  N_11 
REMARK       I    between atoms: N_11  and  C_12 
REMARK    3  A    between atoms: N_11  and  C_22 
REMARK    4  A    between atoms: C_12  and  C_13 
REMARK    5  A    between atoms: C_15  and  O_16 
REMARK    6  A    between atoms: C_22  and  C_23 
ROOT
HETATM    1  N   UNL     1      26.099  45.194  51.878  1.00  0.00    -0.341 N 
HETATM    2  C   UNL     1      25.434  43.980  52.096  1.00  0.00     0.254 C 
HETATM    3  O   UNL     1      24.639  43.809  53.020  1.00  0.00    -0.267 OA
ENDROOT
BRANCH   1   4
HETATM    4  C   UNL     1      25.958  46.207  52.937  1.00  0.00     0.170 C 
BRANCH   4   5
HETATM    5  C   UNL     1      26.952  46.055  54.058  1.00  0.00     0.029 A 
HETATM    6  C   UNL     1      26.798  47.099  55.125  1.00  0.00     0.253 A 
HETATM    7  N   UNL     1      27.680  47.070  56.169  1.00  0.00    -0.322 N 
HETATM    8  O   UNL     1      25.908  47.945  55.079  1.00  0.00    -0.268 OA
HETATM    9  C   UNL     1      28.697  46.122  56.299  1.00  0.00     0.045 A 
HETATM   10  H   UNL     1      27.559  47.792  56.865  1.00  0.00     0.169 HD
HETATM   11  C   UNL     1      28.837  45.133  55.321  1.00  0.00    -0.008 A 
HETATM   12  C   UNL     1      29.555  46.170  57.395  1.00  0.00     0.031 A 
HETATM   13  C   UNL     1      29.857  44.184  55.448  1.00  0.00     0.020 A 
HETATM   14  C   UNL     1      27.917  45.125  54.181  1.00  0.00     0.028 A 
HETATM   15  C   UNL     1      30.737  44.229  56.540  1.00  0.00    -0.061 A 
HETATM   16  C   UNL     1      31.817  43.198  56.695  1.00  0.00     0.048 C 
HETATM   17  C   UNL     1      30.571  45.221  57.516  1.00  0.00     0.009 A 
ENDBRANCH   4   5
ENDBRANCH   1   4
BRANCH   1  18
HETATM   18  C   UNL     1      27.249  45.366  50.974  1.00  0.00     0.158 C 
BRANCH  18  19
HETATM   19  C   UNL     1      26.864  45.911  49.582  1.00  0.00     0.139 C 
HETATM   20  O   UNL     1      27.982  46.619  49.012  1.00  0.00    -0.384 OA
HETATM   21  C   UNL     1      27.714  48.028  49.035  1.00  0.00     0.168 C 
HETATM   22  C   UNL     1      26.471  48.227  49.874  1.00  0.00     0.029 C 
HETATM   23  C   UNL     1      25.734  46.928  49.658  1.00  0.00     0.035 C 
ENDBRANCH  18  19
ENDBRANCH   1  18
BRANCH   2  24
HETATM   24  C   UNL     1      25.689  42.808  51.228  1.00  0.00     0.034 A 
HETATM   25  C   UNL     1      26.841  42.053  51.489  1.00  0.00     0.053 A 
HETATM   26  C   UNL     1      27.109  40.908  50.742  1.00  0.00     0.069 A 
HETATM   27  C   UNL     1      26.240  40.541  49.712  1.00  0.00     0.037 A 
HETATM   28  C   UNL     1      25.073  41.272  49.473  1.00  0.00     0.004 A 
HETATM   29  C   UNL     1      24.781  42.393  50.249  1.00  0.00     0.017 A 
BRANCH  26  30
HETATM   30  O   UNL     1      28.189  40.086  50.918  1.00  0.00    -0.356 OA
HETATM   31  C   UNL     1      28.498  39.233  49.819  1.00  0.00     0.210 C 
ENDBRANCH  26  30
ENDBRANCH   2  24
TORSDOF 6
ENDMDL
MODEL 3
REMARK VINA RESULT:      -9.0      3.487      6.594
REMARK  6 active torsions:
REMARK  status: ('A' for Active; 'I' for Inactive)
REMARK    1  A    between atoms: C_9  and  C_10 
REMARK    2  A    between atoms: C_10  and  N_11 
REMARK       I    between atoms: N_11  and  C_12 
REMARK    3  A    between atoms: N_11  and  C_22 
REMARK    4  A    between atoms: C_12  and  C_13 
REMARK    5  A    between atoms: C_15  and  O_16 
REMARK    6  A    between atoms: C_22  and  C_23 
ROOT
HETATM    1  N   UNL     1      25.970  44.112  51.917  1.00  0.00    -0.341 N 
HETATM    2  C   UNL     1      25.571  44.535  53.191  1.00  0.00     0.254 C 
HETATM    3  O   UNL     1      24.586  44.076  53.770  1.00  0.00    -0.267 OA
ENDROOT
BRANCH   1   4
HETATM    4  C   UNL     1      25.032  43.231  51.204  1.00  0.00     0.170 C 
BRANCH   4   5
HETATM    5  C   UNL     1      25.681  42.008  50.608  1.00  0.00     0.029 A 
HETATM    6  C   UNL     1      24.875  41.395  49.503  1.00  0.00     0.253 A 
HETATM    7  N   UNL     1      25.362  40.257  48.922  1.00  0.00    -0.322 N 
HETATM    8  O   UNL     1      23.822  41.895  49.115  1.00  0.00    -0.268 OA
HETATM    9  C   UNL     1      26.563  39.650  49.293  1.00  0.00     0.045 A 
HETATM   10  H   UNL     1      24.792  39.860  48.189  1.00  0.00     0.169 HD
HETATM   11  C   UNL     1      27.333  40.225  50.309  1.00  0.00    -0.008 A 
HETATM   12  C   UNL     1      26.981  38.487  48.649  1.00  0.00     0.031 A 
HETATM   13  C   UNL     1      28.536  39.617  50.683  1.00  0.00     0.020 A 
HETATM   14  C   UNL     1      26.851  41.443  50.963  1.00  0.00     0.028 A 
HETATM   15  C   UNL     1      28.962  38.437  50.053  1.00  0.00    -0.061 A 
HETATM   16  C   UNL     1      30.265  37.795  50.433  1.00  0.00     0.048 C 
HETATM   17  C   UNL     1      28.182  37.885  49.028  1.00  0.00     0.009 A 
ENDBRANCH   4   5
ENDBRANCH   1   4
BRANCH   1  18
HETATM   18  C   UNL     1      26.958  44.813  51.077  1.00  0.00     0.158 C 
BRANCH  18  19
HETATM   19  C   UNL     1      26.330  45.560  49.879  1.00  0.00     0.139 C 
HETATM   20  O   UNL     1      27.369  46.181  49.097  1.00  0.00    -0.384 OA
HETATM   21  C   UNL     1      27.332  47.600  49.299  1.00  0.00     0.168 C 
HETATM   22  C   UNL     1      26.378  47.858  50.445  1.00  0.00     0.029 C 
HETATM   23  C   UNL     1      25.422  46.698  50.326  1.00  0.00     0.035 C 
ENDBRANCH  18  19
ENDBRANCH   1  18
BRANCH   2  24
HETATM   24  C   UNL     1      26.309  45.602  53.905  1.00  0.00     0.034 A 
HETATM   25  C   UNL     1      27.570  45.275  54.424  1.00  0.00     0.053 A 
HETATM   26  C   UNL     1      28.336  46.249  55.060  1.00  0.00     0.069 A 
HETATM   27  C   UNL     1      27.823  47.540  55.206  1.00  0.00     0.037 A 
HETATM   28  C   UNL     1      26.582  47.877  54.659  1.00  0.00     0.004 A 
HETATM   29  C   UNL     1      25.833  46.914  53.983  1.00  0.00     0.017 A 
BRANCH  26  30
HETATM   30  O   UNL     1      29.583  46.051  55.588  1.00  0.00    -0.356 OA
HETATM   31  C   UNL     1      29.625  45.800  56.990  1.00  0.00     0.210 C 
ENDBRANCH  26  30
ENDBRANCH   2  24
TORSDOF 6
ENDMDL
MODEL 4
REMARK VINA RESULT:      -8.7      2.146      8.136
REMARK  6 active torsions:
REMARK  status: ('A' for Active; 'I' for Inactive)
REMARK    1  A    between atoms: C_9  and  C_10 
REMARK    2  A    between atoms: C_10  and  N_11 
REMARK       I    between atoms: N_11  and  C_12 
REMARK    3  A    between atoms: N_11  and  C_22 
REMARK    4  A    between atoms: C_12  and  C_13 
REMARK    5  A    between atoms: C_15  and  O_16 
REMARK    6  A    between atoms: C_22  and  C_23 
ROOT
HETATM    1  N   UNL     1      26.436  46.431  50.697  1.00  0.00    -0.341 N 
HETATM    2  C   UNL     1      26.288  46.598  52.080  1.00  0.00     0.254 C 
HETATM    3  O   UNL     1      26.177  47.702  52.613  1.00  0.00    -0.267 OA
ENDROOT
BRANCH   1   4
HETATM    4  C   UNL     1      26.660  47.659  49.918  1.00  0.00     0.170 C 
BRANCH   4   5
HETATM    5  C   UNL     1      25.398  48.257  49.351  1.00  0.00     0.029 A 
HETATM    6  C   UNL     1      25.644  49.510  48.565  1.00  0.00     0.253 A 
HETATM    7  N   UNL     1      24.556  50.150  48.040  1.00  0.00    -0.322 N 
HETATM    8  O   UNL     1      26.777  49.947  48.380  1.00  0.00    -0.268 OA
HETATM    9  C   UNL     1      23.243  49.697  48.188  1.00  0.00     0.045 A 
HETATM   10  H   UNL     1      24.751  50.997  47.526  1.00  0.00     0.169 HD
HETATM   11  C   UNL     1      23.005  48.519  48.902  1.00  0.00    -0.008 A 
HETATM   12  C   UNL     1      22.193  50.416  47.623  1.00  0.00     0.031 A 
HETATM   13  C   UNL     1      21.690  48.064  49.053  1.00  0.00     0.020 A 
HETATM   14  C   UNL     1      24.139  47.799  49.485  1.00  0.00     0.028 A 
HETATM   15  C   UNL     1      20.621  48.786  48.501  1.00  0.00    -0.061 A 
HETATM   16  C   UNL     1      19.211  48.289  48.637  1.00  0.00     0.048 C 
HETATM   17  C   UNL     1      20.883  49.957  47.777  1.00  0.00     0.009 A 
ENDBRANCH   4   5
ENDBRANCH   1   4
BRANCH   1  18
HETATM   18  C   UNL     1      26.847  45.174  50.048  1.00  0.00     0.158 C 
BRANCH  18  19
HETATM   19  C   UNL     1      25.675  44.398  49.408  1.00  0.00     0.139 C 
HETATM   20  O   UNL     1      24.517  44.478  50.263  1.00  0.00    -0.384 OA
HETATM   21  C   UNL     1      24.301  43.206  50.888  1.00  0.00     0.168 C 
HETATM   22  C   UNL     1      25.518  42.357  50.596  1.00  0.00     0.029 C 
HETATM   23  C   UNL     1      25.979  42.912  49.271  1.00  0.00     0.035 C 
ENDBRANCH  18  19
ENDBRANCH   1  18
BRANCH   2  24
HETATM   24  C   UNL     1      26.295  45.432  52.993  1.00  0.00     0.034 A 
HETATM   25  C   UNL     1      27.481  44.687  53.075  1.00  0.00     0.053 A 
HETATM   26  C   UNL     1      27.568  43.610  53.955  1.00  0.00     0.069 A 
HETATM   27  C   UNL     1      26.455  43.259  54.723  1.00  0.00     0.037 A 
HETATM   28  C   UNL     1      25.285  44.020  54.668  1.00  0.00     0.004 A 
HETATM   29  C   UNL     1      25.211  45.125  53.821  1.00  0.00     0.017 A 
BRANCH  26  30
HETATM   30  O   UNL     1      28.674  42.825  54.133  1.00  0.00    -0.356 OA
HETATM   31  C   UNL     1      29.756  43.436  54.833  1.00  0.00     0.210 C 
ENDBRANCH  26  30
ENDBRANCH   2  24
TORSDOF 6
ENDMDL
MODEL 5
REMARK VINA RESULT:      -8.6      2.538      3.487
REMARK  6 active torsions:
REMARK  status: ('A' for Active; 'I' for Inactive)
REMARK    1  A    between atoms: C_9  and  C_10 
REMARK    2  A    between atoms: C_10  and  N_11 
REMARK       I    between atoms: N_11  and  C_12 
REMARK    3  A    between atoms: N_11  and  C_22 
REMARK    4  A    between atoms: C_12  and  C_13 
REMARK    5  A    between atoms: C_15  and  O_16 
REMARK    6  A    between atoms: C_22  and  C_23 
ROOT
HETATM    1  N   UNL     1      24.845  45.814  50.369  1.00  0.00    -0.341 N 
HETATM    2  C   UNL     1      25.248  47.107  50.727  1.00  0.00     0.254 C 
HETATM    3  O   UNL     1      25.423  47.452  51.896  1.00  0.00    -0.267 OA
ENDROOT
BRANCH   1   4
HETATM    4  C   UNL     1      24.439  44.933  51.475  1.00  0.00     0.170 C 
BRANCH   4   5
HETATM    5  C   UNL     1      25.460  43.880  51.820  1.00  0.00     0.029 A 
HETATM    6  C   UNL     1      25.962  43.988  53.229  1.00  0.00     0.253 A 
HETATM    7  N   UNL     1      26.921  43.100  53.627  1.00  0.00    -0.322 N 
HETATM    8  O   UNL     1      25.525  44.830  54.009  1.00  0.00    -0.268 OA
HETATM    9  C   UNL     1      27.444  42.100  52.803  1.00  0.00     0.045 A 
HETATM   10  H   UNL     1      27.249  43.204  54.577  1.00  0.00     0.169 HD
HETATM   11  C   UNL     1      26.968  41.978  51.494  1.00  0.00    -0.008 A 
HETATM   12  C   UNL     1      28.424  41.240  53.291  1.00  0.00     0.031 A 
HETATM   13  C   UNL     1      27.492  40.979  50.666  1.00  0.00     0.020 A 
HETATM   14  C   UNL     1      25.942  42.909  51.021  1.00  0.00     0.028 A 
HETATM   15  C   UNL     1      28.490  40.115  51.140  1.00  0.00    -0.061 A 
HETATM   16  C   UNL     1      29.037  39.025  50.265  1.00  0.00     0.048 C 
HETATM   17  C   UNL     1      28.943  40.246  52.460  1.00  0.00     0.009 A 
ENDBRANCH   4   5
ENDBRANCH   1   4
BRANCH   1  18
HETATM   18  C   UNL     1      24.358  45.432  49.031  1.00  0.00     0.158 C 
BRANCH  18  19
HETATM   19  C   UNL     1      22.895  44.940  49.024  1.00  0.00     0.139 C 
HETATM   20  O   UNL     1      22.818  43.658  48.371  1.00  0.00    -0.384 OA
HETATM   21  C   UNL     1      22.197  43.815  47.088  1.00  0.00     0.168 C 
HETATM   22  C   UNL     1      22.095  45.302  46.826  1.00  0.00     0.029 C 
HETATM   23  C   UNL     1      21.985  45.861  48.222  1.00  0.00     0.035 C 
ENDBRANCH  18  19
ENDBRANCH   1  18
BRANCH   2  24
HETATM   24  C   UNL     1      25.452  48.153  49.699  1.00  0.00     0.034 A 
HETATM   25  C   UNL     1      24.311  48.644  49.048  1.00  0.00     0.053 A 
HETATM   26  C   UNL     1      24.431  49.666  48.108  1.00  0.00     0.069 A 
HETATM   27  C   UNL     1      25.697  50.169  47.799  1.00  0.00     0.037 A 
HETATM   28  C   UNL     1      26.830  49.706  48.472  1.00  0.00     0.004 A 
HETATM   29  C   UNL     1      26.706  48.714  49.444  1.00  0.00     0.017 A 
BRANCH  26  30
HETATM   30  O   UNL     1      23.391  50.235  47.425  1.00  0.00    -0.356 OA
HETATM   31  C   UNL     1      22.329  50.741  48.230  1.00  0.00     0.210 C 
ENDBRANCH  26  30
ENDBRANCH   2  24
TORSDOF 6
ENDMDL
MODEL 6
REMARK VINA RESULT:      -8.5      1.982      2.878
REMARK  6 active torsions:
REMARK  status: ('A' for Active; 'I' for Inactive)
REMARK    1  A    between atoms: C_9  and  C_10 
REMARK    2  A    between atoms: C_10  and  N_11 
REMARK       I    between atoms: N_11  and  C_12 
REMARK    3  A    between atoms: N_11  and  C_22 
REMARK    4  A    between atoms: C_12  and  C_13 
REMARK    5  A    between atoms: C_15  and  O_16 
REMARK    6  A    between atoms: C_22  and  C_23 
ROOT
HETATM    1  N   UNL     1      25.927  43.434  50.979  1.00  0.00    -0.341 N 
HETATM    2  C   UNL     1      24.888  44.276  51.397  1.00  0.00     0.254 C 
HETATM    3  O   UNL     1      24.431  44.257  52.540  1.00  0.00    -0.267 OA
ENDROOT
BRANCH   1   4
HETATM    4  C   UNL     1      26.314  42.370  51.918  1.00  0.00     0.170 C 
BRANCH   4   5
HETATM    5  C   UNL     1      27.477  42.735  52.804  1.00  0.00     0.029 A 
HETATM    6  C   UNL     1      28.677  41.863  52.588  1.00  0.00     0.253 A 
HETATM    7  N   UNL     1      29.773  42.091  53.372  1.00  0.00    -0.322 N 
HETATM    8  O   UNL     1      28.692  40.982  51.732  1.00  0.00    -0.268 OA
HETATM    9  C   UNL     1      29.837  43.090  54.345  1.00  0.00     0.045 A 
HETATM   10  H   UNL     1      30.562  41.480  53.212  1.00  0.00     0.169 HD
HETATM   11  C   UNL     1      28.731  43.923  54.541  1.00  0.00    -0.008 A 
HETATM   12  C   UNL     1      30.995  43.249  55.103  1.00  0.00     0.031 A 
HETATM   13  C   UNL     1      28.792  44.924  55.517  1.00  0.00     0.020 A 
HETATM   14  C   UNL     1      27.532  43.715  53.726  1.00  0.00     0.028 A 
HETATM   15  C   UNL     1      29.946  45.085  56.297  1.00  0.00    -0.061 A 
HETATM   16  C   UNL     1      30.027  46.174  57.328  1.00  0.00     0.048 C 
HETATM   17  C   UNL     1      31.049  44.249  56.075  1.00  0.00     0.009 A 
ENDBRANCH   4   5
ENDBRANCH   1   4
BRANCH   1  18
HETATM   18  C   UNL     1      26.315  43.223  49.573  1.00  0.00     0.158 C 
BRANCH  18  19
HETATM   19  C   UNL     1      26.653  41.753  49.240  1.00  0.00     0.139 C 
HETATM   20  O   UNL     1      27.582  41.707  48.139  1.00  0.00    -0.384 OA
HETATM   21  C   UNL     1      26.902  41.245  46.964  1.00  0.00     0.168 C 
HETATM   22  C   UNL     1      25.424  41.227  47.287  1.00  0.00     0.029 C 
HETATM   23  C   UNL     1      25.430  40.975  48.774  1.00  0.00     0.035 C 
ENDBRANCH  18  19
ENDBRANCH   1  18
BRANCH   2  24
HETATM   24  C   UNL     1      24.253  45.226  50.456  1.00  0.00     0.034 A 
HETATM   25  C   UNL     1      24.660  46.567  50.523  1.00  0.00     0.053 A 
HETATM   26  C   UNL     1      24.138  47.500  49.629  1.00  0.00     0.069 A 
HETATM   27  C   UNL     1      23.184  47.094  48.692  1.00  0.00     0.037 A 
HETATM   28  C   UNL     1      22.804  45.753  48.600  1.00  0.00     0.004 A 
HETATM   29  C   UNL     1      23.358  44.810  49.466  1.00  0.00     0.017 A 
BRANCH  26  30
HETATM   30  O   UNL     1      24.472  48.825  49.588  1.00  0.00    -0.356 OA
HETATM   31  C   UNL     1      25.670  49.137  48.882  1.00  0.00     0.210 C 
ENDBRANCH  26  30
ENDBRANCH   2  24
TORSDOF 6
ENDMDL
MODEL 7
REMARK VINA RESULT:      -8.2      3.162      5.854
REMARK  6 active torsions:
REMARK  status: ('A' for Active; 'I' for Inactive)
REMARK    1  A    between atoms: C_9  and  C_10 
REMARK    2  A    between atoms: C_10  and  N_11 
REMARK       I    between atoms: N_11  and  C_12 
REMARK    3  A    between atoms: N_11  and  C_22 
REMARK    4  A    between atoms: C_12  and  C_13 
REMARK    5  A    between atoms: C_15  and  O_16 
REMARK    6  A    between atoms: C_22  and  C_23 
ROOT
HETATM    1  N   UNL     1      22.126  46.893  48.407  1.00  0.00    -0.341 N 
HETATM    2  C   UNL     1      20.817  46.501  48.719  1.00  0.00     0.254 C 
HETATM    3  O   UNL     1      20.532  45.364  49.095  1.00  0.00    -0.267 OA
ENDROOT
BRANCH   1   4
HETATM    4  C   UNL     1      23.128  45.818  48.352  1.00  0.00     0.170 C 
BRANCH   4   5
HETATM    5  C   UNL     1      23.825  45.569  49.664  1.00  0.00     0.029 A 
HETATM    6  C   UNL     1      23.725  44.145  50.123  1.00  0.00     0.253 A 
HETATM    7  N   UNL     1      24.295  43.827  51.324  1.00  0.00    -0.322 N 
HETATM    8  O   UNL     1      23.166  43.285  49.447  1.00  0.00    -0.268 OA
HETATM    9  C   UNL     1      24.968  44.746  52.131  1.00  0.00     0.045 A 
HETATM   10  H   UNL     1      24.201  42.863  51.613  1.00  0.00     0.169 HD
HETATM   11  C   UNL     1      25.085  46.072  51.704  1.00  0.00    -0.008 A 
HETATM   12  C   UNL     1      25.515  44.335  53.345  1.00  0.00     0.031 A 
HETATM   13  C   UNL     1      25.757  46.995  52.512  1.00  0.00     0.020 A 
HETATM   14  C   UNL     1      24.488  46.461  50.425  1.00  0.00     0.028 A 
HETATM   15  C   UNL     1      26.300  46.598  53.744  1.00  0.00    -0.061 A 
HETATM   16  C   UNL     1      27.045  47.578  54.603  1.00  0.00     0.048 C 
HETATM   17  C   UNL     1      26.184  45.260  54.147  1.00  0.00     0.009 A 
ENDBRANCH   4   5
ENDBRANCH   1   4
BRANCH   1  18
HETATM   18  C   UNL     1      22.477  48.137  47.698  1.00  0.00     0.158 C 
BRANCH  18  19
HETATM   19  C   UNL     1      23.391  49.076  48.515  1.00  0.00     0.139 C 
HETATM   20  O   UNL     1      22.789  49.343  49.797  1.00  0.00    -0.384 OA
HETATM   21  C   UNL     1      22.301  50.691  49.821  1.00  0.00     0.168 C 
HETATM   22  C   UNL     1      22.389  51.218  48.405  1.00  0.00     0.029 C 
HETATM   23  C   UNL     1      23.554  50.436  47.851  1.00  0.00     0.035 C 
ENDBRANCH  18  19
ENDBRANCH   1  18
BRANCH   2  24
HETATM   24  C   UNL     1      19.685  47.444  48.575  1.00  0.00     0.034 A 
HETATM   25  C   UNL     1      19.500  48.387  49.597  1.00  0.00     0.053 A 
HETATM   26  C   UNL     1      18.485  49.336  49.494  1.00  0.00     0.069 A 
HETATM   27  C   UNL     1      17.636  49.316  48.386  1.00  0.00     0.037 A 
HETATM   28  C   UNL     1      17.840  48.400  47.350  1.00  0.00     0.004 A 
HETATM   29  C   UNL     1      18.883  47.478  47.431  1.00  0.00     0.017 A 
BRANCH  26  30
HETATM   30  O   UNL     1      18.222  50.311  50.416  1.00  0.00    -0.356 OA
HETATM   31  C   UNL     1      18.354  51.651  49.950  1.00  0.00     0.210 C 
ENDBRANCH  26  30
ENDBRANCH   2  24
TORSDOF 6
ENDMDL
MODEL 8
REMARK VINA RESULT:      -8.2     11.001     14.012
REMARK  6 active torsions:
REMARK  status: ('A' for Active; 'I' for Inactive)
REMARK    1  A    between atoms: C_9  and  C_10 
REMARK    2  A    between atoms: C_10  and  N_11 
REMARK       I    between atoms: N_11  and  C_12 
REMARK    3  A    between atoms: N_11  and  C_22 
REMARK    4  A    between atoms: C_12  and  C_13 
REMARK    5  A    between atoms: C_15  and  O_16 
REMARK    6  A    between atoms: C_22  and  C_23 
ROOT
HETATM    1  N   UNL     1      29.980  50.037  42.008  1.00  0.00    -0.341 N 
HETATM    2  C   UNL     1      31.088  49.449  42.631  1.00  0.00     0.254 C 
HETATM    3  O   UNL     1      31.095  48.281  43.020  1.00  0.00    -0.267 OA
ENDROOT
BRANCH   1   4
HETATM    4  C   UNL     1      28.737  49.249  42.022  1.00  0.00     0.170 C 
BRANCH   4   5
HETATM    5  C   UNL     1      28.526  48.426  40.778  1.00  0.00     0.029 A 
HETATM    6  C   UNL     1      27.540  49.037  39.828  1.00  0.00     0.253 A 
HETATM    7  N   UNL     1      27.251  48.346  38.685  1.00  0.00    -0.322 N 
HETATM    8  O   UNL     1      27.015  50.126  40.052  1.00  0.00    -0.268 OA
HETATM    9  C   UNL     1      27.829  47.118  38.354  1.00  0.00     0.045 A 
HETATM   10  H   UNL     1      26.575  48.776  38.070  1.00  0.00     0.169 HD
HETATM   11  C   UNL     1      28.765  46.548  39.223  1.00  0.00    -0.008 A 
HETATM   12  C   UNL     1      27.472  46.480  37.169  1.00  0.00     0.031 A 
HETATM   13  C   UNL     1      29.343  45.318  38.894  1.00  0.00     0.020 A 
HETATM   14  C   UNL     1      29.104  47.251  40.462  1.00  0.00     0.028 A 
HETATM   15  C   UNL     1      28.982  44.657  37.710  1.00  0.00    -0.061 A 
HETATM   16  C   UNL     1      29.619  43.349  37.340  1.00  0.00     0.048 C 
HETATM   17  C   UNL     1      28.052  45.252  36.846  1.00  0.00     0.009 A 
ENDBRANCH   4   5
ENDBRANCH   1   4
BRANCH   1  18
HETATM   18  C   UNL     1      29.821  51.485  41.780  1.00  0.00     0.158 C 
BRANCH  18  19
HETATM   19  C   UNL     1      29.935  51.891  40.295  1.00  0.00     0.139 C 
HETATM   20  O   UNL     1      30.712  50.909  39.582  1.00  0.00    -0.384 OA
HETATM   21  C   UNL     1      31.998  51.459  39.265  1.00  0.00     0.168 C 
HETATM   22  C   UNL     1      32.119  52.763  40.023  1.00  0.00     0.029 C 
HETATM   23  C   UNL     1      30.680  53.207  40.117  1.00  0.00     0.035 C 
ENDBRANCH  18  19
ENDBRANCH   1  18
BRANCH   2  24
HETATM   24  C   UNL     1      32.319  50.231  42.889  1.00  0.00     0.034 A 
HETATM   25  C   UNL     1      33.411  50.010  42.038  1.00  0.00     0.053 A 
HETATM   26  C   UNL     1      34.580  50.752  42.196  1.00  0.00     0.069 A 
HETATM   27  C   UNL     1      34.664  51.688  43.229  1.00  0.00     0.037 A 
HETATM   28  C   UNL     1      33.565  51.935  44.056  1.00  0.00     0.004 A 
HETATM   29  C   UNL     1      32.380  51.225  43.870  1.00  0.00     0.017 A 
BRANCH  26  30
HETATM   30  O   UNL     1      35.699  50.636  41.417  1.00  0.00    -0.356 OA
HETATM   31  C   UNL     1      35.666  51.347  40.182  1.00  0.00     0.210 C 
ENDBRANCH  26  30
ENDBRANCH   2  24
TORSDOF 6
ENDMDL
MODEL 9
REMARK VINA RESULT:      -8.1      7.661     12.791
REMARK  6 active torsions:
REMARK  status: ('A' for Active; 'I' for Inactive)
REMARK    1  A    between atoms: C_9  and  C_10 
REMARK    2  A    between atoms: C_10  and  N_11 
REMARK       I    between atoms: N_11  and  C_12 
REMARK    3  A    between atoms: N_11  and  C_22 
REMARK    4  A    between atoms: C_12  and  C_13 
REMARK    5  A    between atoms: C_15  and  O_16 
REMARK    6  A    between atoms: C_22  and  C_23 
ROOT
HETATM    1  N   UNL     1      17.694  50.466  48.399  1.00  0.00    -0.341 N 
HETATM    2  C   UNL     1      18.764  51.337  48.154  1.00  0.00     0.254 C 
HETATM    3  O   UNL     1      18.647  52.372  47.497  1.00  0.00    -0.267 OA
ENDROOT
BRANCH   1   4
HETATM    4  C   UNL     1      16.454  50.741  47.656  1.00  0.00     0.170 C 
BRANCH   4   5
HETATM    5  C   UNL     1      15.694  51.938  48.164  1.00  0.00     0.029 A 
HETATM    6  C   UNL     1      15.144  52.796  47.064  1.00  0.00     0.253 A 
HETATM    7  N   UNL     1      14.470  53.930  47.423  1.00  0.00    -0.322 N 
HETATM    8  O   UNL     1      15.277  52.494  45.880  1.00  0.00    -0.268 OA
HETATM    9  C   UNL     1      14.259  54.320  48.747  1.00  0.00     0.045 A 
HETATM   10  H   UNL     1      14.122  54.493  46.661  1.00  0.00     0.169 HD
HETATM   11  C   UNL     1      14.749  53.517  49.782  1.00  0.00    -0.008 A 
HETATM   12  C   UNL     1      13.563  55.495  49.022  1.00  0.00     0.031 A 
HETATM   13  C   UNL     1      14.540  53.907  51.109  1.00  0.00     0.020 A 
HETATM   14  C   UNL     1      15.481  52.294  49.446  1.00  0.00     0.028 A 
HETATM   15  C   UNL     1      13.854  55.096  51.400  1.00  0.00    -0.061 A 
HETATM   16  C   UNL     1      13.604  55.506  52.822  1.00  0.00     0.048 C 
HETATM   17  C   UNL     1      13.358  55.879  50.348  1.00  0.00     0.009 A 
ENDBRANCH   4   5
ENDBRANCH   1   4
BRANCH   1  18
HETATM   18  C   UNL     1      17.836  49.099  48.930  1.00  0.00     0.158 C 
BRANCH  18  19
HETATM   19  C   UNL     1      17.615  47.999  47.870  1.00  0.00     0.139 C 
HETATM   20  O   UNL     1      17.590  46.707  48.509  1.00  0.00    -0.384 OA
HETATM   21  C   UNL     1      18.799  46.001  48.198  1.00  0.00     0.168 C 
HETATM   22  C   UNL     1      19.728  46.989  47.527  1.00  0.00     0.029 C 
HETATM   23  C   UNL     1      18.757  47.934  46.865  1.00  0.00     0.035 C 
ENDBRANCH  18  19
ENDBRANCH   1  18
BRANCH   2  24
HETATM   24  C   UNL     1      20.124  51.031  48.653  1.00  0.00     0.034 A 
HETATM   25  C   UNL     1      21.090  50.668  47.704  1.00  0.00     0.053 A 
HETATM   26  C   UNL     1      22.401  50.419  48.104  1.00  0.00     0.069 A 
HETATM   27  C   UNL     1      22.733  50.500  49.458  1.00  0.00     0.037 A 
HETATM   28  C   UNL     1      21.781  50.897  50.401  1.00  0.00     0.004 A 
HETATM   29  C   UNL     1      20.479  51.189  49.996  1.00  0.00     0.017 A 
BRANCH  26  30
HETATM   30  O   UNL     1      23.428  50.075  47.268  1.00  0.00    -0.356 OA
HETATM   31  C   UNL     1      24.726  50.067  47.859  1.00  0.00     0.210 C 
ENDBRANCH  26  30
ENDBRANCH   2  24
TORSDOF 6
ENDMDL
MODEL 10
REMARK VINA RESULT:      -8.0      3.492      9.196
REMARK  6 active torsions:
REMARK  status: ('A' for Active; 'I' for Inactive)
REMARK    1  A    between atoms: C_9  and  C_10 
REMARK    2  A    between atoms: C_10  and  N_11 
REMARK       I    between atoms: N_11  and  C_12 
REMARK    3  A    between atoms: N_11  and  C_22 
REMARK    4  A    between atoms: C_12  and  C_13 
REMARK    5  A    between atoms: C_15  and  O_16 
REMARK    6  A    between atoms: C_22  and  C_23 
ROOT
HETATM    1  N   UNL     1      23.480  47.793  49.088  1.00  0.00    -0.341 N 
HETATM    2  C   UNL     1      24.768  47.898  49.627  1.00  0.00     0.254 C 
HETATM    3  O   UNL     1      25.479  48.892  49.473  1.00  0.00    -0.267 OA
ENDROOT
BRANCH   1   4
HETATM    4  C   UNL     1      23.084  48.852  48.147  1.00  0.00     0.170 C 
BRANCH   4   5
HETATM    5  C   UNL     1      21.773  49.511  48.489  1.00  0.00     0.029 A 
HETATM    6  C   UNL     1      21.914  50.613  49.496  1.00  0.00     0.253 A 
HETATM    7  N   UNL     1      20.774  51.248  49.901  1.00  0.00    -0.322 N 
HETATM    8  O   UNL     1      23.010  50.950  49.937  1.00  0.00    -0.268 OA
HETATM    9  C   UNL     1      19.500  50.936  49.423  1.00  0.00     0.045 A 
HETATM   10  H   UNL     1      20.898  51.978  50.589  1.00  0.00     0.169 HD
HETATM   11  C   UNL     1      19.359  49.923  48.469  1.00  0.00    -0.008 A 
HETATM   12  C   UNL     1      18.390  51.633  49.896  1.00  0.00     0.031 A 
HETATM   13  C   UNL     1      18.083  49.607  47.989  1.00  0.00     0.020 A 
HETATM   14  C   UNL     1      20.552  49.212  48.006  1.00  0.00     0.028 A 
HETATM   15  C   UNL     1      16.955  50.291  48.468  1.00  0.00    -0.061 A 
HETATM   16  C   UNL     1      15.587  49.974  47.938  1.00  0.00     0.048 C 
HETATM   17  C   UNL     1      17.120  51.312  49.414  1.00  0.00     0.009 A 
ENDBRANCH   4   5
ENDBRANCH   1   4
BRANCH   1  18
HETATM   18  C   UNL     1      22.709  46.539  49.006  1.00  0.00     0.158 C 
BRANCH  18  19
HETATM   19  C   UNL     1      22.616  45.966  47.575  1.00  0.00     0.139 C 
HETATM   20  O   UNL     1      21.231  45.816  47.203  1.00  0.00    -0.384 OA
HETATM   21  C   UNL     1      20.890  44.423  47.197  1.00  0.00     0.168 C 
HETATM   22  C   UNL     1      22.049  43.681  47.825  1.00  0.00     0.029 C 
HETATM   23  C   UNL     1      23.217  44.570  47.478  1.00  0.00     0.035 C 
ENDBRANCH  18  19
ENDBRANCH   1  18
BRANCH   2  24
HETATM   24  C   UNL     1      25.366  46.782  50.395  1.00  0.00     0.034 A 
HETATM   25  C   UNL     1      26.024  45.781  49.665  1.00  0.00     0.053 A 
HETATM   26  C   UNL     1      26.652  44.731  50.332  1.00  0.00     0.069 A 
HETATM   27  C   UNL     1      26.590  44.668  51.726  1.00  0.00     0.037 A 
HETATM   28  C   UNL     1      25.965  45.682  52.456  1.00  0.00     0.004 A 
HETATM   29  C   UNL     1      25.374  46.756  51.792  1.00  0.00     0.017 A 
BRANCH  26  30
HETATM   30  O   UNL     1      27.337  43.712  49.729  1.00  0.00    -0.356 OA
HETATM   31  C   UNL     1      26.538  42.639  49.238  1.00  0.00     0.210 C 
ENDBRANCH  26  30
ENDBRANCH   2  24
TORSDOF 6
ENDMDL
