MODEL 1
REMARK VINA RESULT:      -9.8      0.000      0.000
REMARK  6 active torsions:
REMARK  status: ('A' for Active; 'I' for Inactive)
REMARK    1  A    between atoms: C_5  and  N_6 
REMARK    2  A    between atoms: N_6  and  C_7 
REMARK    3  A    between atoms: C_7  and  C_8 
REMARK    4  A    between atoms: N_10  and  C_12 
REMARK    5  A    between atoms: C_12  and  C_13 
REMARK    6  A    between atoms: C_14  and  C_15 
ROOT
HETATM    1  C   UNL     1      26.258  45.176  51.968  1.00  0.00     0.031 C 
HETATM    2  C   UNL     1      26.425  43.670  52.193  1.00  0.00     0.241 C 
HETATM    3  N   UNL     1      25.999  43.440  53.630  1.00  0.00    -0.067 N 
HETATM    4  H   UNL     1      25.207  42.784  53.626  1.00  0.00     0.280 HD
HETATM    5  C   UNL     1      25.493  44.751  54.179  1.00  0.00     0.235 C 
HETATM    6  C   UNL     1      25.135  45.542  52.932  1.00  0.00     0.035 C 
ENDROOT
BRANCH   3   7
HETATM    7  C   UNL     1      27.035  42.783  54.516  1.00  0.00     0.277 C 
BRANCH   7   8
HETATM    8  C   UNL     1      28.363  42.610  53.870  1.00  0.00     0.016 A 
HETATM    9  C   UNL     1      29.590  43.249  54.250  1.00  0.00     0.102 A 
HETATM   10  N   UNL     1      30.583  42.872  53.439  1.00  0.00    -0.174 NA
HETATM   11  N   UNL     1      30.052  41.975  52.608  1.00  0.00    -0.288 N 
HETATM   12  H   UNL     1      30.665  41.530  51.928  1.00  0.00     0.188 HD
HETATM   13  C   UNL     1      28.714  41.790  52.811  1.00  0.00     0.120 A 
BRANCH   9  14
HETATM   14  C   UNL     1      29.855  44.166  55.355  1.00  0.00     0.072 A 
HETATM   15  C   UNL     1      29.227  45.413  55.420  1.00  0.00     0.132 A 
HETATM   16  F   UNL     1      28.426  45.820  54.422  1.00  0.00    -0.205 F 
HETATM   17  C   UNL     1      29.425  46.275  56.500  1.00  0.00     0.043 A 
HETATM   18  C   UNL     1      30.269  45.896  57.541  1.00  0.00     0.006 A 
HETATM   19  C   UNL     1      30.919  44.664  57.488  1.00  0.00     0.043 A 
HETATM   20  C   UNL     1      30.711  43.811  56.402  1.00  0.00     0.132 A 
HETATM   21  F   UNL     1      31.394  42.658  56.367  1.00  0.00    -0.205 F 
ENDBRANCH   9  14
ENDBRANCH   7   8
ENDBRANCH   3   7
BRANCH   1  22
HETATM   22  C   UNL     1      25.974  45.514  50.499  1.00  0.00     0.127 C 
BRANCH  22  23
HETATM   23  N   UNL     1      25.125  46.697  50.376  1.00  0.00    -0.376 N 
HETATM   24  H   UNL     1      24.257  46.709  50.897  1.00  0.00     0.161 HD
BRANCH  23  25
HETATM   25  C   UNL     1      25.532  47.824  49.689  1.00  0.00     0.101 A 
HETATM   26  N   UNL     1      24.586  48.611  49.143  1.00  0.00    -0.347 N 
HETATM   27  C   UNL     1      24.843  49.735  48.446  1.00  0.00     0.007 A 
HETATM   28  H   UNL     1      23.618  48.334  49.265  1.00  0.00     0.167 HD
HETATM   29  C   UNL     1      23.700  50.519  47.885  1.00  0.00     0.068 C 
HETATM   30  C   UNL     1      26.164  50.134  48.264  1.00  0.00     0.025 A 
HETATM   31  C   UNL     1      27.184  49.362  48.800  1.00  0.00     0.006 A 
HETATM   32  C   UNL     1      26.868  48.205  49.509  1.00  0.00     0.048 A 
ENDBRANCH  23  25
ENDBRANCH  22  23
ENDBRANCH   1  22
TORSDOF 6
ENDMDL
MODEL 2
REMARK VINA RESULT:      -9.7     12.349     14.887
REMARK  6 active torsions:
REMARK  status: ('A' for Active; 'I' for Inactive)
REMARK    1  A    between atoms: C_5  and  N_6 
REMARK    2  A    between atoms: N_6  and  C_7 
REMARK    3  A    between atoms: C_7  and  C_8 
REMARK    4  A    between atoms: N_10  and  C_12 
REMARK    5  A    between atoms: C_12  and  C_13 
REMARK    6  A    between atoms: C_14  and  C_15 
ROOT
HETATM    1  C   UNL     1      30.944  48.469  40.836  1.00  0.00     0.031 C 
HETATM    2  C   UNL     1      29.970  48.841  41.957  1.00  0.00     0.241 C 
HETATM    3  N   UNL     1      28.594  48.544  41.395  1.00  0.00    -0.067 N 
HETATM    4  H   UNL     1      28.148  47.842  42.001  1.00  0.00     0.280 HD
HETATM    5  C   UNL     1      28.774  47.911  40.037  1.00  0.00     0.235 C 
HETATM    6  C   UNL     1      30.195  47.375  40.084  1.00  0.00     0.035 C 
ENDROOT
BRANCH   3   7
HETATM    7  C   UNL     1      27.631  49.711  41.386  1.00  0.00     0.277 C 
BRANCH   7   8
HETATM    8  C   UNL     1      27.333  50.240  40.030  1.00  0.00     0.016 A 
HETATM    9  C   UNL     1      28.120  51.183  39.286  1.00  0.00     0.102 A 
HETATM   10  N   UNL     1      27.543  51.446  38.109  1.00  0.00    -0.174 NA
HETATM   11  N   UNL     1      26.465  50.663  38.050  1.00  0.00    -0.288 N 
HETATM   12  H   UNL     1      25.904  50.685  37.202  1.00  0.00     0.188 HD
HETATM   13  C   UNL     1      26.280  49.928  39.186  1.00  0.00     0.120 A 
BRANCH   9  14
HETATM   14  C   UNL     1      29.392  51.809  39.635  1.00  0.00     0.072 A 
HETATM   15  C   UNL     1      29.455  52.818  40.599  1.00  0.00     0.132 A 
HETATM   16  F   UNL     1      28.331  53.285  41.166  1.00  0.00    -0.205 F 
HETATM   17  C   UNL     1      30.671  53.384  40.985  1.00  0.00     0.043 A 
HETATM   18  C   UNL     1      31.856  52.943  40.400  1.00  0.00     0.006 A 
HETATM   19  C   UNL     1      31.814  51.948  39.424  1.00  0.00     0.043 A 
HETATM   20  C   UNL     1      30.590  51.390  39.048  1.00  0.00     0.132 A 
HETATM   21  F   UNL     1      30.590  50.473  38.070  1.00  0.00    -0.205 F 
ENDBRANCH   9  14
ENDBRANCH   7   8
ENDBRANCH   3   7
BRANCH   1  22
HETATM   22  C   UNL     1      32.317  48.049  41.376  1.00  0.00     0.127 C 
BRANCH  22  23
HETATM   23  N   UNL     1      33.368  48.964  40.938  1.00  0.00    -0.376 N 
HETATM   24  H   UNL     1      33.645  48.931  39.965  1.00  0.00     0.161 HD
BRANCH  23  25
HETATM   25  C   UNL     1      33.884  49.941  41.768  1.00  0.00     0.101 A 
HETATM   26  N   UNL     1      33.079  50.459  42.714  1.00  0.00    -0.347 N 
HETATM   27  C   UNL     1      33.450  51.417  43.586  1.00  0.00     0.007 A 
HETATM   28  H   UNL     1      32.130  50.105  42.768  1.00  0.00     0.167 HD
HETATM   29  C   UNL     1      32.457  51.913  44.587  1.00  0.00     0.068 C 
HETATM   30  C   UNL     1      34.746  51.922  43.529  1.00  0.00     0.025 A 
HETATM   31  C   UNL     1      35.622  51.429  42.573  1.00  0.00     0.006 A 
HETATM   32  C   UNL     1      35.189  50.442  41.689  1.00  0.00     0.048 A 
ENDBRANCH  23  25
ENDBRANCH  22  23
ENDBRANCH   1  22
TORSDOF 6
ENDMDL
MODEL 3
REMARK VINA RESULT:      -9.6      2.009      3.151
REMARK  6 active torsions:
REMARK  status: ('A' for Active; 'I' for Inactive)
REMARK    1  A    between atoms: C_5  and  N_6 
REMARK    2  A    between atoms: N_6  and  C_7 
REMARK    3  A    between atoms: C_7  and  C_8 
REMARK    4  A    between atoms: N_10  and  C_12 
REMARK    5  A    between atoms: C_12  and  C_13 
REMARK    6  A    between atoms: C_14  and  C_15 
ROOT
HETATM    1  C   UNL     1      24.974  46.194  49.753  1.00  0.00     0.031 C 
HETATM    2  C   UNL     1      25.278  44.734  50.102  1.00  0.00     0.241 C 
HETATM    3  N   UNL     1      26.130  44.801  51.355  1.00  0.00    -0.067 N 
HETATM    4  H   UNL     1      25.637  44.292  52.101  1.00  0.00     0.280 HD
HETATM    5  C   UNL     1      26.216  46.245  51.781  1.00  0.00     0.235 C 
HETATM    6  C   UNL     1      25.010  46.883  51.112  1.00  0.00     0.035 C 
ENDROOT
BRANCH   3   7
HETATM    7  C   UNL     1      27.480  44.126  51.258  1.00  0.00     0.277 C 
BRANCH   7   8
HETATM    8  C   UNL     1      27.561  42.824  51.971  1.00  0.00     0.016 A 
HETATM    9  C   UNL     1      28.056  42.605  53.300  1.00  0.00     0.102 A 
HETATM   10  N   UNL     1      27.995  41.307  53.612  1.00  0.00    -0.174 NA
HETATM   11  N   UNL     1      27.423  40.709  52.567  1.00  0.00    -0.288 N 
HETATM   12  H   UNL     1      27.246  39.708  52.626  1.00  0.00     0.188 HD
HETATM   13  C   UNL     1      27.155  41.571  51.543  1.00  0.00     0.120 A 
BRANCH   9  14
HETATM   14  C   UNL     1      28.549  43.571  54.277  1.00  0.00     0.072 A 
HETATM   15  C   UNL     1      29.899  43.601  54.641  1.00  0.00     0.132 A 
HETATM   16  F   UNL     1      30.751  42.685  54.153  1.00  0.00    -0.205 F 
HETATM   17  C   UNL     1      30.395  44.556  55.529  1.00  0.00     0.043 A 
HETATM   18  C   UNL     1      29.535  45.506  56.074  1.00  0.00     0.006 A 
HETATM   19  C   UNL     1      28.182  45.485  55.738  1.00  0.00     0.043 A 
HETATM   20  C   UNL     1      27.699  44.523  54.847  1.00  0.00     0.132 A 
HETATM   21  F   UNL     1      26.383  44.507  54.591  1.00  0.00    -0.205 F 
ENDBRANCH   9  14
ENDBRANCH   7   8
ENDBRANCH   3   7
BRANCH   1  22
HETATM   22  C   UNL     1      23.650  46.345  48.994  1.00  0.00     0.127 C 
BRANCH  22  23
HETATM   23  N   UNL     1      22.763  47.303  49.650  1.00  0.00    -0.376 N 
HETATM   24  H   UNL     1      22.334  47.025  50.523  1.00  0.00     0.161 HD
BRANCH  23  25
HETATM   25  C   UNL     1      22.607  48.595  49.186  1.00  0.00     0.101 A 
HETATM   26  N   UNL     1      21.557  49.308  49.634  1.00  0.00    -0.347 N 
HETATM   27  C   UNL     1      21.284  50.573  49.261  1.00  0.00     0.007 A 
HETATM   28  H   UNL     1      20.931  48.857  50.292  1.00  0.00     0.167 HD
HETATM   29  C   UNL     1      20.080  51.254  49.829  1.00  0.00     0.068 C 
HETATM   30  C   UNL     1      22.127  51.212  48.357  1.00  0.00     0.025 A 
HETATM   31  C   UNL     1      23.225  50.528  47.857  1.00  0.00     0.006 A 
HETATM   32  C   UNL     1      23.462  49.217  48.268  1.00  0.00     0.048 A 
ENDBRANCH  23  25
ENDBRANCH  22  23
ENDBRANCH   1  22
TORSDOF 6
ENDMDL
MODEL 4
REMARK VINA RESULT:      -9.5      2.744      5.561
REMARK  6 active torsions:
REMARK  status: ('A' for Active; 'I' for Inactive)
REMARK    1  A    between atoms: C_5  and  N_6 
REMARK    2  A    between atoms: N_6  and  C_7 
REMARK    3  A    between atoms: C_7  and  C_8 
REMARK    4  A    between atoms: N_10  and  C_12 
REMARK    5  A    between atoms: C_12  and  C_13 
REMARK    6  A    between atoms: C_14  and  C_15 
ROOT
HETATM    1  C   UNL     1      25.102  49.054  48.598  1.00  0.00     0.031 C 
HETATM    2  C   UNL     1      25.075  48.022  49.729  1.00  0.00     0.241 C 
HETATM    3  N   UNL     1      26.525  47.624  49.929  1.00  0.00    -0.067 N 
HETATM    4  H   UNL     1      26.786  47.852  50.898  1.00  0.00     0.280 HD
HETATM    5  C   UNL     1      27.371  48.484  49.023  1.00  0.00     0.235 C 
HETATM    6  C   UNL     1      26.482  49.684  48.744  1.00  0.00     0.035 C 
ENDROOT
BRANCH   3   7
HETATM    7  C   UNL     1      26.816  46.146  49.791  1.00  0.00     0.277 C 
BRANCH   7   8
HETATM    8  C   UNL     1      25.815  45.266  50.450  1.00  0.00     0.016 A 
HETATM    9  C   UNL     1      25.701  45.002  51.856  1.00  0.00     0.102 A 
HETATM   10  N   UNL     1      24.697  44.151  52.091  1.00  0.00    -0.174 NA
HETATM   11  N   UNL     1      24.133  43.921  50.905  1.00  0.00    -0.288 N 
HETATM   12  H   UNL     1      23.311  43.321  50.875  1.00  0.00     0.188 HD
HETATM   13  C   UNL     1      24.774  44.553  49.880  1.00  0.00     0.120 A 
BRANCH   9  14
HETATM   14  C   UNL     1      26.480  45.541  52.967  1.00  0.00     0.072 A 
HETATM   15  C   UNL     1      27.532  44.812  53.528  1.00  0.00     0.132 A 
HETATM   16  F   UNL     1      27.794  43.566  53.103  1.00  0.00    -0.205 F 
HETATM   17  C   UNL     1      28.322  45.339  54.551  1.00  0.00     0.043 A 
HETATM   18  C   UNL     1      28.063  46.620  55.034  1.00  0.00     0.006 A 
HETATM   19  C   UNL     1      27.008  47.358  54.501  1.00  0.00     0.043 A 
HETATM   20  C   UNL     1      26.226  46.818  53.477  1.00  0.00     0.132 A 
HETATM   21  F   UNL     1      25.191  47.541  53.027  1.00  0.00    -0.205 F 
ENDBRANCH   9  14
ENDBRANCH   7   8
ENDBRANCH   3   7
BRANCH   1  22
HETATM   22  C   UNL     1      23.934  50.045  48.690  1.00  0.00     0.127 C 
BRANCH  22  23
HETATM   23  N   UNL     1      22.646  49.367  48.570  1.00  0.00    -0.376 N 
HETATM   24  H   UNL     1      22.650  48.395  48.286  1.00  0.00     0.161 HD
BRANCH  23  25
HETATM   25  C   UNL     1      21.462  49.967  48.955  1.00  0.00     0.101 A 
HETATM   26  N   UNL     1      20.656  49.296  49.799  1.00  0.00    -0.347 N 
HETATM   27  C   UNL     1      19.475  49.761  50.251  1.00  0.00     0.007 A 
HETATM   28  H   UNL     1      20.960  48.380  50.109  1.00  0.00     0.167 HD
HETATM   29  C   UNL     1      18.669  48.913  51.182  1.00  0.00     0.068 C 
HETATM   30  C   UNL     1      19.035  51.015  49.837  1.00  0.00     0.025 A 
HETATM   31  C   UNL     1      19.821  51.753  48.965  1.00  0.00     0.006 A 
HETATM   32  C   UNL     1      21.033  51.227  48.520  1.00  0.00     0.048 A 
ENDBRANCH  23  25
ENDBRANCH  22  23
ENDBRANCH   1  22
TORSDOF 6
ENDMDL
MODEL 5
REMARK VINA RESULT:      -9.5      3.322      9.209
REMARK  6 active torsions:
REMARK  status: ('A' for Active; 'I' for Inactive)
REMARK    1  A    between atoms: C_5  and  N_6 
REMARK    2  A    between atoms: N_6  and  C_7 
REMARK    3  A    between atoms: C_7  and  C_8 
REMARK    4  A    between atoms: N_10  and  C_12 
REMARK    5  A    between atoms: C_12  and  C_13 
REMARK    6  A    between atoms: C_14  and  C_15 
ROOT
HETATM    1  C   UNL     1      25.936  45.092  52.958  1.00  0.00     0.031 C 
HETATM    2  C   UNL     1      26.277  45.552  51.537  1.00  0.00     0.241 C 
HETATM    3  N   UNL     1      25.900  47.020  51.500  1.00  0.00    -0.067 N 
HETATM    4  H   UNL     1      26.747  47.560  51.277  1.00  0.00     0.280 HD
HETATM    5  C   UNL     1      25.465  47.422  52.887  1.00  0.00     0.235 C 
HETATM    6  C   UNL     1      26.101  46.367  53.777  1.00  0.00     0.035 C 
ENDROOT
BRANCH   3   7
HETATM    7  C   UNL     1      24.906  47.407  50.428  1.00  0.00     0.277 C 
BRANCH   7   8
HETATM    8  C   UNL     1      25.433  48.377  49.432  1.00  0.00     0.016 A 
HETATM    9  C   UNL     1      24.663  49.279  48.624  1.00  0.00     0.102 A 
HETATM   10  N   UNL     1      25.466  49.993  47.829  1.00  0.00    -0.174 NA
HETATM   11  N   UNL     1      26.708  49.630  48.148  1.00  0.00    -0.288 N 
HETATM   12  H   UNL     1      27.480  50.098  47.676  1.00  0.00     0.188 HD
HETATM   13  C   UNL     1      26.748  48.648  49.095  1.00  0.00     0.120 A 
BRANCH   9  14
HETATM   14  C   UNL     1      23.221  49.503  48.601  1.00  0.00     0.072 A 
HETATM   15  C   UNL     1      22.673  50.708  49.050  1.00  0.00     0.132 A 
HETATM   16  F   UNL     1      23.463  51.653  49.584  1.00  0.00    -0.205 F 
HETATM   17  C   UNL     1      21.302  50.958  48.979  1.00  0.00     0.043 A 
HETATM   18  C   UNL     1      20.448  49.990  48.454  1.00  0.00     0.006 A 
HETATM   19  C   UNL     1      20.972  48.774  48.016  1.00  0.00     0.043 A 
HETATM   20  C   UNL     1      22.346  48.538  48.092  1.00  0.00     0.132 A 
HETATM   21  F   UNL     1      22.801  47.337  47.707  1.00  0.00    -0.205 F 
ENDBRANCH   9  14
ENDBRANCH   7   8
ENDBRANCH   3   7
BRANCH   1  22
HETATM   22  C   UNL     1      26.814  43.921  53.414  1.00  0.00     0.127 C 
BRANCH  22  23
HETATM   23  N   UNL     1      28.235  44.220  53.249  1.00  0.00    -0.376 N 
HETATM   24  H   UNL     1      28.536  44.593  52.357  1.00  0.00     0.161 HD
BRANCH  23  25
HETATM   25  C   UNL     1      29.130  44.135  54.298  1.00  0.00     0.101 A 
HETATM   26  N   UNL     1      29.016  45.024  55.302  1.00  0.00    -0.347 N 
HETATM   27  C   UNL     1      29.822  45.057  56.381  1.00  0.00     0.007 A 
HETATM   28  H   UNL     1      28.275  45.714  55.236  1.00  0.00     0.167 HD
HETATM   29  C   UNL     1      29.593  46.102  57.427  1.00  0.00     0.068 C 
HETATM   30  C   UNL     1      30.847  44.123  56.493  1.00  0.00     0.025 A 
HETATM   31  C   UNL     1      31.017  43.183  55.488  1.00  0.00     0.006 A 
HETATM   32  C   UNL     1      30.161  43.192  54.388  1.00  0.00     0.048 A 
ENDBRANCH  23  25
ENDBRANCH  22  23
ENDBRANCH   1  22
TORSDOF 6
ENDMDL
MODEL 6
REMARK VINA RESULT:      -9.4      3.342      9.332
REMARK  6 active torsions:
REMARK  status: ('A' for Active; 'I' for Inactive)
REMARK    1  A    between atoms: C_5  and  N_6 
REMARK    2  A    between atoms: N_6  and  C_7 
REMARK    3  A    between atoms: C_7  and  C_8 
REMARK    4  A    between atoms: N_10  and  C_12 
REMARK    5  A    between atoms: C_12  and  C_13 
REMARK    6  A    between atoms: C_14  and  C_15 
ROOT
HETATM    1  C   UNL     1      26.319  45.333  53.545  1.00  0.00     0.031 C 
HETATM    2  C   UNL     1      26.714  45.705  52.113  1.00  0.00     0.241 C 
HETATM    3  N   UNL     1      26.101  47.072  51.880  1.00  0.00    -0.067 N 
HETATM    4  H   UNL     1      26.863  47.729  51.664  1.00  0.00     0.280 HD
HETATM    5  C   UNL     1      25.473  47.525  53.174  1.00  0.00     0.235 C 
HETATM    6  C   UNL     1      26.188  46.692  54.225  1.00  0.00     0.035 C 
ENDROOT
BRANCH   3   7
HETATM    7  C   UNL     1      25.164  47.169  50.696  1.00  0.00     0.277 C 
BRANCH   7   8
HETATM    8  C   UNL     1      25.588  48.154  49.666  1.00  0.00     0.016 A 
HETATM    9  C   UNL     1      24.731  48.999  48.885  1.00  0.00     0.102 A 
HETATM   10  N   UNL     1      25.453  49.747  48.045  1.00  0.00    -0.174 NA
HETATM   11  N   UNL     1      26.728  49.460  48.309  1.00  0.00    -0.288 N 
HETATM   12  H   UNL     1      27.448  49.965  47.796  1.00  0.00     0.188 HD
HETATM   13  C   UNL     1      26.868  48.495  49.264  1.00  0.00     0.120 A 
BRANCH   9  14
HETATM   14  C   UNL     1      23.278  49.139  48.927  1.00  0.00     0.072 A 
HETATM   15  C   UNL     1      22.443  48.070  48.589  1.00  0.00     0.132 A 
HETATM   16  F   UNL     1      22.966  46.917  48.144  1.00  0.00    -0.205 F 
HETATM   17  C   UNL     1      21.054  48.172  48.681  1.00  0.00     0.043 A 
HETATM   18  C   UNL     1      20.475  49.362  49.115  1.00  0.00     0.006 A 
HETATM   19  C   UNL     1      21.289  50.446  49.441  1.00  0.00     0.043 A 
HETATM   20  C   UNL     1      22.677  50.330  49.345  1.00  0.00     0.132 A 
HETATM   21  F   UNL     1      23.420  51.412  49.619  1.00  0.00    -0.205 F 
ENDBRANCH   9  14
ENDBRANCH   7   8
ENDBRANCH   3   7
BRANCH   1  22
HETATM   22  C   UNL     1      27.333  44.387  54.199  1.00  0.00     0.127 C 
BRANCH  22  23
HETATM   23  N   UNL     1      28.636  45.028  54.364  1.00  0.00    -0.376 N 
HETATM   24  H   UNL     1      29.031  45.503  53.562  1.00  0.00     0.161 HD
BRANCH  23  25
HETATM   25  C   UNL     1      29.261  45.114  55.593  1.00  0.00     0.101 A 
HETATM   26  N   UNL     1      30.281  44.273  55.846  1.00  0.00    -0.347 N 
HETATM   27  C   UNL     1      30.974  44.246  57.001  1.00  0.00     0.007 A 
HETATM   28  H   UNL     1      30.539  43.616  55.117  1.00  0.00     0.167 HD
HETATM   29  C   UNL     1      32.084  43.257  57.160  1.00  0.00     0.068 C 
HETATM   30  C   UNL     1      30.636  45.136  58.017  1.00  0.00     0.025 A 
HETATM   31  C   UNL     1      29.591  46.026  57.816  1.00  0.00     0.006 A 
HETATM   32  C   UNL     1      28.900  46.011  56.606  1.00  0.00     0.048 A 
ENDBRANCH  23  25
ENDBRANCH  22  23
ENDBRANCH   1  22
TORSDOF 6
ENDMDL
MODEL 7
REMARK VINA RESULT:      -8.6     12.268     14.285
REMARK  6 active torsions:
REMARK  status: ('A' for Active; 'I' for Inactive)
REMARK    1  A    between atoms: C_5  and  N_6 
REMARK    2  A    between atoms: N_6  and  C_7 
REMARK    3  A    between atoms: C_7  and  C_8 
REMARK    4  A    between atoms: N_10  and  C_12 
REMARK    5  A    between atoms: C_12  and  C_13 
REMARK    6  A    between atoms: C_14  and  C_15 
ROOT
HETATM    1  C   UNL     1      29.045  51.773  40.079  1.00  0.00     0.031 C 
HETATM    2  C   UNL     1      28.134  51.573  38.865  1.00  0.00     0.241 C 
HETATM    3  N   UNL     1      26.874  50.938  39.421  1.00  0.00    -0.067 N 
HETATM    4  H   UNL     1      26.083  51.562  39.209  1.00  0.00     0.280 HD
HETATM    5  C   UNL     1      27.008  50.882  40.923  1.00  0.00     0.235 C 
HETATM    6  C   UNL     1      28.053  51.942  41.224  1.00  0.00     0.035 C 
ENDROOT
BRANCH   3   7
HETATM    7  C   UNL     1      26.491  49.610  38.806  1.00  0.00     0.277 C 
BRANCH   7   8
HETATM    8  C   UNL     1      26.363  48.501  39.788  1.00  0.00     0.016 A 
HETATM    9  C   UNL     1      27.437  47.796  40.428  1.00  0.00     0.102 A 
HETATM   10  N   UNL     1      26.955  46.849  41.239  1.00  0.00    -0.174 NA
HETATM   11  N   UNL     1      25.628  46.970  41.190  1.00  0.00    -0.288 N 
HETATM   12  H   UNL     1      25.069  46.357  41.779  1.00  0.00     0.188 HD
HETATM   13  C   UNL     1      25.215  47.938  40.319  1.00  0.00     0.120 A 
BRANCH   9  14
HETATM   14  C   UNL     1      28.878  48.006  40.321  1.00  0.00     0.072 A 
HETATM   15  C   UNL     1      29.544  47.811  39.108  1.00  0.00     0.132 A 
HETATM   16  F   UNL     1      28.879  47.350  38.037  1.00  0.00    -0.205 F 
HETATM   17  C   UNL     1      30.910  48.063  38.976  1.00  0.00     0.043 A 
HETATM   18  C   UNL     1      31.639  48.518  40.074  1.00  0.00     0.006 A 
HETATM   19  C   UNL     1      30.997  48.704  41.297  1.00  0.00     0.043 A 
HETATM   20  C   UNL     1      29.629  48.447  41.415  1.00  0.00     0.132 A 
HETATM   21  F   UNL     1      29.063  48.590  42.621  1.00  0.00    -0.205 F 
ENDBRANCH   9  14
ENDBRANCH   7   8
ENDBRANCH   3   7
BRANCH   1  22
HETATM   22  C   UNL     1      30.011  52.949  39.891  1.00  0.00     0.127 C 
BRANCH  22  23
HETATM   23  N   UNL     1      30.661  53.315  41.147  1.00  0.00    -0.376 N 
HETATM   24  H   UNL     1      30.315  54.131  41.635  1.00  0.00     0.161 HD
BRANCH  23  25
HETATM   25  C   UNL     1      31.622  52.516  41.736  1.00  0.00     0.101 A 
HETATM   26  N   UNL     1      32.684  52.149  40.994  1.00  0.00    -0.347 N 
HETATM   27  C   UNL     1      33.689  51.371  41.440  1.00  0.00     0.007 A 
HETATM   28  H   UNL     1      32.723  52.480  40.036  1.00  0.00     0.167 HD
HETATM   29  C   UNL     1      34.811  51.031  40.512  1.00  0.00     0.068 C 
HETATM   30  C   UNL     1      33.656  50.903  42.750  1.00  0.00     0.025 A 
HETATM   31  C   UNL     1      32.586  51.244  43.563  1.00  0.00     0.006 A 
HETATM   32  C   UNL     1      31.566  52.047  43.054  1.00  0.00     0.048 A 
ENDBRANCH  23  25
ENDBRANCH  22  23
ENDBRANCH   1  22
TORSDOF 6
ENDMDL
MODEL 8
REMARK VINA RESULT:      -8.6     12.275     14.531
REMARK  6 active torsions:
REMARK  status: ('A' for Active; 'I' for Inactive)
REMARK    1  A    between atoms: C_5  and  N_6 
REMARK    2  A    between atoms: N_6  and  C_7 
REMARK    3  A    between atoms: C_7  and  C_8 
REMARK    4  A    between atoms: N_10  and  C_12 
REMARK    5  A    between atoms: C_12  and  C_13 
REMARK    6  A    between atoms: C_14  and  C_15 
ROOT
HETATM    1  C   UNL     1      29.512  52.078  40.240  1.00  0.00     0.031 C 
HETATM    2  C   UNL     1      28.796  51.950  38.893  1.00  0.00     0.241 C 
HETATM    3  N   UNL     1      27.385  51.513  39.240  1.00  0.00    -0.067 N 
HETATM    4  H   UNL     1      26.735  52.227  38.885  1.00  0.00     0.280 HD
HETATM    5  C   UNL     1      27.260  51.503  40.743  1.00  0.00     0.235 C 
HETATM    6  C   UNL     1      28.378  52.425  41.198  1.00  0.00     0.035 C 
ENDROOT
BRANCH   3   7
HETATM    7  C   UNL     1      26.929  50.223  38.595  1.00  0.00     0.277 C 
BRANCH   7   8
HETATM    8  C   UNL     1      26.555  49.159  39.563  1.00  0.00     0.016 A 
HETATM    9  C   UNL     1      27.454  48.321  40.304  1.00  0.00     0.102 A 
HETATM   10  N   UNL     1      26.770  47.464  41.068  1.00  0.00    -0.174 NA
HETATM   11  N   UNL     1      25.484  47.770  40.893  1.00  0.00    -0.288 N 
HETATM   12  H   UNL     1      24.791  47.251  41.429  1.00  0.00     0.188 HD
HETATM   13  C   UNL     1      25.295  48.771  39.985  1.00  0.00     0.120 A 
BRANCH   9  14
HETATM   14  C   UNL     1      28.914  48.324  40.332  1.00  0.00     0.072 A 
HETATM   15  C   UNL     1      29.610  48.723  41.477  1.00  0.00     0.132 A 
HETATM   16  F   UNL     1      28.943  49.187  42.546  1.00  0.00    -0.205 F 
HETATM   17  C   UNL     1      31.003  48.675  41.538  1.00  0.00     0.043 A 
HETATM   18  C   UNL     1      31.729  48.223  40.438  1.00  0.00     0.006 A 
HETATM   19  C   UNL     1      31.055  47.836  39.281  1.00  0.00     0.043 A 
HETATM   20  C   UNL     1      29.660  47.888  39.233  1.00  0.00     0.132 A 
HETATM   21  F   UNL     1      29.056  47.555  38.084  1.00  0.00    -0.205 F 
ENDBRANCH   9  14
ENDBRANCH   7   8
ENDBRANCH   3   7
BRANCH   1  22
HETATM   22  C   UNL     1      30.649  53.105  40.197  1.00  0.00     0.127 C 
BRANCH  22  23
HETATM   23  N   UNL     1      31.904  52.498  39.758  1.00  0.00    -0.376 N 
HETATM   24  H   UNL     1      32.158  52.598  38.783  1.00  0.00     0.161 HD
BRANCH  23  25
HETATM   25  C   UNL     1      32.792  51.925  40.647  1.00  0.00     0.101 A 
HETATM   26  N   UNL     1      32.552  52.066  41.964  1.00  0.00    -0.347 N 
HETATM   27  C   UNL     1      33.336  51.562  42.937  1.00  0.00     0.007 A 
HETATM   28  H   UNL     1      31.727  52.589  42.236  1.00  0.00     0.167 HD
HETATM   29  C   UNL     1      32.960  51.795  44.365  1.00  0.00     0.068 C 
HETATM   30  C   UNL     1      34.475  50.842  42.587  1.00  0.00     0.025 A 
HETATM   31  C   UNL     1      34.777  50.666  41.246  1.00  0.00     0.006 A 
HETATM   32  C   UNL     1      33.938  51.211  40.275  1.00  0.00     0.048 A 
ENDBRANCH  23  25
ENDBRANCH  22  23
ENDBRANCH   1  22
TORSDOF 6
ENDMDL
MODEL 9
REMARK VINA RESULT:      -8.5     12.364     15.453
REMARK  6 active torsions:
REMARK  status: ('A' for Active; 'I' for Inactive)
REMARK    1  A    between atoms: C_5  and  N_6 
REMARK    2  A    between atoms: N_6  and  C_7 
REMARK    3  A    between atoms: C_7  and  C_8 
REMARK    4  A    between atoms: N_10  and  C_12 
REMARK    5  A    between atoms: C_12  and  C_13 
REMARK    6  A    between atoms: C_14  and  C_15 
ROOT
HETATM    1  C   UNL     1      32.682  51.130  41.994  1.00  0.00     0.031 C 
HETATM    2  C   UNL     1      32.487  49.635  41.730  1.00  0.00     0.241 C 
HETATM    3  N   UNL     1      32.264  49.528  40.233  1.00  0.00    -0.067 N 
HETATM    4  H   UNL     1      33.005  48.930  39.844  1.00  0.00     0.280 HD
HETATM    5  C   UNL     1      32.441  50.903  39.639  1.00  0.00     0.235 C 
HETATM    6  C   UNL     1      33.270  51.635  40.682  1.00  0.00     0.035 C 
ENDROOT
BRANCH   3   7
HETATM    7  C   UNL     1      30.972  48.860  39.817  1.00  0.00     0.277 C 
BRANCH   7   8
HETATM    8  C   UNL     1      29.870  49.002  40.803  1.00  0.00     0.016 A 
HETATM    9  C   UNL     1      29.021  50.146  40.980  1.00  0.00     0.102 A 
HETATM   10  N   UNL     1      28.149  49.931  41.970  1.00  0.00    -0.174 NA
HETATM   11  N   UNL     1      28.366  48.681  42.379  1.00  0.00    -0.288 N 
HETATM   12  H   UNL     1      27.766  48.305  43.111  1.00  0.00     0.188 HD
HETATM   13  C   UNL     1      29.402  48.080  41.723  1.00  0.00     0.120 A 
BRANCH   9  14
HETATM   14  C   UNL     1      28.990  51.402  40.237  1.00  0.00     0.072 A 
HETATM   15  C   UNL     1      29.408  52.598  40.828  1.00  0.00     0.132 A 
HETATM   16  F   UNL     1      29.772  52.623  42.120  1.00  0.00    -0.205 F 
HETATM   17  C   UNL     1      29.440  53.795  40.111  1.00  0.00     0.043 A 
HETATM   18  C   UNL     1      29.045  53.812  38.775  1.00  0.00     0.006 A 
HETATM   19  C   UNL     1      28.608  52.634  38.171  1.00  0.00     0.043 A 
HETATM   20  C   UNL     1      28.583  51.443  38.900  1.00  0.00     0.132 A 
HETATM   21  F   UNL     1      28.109  50.344  38.295  1.00  0.00    -0.205 F 
ENDBRANCH   9  14
ENDBRANCH   7   8
ENDBRANCH   3   7
BRANCH   1  22
HETATM   22  C   UNL     1      33.555  51.391  43.228  1.00  0.00     0.127 C 
BRANCH  22  23
HETATM   23  N   UNL     1      34.975  51.237  42.922  1.00  0.00    -0.376 N 
HETATM   24  H   UNL     1      35.262  50.399  42.432  1.00  0.00     0.161 HD
BRANCH  23  25
HETATM   25  C   UNL     1      35.891  52.243  43.160  1.00  0.00     0.101 A 
HETATM   26  N   UNL     1      36.405  52.896  42.101  1.00  0.00    -0.347 N 
HETATM   27  C   UNL     1      37.307  53.893  42.189  1.00  0.00     0.007 A 
HETATM   28  H   UNL     1      36.093  52.613  41.179  1.00  0.00     0.167 HD
HETATM   29  C   UNL     1      37.806  54.534  40.934  1.00  0.00     0.068 C 
HETATM   30  C   UNL     1      37.754  54.297  43.444  1.00  0.00     0.025 A 
HETATM   31  C   UNL     1      37.262  53.659  44.574  1.00  0.00     0.006 A 
HETATM   32  C   UNL     1      36.334  52.629  44.431  1.00  0.00     0.048 A 
ENDBRANCH  23  25
ENDBRANCH  22  23
ENDBRANCH   1  22
TORSDOF 6
ENDMDL
MODEL 10
REMARK VINA RESULT:      -8.4      7.468     13.031
REMARK  6 active torsions:
REMARK  status: ('A' for Active; 'I' for Inactive)
REMARK    1  A    between atoms: C_5  and  N_6 
REMARK    2  A    between atoms: N_6  and  C_7 
REMARK    3  A    between atoms: C_7  and  C_8 
REMARK    4  A    between atoms: N_10  and  C_12 
REMARK    5  A    between atoms: C_12  and  C_13 
REMARK    6  A    between atoms: C_14  and  C_15 
ROOT
HETATM    1  C   UNL     1      18.749  48.168  48.071  1.00  0.00     0.031 C 
HETATM    2  C   UNL     1      17.376  47.679  48.539  1.00  0.00     0.241 C 
HETATM    3  N   UNL     1      16.498  47.740  47.303  1.00  0.00    -0.067 N 
HETATM    4  H   UNL     1      16.150  46.790  47.114  1.00  0.00     0.280 HD
HETATM    5  C   UNL     1      17.366  48.139  46.136  1.00  0.00     0.235 C 
HETATM    6  C   UNL     1      18.767  47.775  46.598  1.00  0.00     0.035 C 
ENDROOT
BRANCH   3   7
HETATM    7  C   UNL     1      15.251  48.585  47.436  1.00  0.00     0.277 C 
BRANCH   7   8
HETATM    8  C   UNL     1      15.198  49.739  46.500  1.00  0.00     0.016 A 
HETATM    9  C   UNL     1      15.883  50.992  46.645  1.00  0.00     0.102 A 
HETATM   10  N   UNL     1      15.592  51.803  45.623  1.00  0.00    -0.174 NA
HETATM   11  N   UNL     1      14.810  51.095  44.809  1.00  0.00    -0.288 N 
HETATM   12  H   UNL     1      14.509  51.528  43.938  1.00  0.00     0.188 HD
HETATM   13  C   UNL     1      14.526  49.851  45.294  1.00  0.00     0.120 A 
BRANCH   9  14
HETATM   14  C   UNL     1      16.809  51.427  47.686  1.00  0.00     0.072 A 
HETATM   15  C   UNL     1      18.172  51.583  47.417  1.00  0.00     0.132 A 
HETATM   16  F   UNL     1      18.665  51.258  46.211  1.00  0.00    -0.205 F 
HETATM   17  C   UNL     1      19.059  52.054  48.386  1.00  0.00     0.043 A 
HETATM   18  C   UNL     1      18.587  52.378  49.656  1.00  0.00     0.006 A 
HETATM   19  C   UNL     1      17.234  52.214  49.951  1.00  0.00     0.043 A 
HETATM   20  C   UNL     1      16.358  51.742  48.971  1.00  0.00     0.132 A 
HETATM   21  F   UNL     1      15.076  51.551  49.313  1.00  0.00    -0.205 F 
ENDBRANCH   9  14
ENDBRANCH   7   8
ENDBRANCH   3   7
BRANCH   1  22
HETATM   22  C   UNL     1      19.891  47.573  48.905  1.00  0.00     0.127 C 
BRANCH  22  23
HETATM   23  N   UNL     1      20.660  48.615  49.582  1.00  0.00    -0.376 N 
HETATM   24  H   UNL     1      20.295  48.977  50.454  1.00  0.00     0.161 HD
BRANCH  23  25
HETATM   25  C   UNL     1      21.907  49.010  49.140  1.00  0.00     0.101 A 
HETATM   26  N   UNL     1      22.983  48.340  49.595  1.00  0.00    -0.347 N 
HETATM   27  C   UNL     1      24.254  48.622  49.249  1.00  0.00     0.007 A 
HETATM   28  H   UNL     1      22.820  47.577  50.242  1.00  0.00     0.167 HD
HETATM   29  C   UNL     1      25.363  47.804  49.831  1.00  0.00     0.068 C 
HETATM   30  C   UNL     1      24.503  49.667  48.364  1.00  0.00     0.025 A 
HETATM   31  C   UNL     1      23.435  50.397  47.863  1.00  0.00     0.006 A 
HETATM   32  C   UNL     1      22.137  50.071  48.255  1.00  0.00     0.048 A 
ENDBRANCH  23  25
ENDBRANCH  22  23
ENDBRANCH   1  22
TORSDOF 6
ENDMDL
