MODEL 1
REMARK VINA RESULT:      -7.0      0.000      0.000
REMARK  5 active torsions:
REMARK  status: ('A' for Active; 'I' for Inactive)
REMARK    1  A    between atoms: C_2  and  O_3 
REMARK    2  A    between atoms: C_4  and  C_5 
REMARK    3  A    between atoms: C_5  and  O_6 
REMARK    4  A    between atoms: C_9  and  C_10 
REMARK    5  A    between atoms: C_22  and  O_23 
ROOT
HETATM    1  C   UNL     1      31.020  53.086  41.575  1.00  0.00     0.047 C 
HETATM    2  C   UNL     1      31.503  52.201  40.410  1.00  0.00     0.073 C 
HETATM    3  C   UNL     1      30.263  51.628  39.631  1.00  0.00     0.133 C 
HETATM    4  C   UNL     1      29.507  50.453  40.341  1.00  0.00     0.074 C 
HETATM    5  C   UNL     1      30.330  49.777  41.390  1.00  0.00     0.030 A 
HETATM    6  C   UNL     1      31.655  50.064  41.635  1.00  0.00     0.042 A 
HETATM    7  N   UNL     1      32.050  49.278  42.679  1.00  0.00    -0.279 N 
HETATM    8  H   UNL     1      32.960  49.225  43.128  1.00  0.00     0.189 HD
HETATM    9  N   UNL     1      31.043  48.524  43.171  1.00  0.00    -0.149 NA
HETATM   10  C   UNL     1      30.023  48.849  42.387  1.00  0.00     0.190 A 
HETATM   11  C   UNL     1      32.458  51.092  40.944  1.00  0.00     0.097 C 
ENDROOT
BRANCH   4  12
HETATM   12  C   UNL     1      28.993  49.333  39.441  1.00  0.00    -0.048 A 
HETATM   13  C   UNL     1      27.690  49.332  38.904  1.00  0.00     0.009 A 
HETATM   14  C   UNL     1      27.239  48.277  38.107  1.00  0.00     0.024 A 
HETATM   15  C   UNL     1      28.086  47.207  37.838  1.00  0.00     0.034 A 
HETATM   16 CL   UNL     1      27.530  45.904  36.862  1.00  0.00    -0.084 Cl
HETATM   17  C   UNL     1      29.377  47.183  38.358  1.00  0.00     0.024 A 
HETATM   18  C   UNL     1      29.829  48.239  39.156  1.00  0.00     0.009 A 
ENDBRANCH   4  12
BRANCH   3  19
HETATM   19  C   UNL     1      30.651  51.305  38.201  1.00  0.00     0.266 C 
HETATM   20  O   UNL     1      31.673  50.715  37.874  1.00  0.00    -0.265 OA
BRANCH  19  21
HETATM   21  O   UNL     1      29.725  51.809  37.335  1.00  0.00    -0.326 OA
HETATM   22  C   UNL     1      28.936  52.874  37.866  1.00  0.00     0.213 C 
ENDBRANCH  19  21
ENDBRANCH   3  19
BRANCH   2  23
HETATM   23  O   UNL     1      32.260  53.094  39.573  1.00  0.00    -0.389 OA
HETATM   24  H   UNL     1      33.206  52.996  39.810  1.00  0.00     0.210 HD
ENDBRANCH   2  23
BRANCH  10  25
HETATM   25  O   UNL     1      28.866  48.273  42.689  1.00  0.00    -0.343 OA
HETATM   26  H   UNL     1      28.266  49.014  42.880  1.00  0.00     0.219 HD
ENDBRANCH  10  25
TORSDOF 5
ENDMDL
MODEL 2
REMARK VINA RESULT:      -6.9      1.757      2.331
REMARK  5 active torsions:
REMARK  status: ('A' for Active; 'I' for Inactive)
REMARK    1  A    between atoms: C_2  and  O_3 
REMARK    2  A    between atoms: C_4  and  C_5 
REMARK    3  A    between atoms: C_5  and  O_6 
REMARK    4  A    between atoms: C_9  and  C_10 
REMARK    5  A    between atoms: C_22  and  O_23 
ROOT
HETATM    1  C   UNL     1      28.544  53.037  41.218  1.00  0.00     0.047 C 
HETATM    2  C   UNL     1      29.201  52.364  39.997  1.00  0.00     0.073 C 
HETATM    3  C   UNL     1      28.559  50.948  39.763  1.00  0.00     0.133 C 
HETATM    4  C   UNL     1      29.022  49.827  40.756  1.00  0.00     0.074 C 
HETATM    5  C   UNL     1      30.304  50.155  41.451  1.00  0.00     0.030 A 
HETATM    6  C   UNL     1      31.072  51.263  41.172  1.00  0.00     0.042 A 
HETATM    7  N   UNL     1      32.136  51.242  42.027  1.00  0.00    -0.279 N 
HETATM    8  H   UNL     1      32.903  51.903  42.106  1.00  0.00     0.189 HD
HETATM    9  N   UNL     1      32.085  50.206  42.892  1.00  0.00    -0.149 NA
HETATM   10  C   UNL     1      30.974  49.577  42.532  1.00  0.00     0.190 A 
HETATM   11  C   UNL     1      30.747  52.314  40.186  1.00  0.00     0.097 C 
ENDROOT
BRANCH   4  12
HETATM   12  C   UNL     1      29.224  48.436  40.163  1.00  0.00    -0.048 A 
HETATM   13  C   UNL     1      30.343  48.105  39.373  1.00  0.00     0.009 A 
HETATM   14  C   UNL     1      30.484  46.830  38.820  1.00  0.00     0.024 A 
HETATM   15  C   UNL     1      29.506  45.868  39.049  1.00  0.00     0.034 A 
HETATM   16 CL   UNL     1      29.674  44.299  38.364  1.00  0.00    -0.084 Cl
HETATM   17  C   UNL     1      28.390  46.170  39.826  1.00  0.00     0.024 A 
HETATM   18  C   UNL     1      28.248  47.447  40.378  1.00  0.00     0.009 A 
ENDBRANCH   4  12
BRANCH   3  19
HETATM   19  C   UNL     1      28.700  50.547  38.308  1.00  0.00     0.266 C 
HETATM   20  O   UNL     1      29.647  50.848  37.592  1.00  0.00    -0.265 OA
BRANCH  19  21
HETATM   21  O   UNL     1      27.601  49.849  37.902  1.00  0.00    -0.326 OA
HETATM   22  C   UNL     1      26.355  50.436  38.279  1.00  0.00     0.213 C 
ENDBRANCH  19  21
ENDBRANCH   3  19
BRANCH   2  23
HETATM   23  O   UNL     1      28.902  53.246  38.900  1.00  0.00    -0.389 OA
HETATM   24  H   UNL     1      29.627  53.903  38.838  1.00  0.00     0.210 HD
ENDBRANCH   2  23
BRANCH  10  25
HETATM   25  O   UNL     1      30.652  48.520  43.269  1.00  0.00    -0.343 OA
HETATM   26  H   UNL     1      30.792  47.760  42.679  1.00  0.00     0.219 HD
ENDBRANCH  10  25
TORSDOF 5
ENDMDL
MODEL 3
REMARK VINA RESULT:      -6.9      3.216      4.994
REMARK  5 active torsions:
REMARK  status: ('A' for Active; 'I' for Inactive)
REMARK    1  A    between atoms: C_2  and  O_3 
REMARK    2  A    between atoms: C_4  and  C_5 
REMARK    3  A    between atoms: C_5  and  O_6 
REMARK    4  A    between atoms: C_9  and  C_10 
REMARK    5  A    between atoms: C_22  and  O_23 
ROOT
HETATM    1  C   UNL     1      26.639  50.488  39.211  1.00  0.00     0.047 C 
HETATM    2  C   UNL     1      27.491  50.959  40.406  1.00  0.00     0.073 C 
HETATM    3  C   UNL     1      28.817  51.622  39.883  1.00  0.00     0.133 C 
HETATM    4  C   UNL     1      29.911  50.624  39.369  1.00  0.00     0.074 C 
HETATM    5  C   UNL     1      29.712  49.230  39.869  1.00  0.00     0.030 A 
HETATM    6  C   UNL     1      28.748  48.868  40.782  1.00  0.00     0.042 A 
HETATM    7  N   UNL     1      28.850  47.519  40.964  1.00  0.00    -0.279 N 
HETATM    8  H   UNL     1      28.299  46.912  41.564  1.00  0.00     0.189 HD
HETATM    9  N   UNL     1      29.798  46.962  40.179  1.00  0.00    -0.149 NA
HETATM   10  C   UNL     1      30.292  48.006  39.527  1.00  0.00     0.190 A 
HETATM   11  C   UNL     1      27.742  49.770  41.381  1.00  0.00     0.097 C 
ENDROOT
BRANCH   4  12
HETATM   12  C   UNL     1      31.359  50.974  39.698  1.00  0.00    -0.048 A 
HETATM   13  C   UNL     1      31.954  50.645  40.934  1.00  0.00     0.009 A 
HETATM   14  C   UNL     1      33.273  51.005  41.217  1.00  0.00     0.024 A 
HETATM   15  C   UNL     1      34.016  51.701  40.269  1.00  0.00     0.034 A 
HETATM   16 CL   UNL     1      35.639  52.151  40.618  1.00  0.00    -0.084 Cl
HETATM   17  C   UNL     1      33.451  52.038  39.041  1.00  0.00     0.024 A 
HETATM   18  C   UNL     1      32.129  51.679  38.758  1.00  0.00     0.009 A 
ENDBRANCH   4  12
BRANCH   3  19
HETATM   19  C   UNL     1      29.347  52.605  40.909  1.00  0.00     0.266 C 
HETATM   20  O   UNL     1      29.403  52.391  42.114  1.00  0.00    -0.265 OA
BRANCH  19  21
HETATM   21  O   UNL     1      29.703  53.774  40.303  1.00  0.00    -0.326 OA
HETATM   22  C   UNL     1      30.915  54.350  40.792  1.00  0.00     0.213 C 
ENDBRANCH  19  21
ENDBRANCH   3  19
BRANCH   2  23
HETATM   23  O   UNL     1      26.665  51.930  41.073  1.00  0.00    -0.389 OA
HETATM   24  H   UNL     1      26.524  51.622  41.992  1.00  0.00     0.210 HD
ENDBRANCH   2  23
BRANCH  10  25
HETATM   25  O   UNL     1      31.232  47.728  38.632  1.00  0.00    -0.343 OA
HETATM   26  H   UNL     1      31.973  48.311  38.868  1.00  0.00     0.219 HD
ENDBRANCH  10  25
TORSDOF 5
ENDMDL
MODEL 4
REMARK VINA RESULT:      -6.8      3.306      5.241
REMARK  5 active torsions:
REMARK  status: ('A' for Active; 'I' for Inactive)
REMARK    1  A    between atoms: C_2  and  O_3 
REMARK    2  A    between atoms: C_4  and  C_5 
REMARK    3  A    between atoms: C_5  and  O_6 
REMARK    4  A    between atoms: C_9  and  C_10 
REMARK    5  A    between atoms: C_22  and  O_23 
ROOT
HETATM    1  C   UNL     1      25.817  48.704  38.030  1.00  0.00     0.047 C 
HETATM    2  C   UNL     1      26.144  49.288  39.418  1.00  0.00     0.073 C 
HETATM    3  C   UNL     1      27.582  49.925  39.398  1.00  0.00     0.133 C 
HETATM    4  C   UNL     1      28.770  48.903  39.437  1.00  0.00     0.074 C 
HETATM    5  C   UNL     1      28.365  47.554  39.937  1.00  0.00     0.030 A 
HETATM    6  C   UNL     1      27.114  47.257  40.430  1.00  0.00     0.042 A 
HETATM    7  N   UNL     1      27.112  45.930  40.751  1.00  0.00    -0.279 N 
HETATM    8  H   UNL     1      26.359  45.369  41.138  1.00  0.00     0.189 HD
HETATM    9  N   UNL     1      28.280  45.322  40.448  1.00  0.00    -0.149 NA
HETATM   10  C   UNL     1      29.008  46.315  39.954  1.00  0.00     0.190 A 
HETATM   11  C   UNL     1      25.973  48.191  40.510  1.00  0.00     0.097 C 
ENDROOT
BRANCH   4  12
HETATM   12  C   UNL     1      29.982  49.302  40.274  1.00  0.00    -0.048 A 
HETATM   13  C   UNL     1      30.081  49.008  41.650  1.00  0.00     0.009 A 
HETATM   14  C   UNL     1      31.191  49.413  42.395  1.00  0.00     0.024 A 
HETATM   15  C   UNL     1      32.217  50.118  41.776  1.00  0.00     0.034 A 
HETATM   16 CL   UNL     1      33.582  50.623  42.693  1.00  0.00    -0.084 Cl
HETATM   17  C   UNL     1      32.142  50.422  40.418  1.00  0.00     0.024 A 
HETATM   18  C   UNL     1      31.031  50.018  39.672  1.00  0.00     0.009 A 
ENDBRANCH   4  12
BRANCH   3  19
HETATM   19  C   UNL     1      27.690  51.000  40.462  1.00  0.00     0.266 C 
HETATM   20  O   UNL     1      27.389  50.846  41.639  1.00  0.00    -0.265 OA
BRANCH  19  21
HETATM   21  O   UNL     1      28.119  52.170  39.908  1.00  0.00    -0.326 OA
HETATM   22  C   UNL     1      28.980  52.941  40.747  1.00  0.00     0.213 C 
ENDBRANCH  19  21
ENDBRANCH   3  19
BRANCH   2  23
HETATM   23  O   UNL     1      25.143  50.301  39.625  1.00  0.00    -0.389 OA
HETATM   24  H   UNL     1      24.758  50.523  38.751  1.00  0.00     0.210 HD
ENDBRANCH   2  23
BRANCH  10  25
HETATM   25  O   UNL     1      30.218  45.975  39.523  1.00  0.00    -0.343 OA
HETATM   26  H   UNL     1      30.527  45.312  40.163  1.00  0.00     0.219 HD
ENDBRANCH  10  25
TORSDOF 5
ENDMDL
MODEL 5
REMARK VINA RESULT:      -6.8     26.102     27.229
REMARK  5 active torsions:
REMARK  status: ('A' for Active; 'I' for Inactive)
REMARK    1  A    between atoms: C_2  and  O_3 
REMARK    2  A    between atoms: C_4  and  C_5 
REMARK    3  A    between atoms: C_5  and  O_6 
REMARK    4  A    between atoms: C_9  and  C_10 
REMARK    5  A    between atoms: C_22  and  O_23 
ROOT
HETATM    1  C   UNL     1      36.216  47.414  65.203  1.00  0.00     0.047 C 
HETATM    2  C   UNL     1      37.392  46.596  65.771  1.00  0.00     0.073 C 
HETATM    3  C   UNL     1      37.902  45.579  64.686  1.00  0.00     0.133 C 
HETATM    4  C   UNL     1      36.999  44.316  64.470  1.00  0.00     0.074 C 
HETATM    5  C   UNL     1      36.073  44.057  65.614  1.00  0.00     0.030 A 
HETATM    6  C   UNL     1      36.084  44.769  66.792  1.00  0.00     0.042 A 
HETATM    7  N   UNL     1      35.081  44.272  67.573  1.00  0.00    -0.279 N 
HETATM    8  H   UNL     1      34.798  44.558  68.506  1.00  0.00     0.189 HD
HETATM    9  N   UNL     1      34.373  43.304  66.953  1.00  0.00    -0.149 NA
HETATM   10  C   UNL     1      34.981  43.202  65.778  1.00  0.00     0.190 A 
HETATM   11  C   UNL     1      36.969  45.910  67.104  1.00  0.00     0.097 C 
ENDROOT
BRANCH   4  12
HETATM   12  C   UNL     1      37.723  42.996  64.223  1.00  0.00    -0.048 A 
HETATM   13  C   UNL     1      38.146  42.158  65.275  1.00  0.00     0.009 A 
HETATM   14  C   UNL     1      38.833  40.970  65.017  1.00  0.00     0.024 A 
HETATM   15  C   UNL     1      39.107  40.603  63.704  1.00  0.00     0.034 A 
HETATM   16 CL   UNL     1      39.959  39.143  63.384  1.00  0.00    -0.084 Cl
HETATM   17  C   UNL     1      38.700  41.415  62.647  1.00  0.00     0.024 A 
HETATM   18  C   UNL     1      38.013  42.605  62.905  1.00  0.00     0.009 A 
ENDBRANCH   4  12
BRANCH   3  19
HETATM   19  C   UNL     1      39.355  45.230  64.942  1.00  0.00     0.266 C 
HETATM   20  O   UNL     1      39.829  44.990  66.045  1.00  0.00    -0.265 OA
BRANCH  19  21
HETATM   21  O   UNL     1      40.064  45.273  63.777  1.00  0.00    -0.326 OA
HETATM   22  C   UNL     1      41.190  44.397  63.736  1.00  0.00     0.213 C 
ENDBRANCH  19  21
ENDBRANCH   3  19
BRANCH   2  23
HETATM   23  O   UNL     1      38.403  47.578  66.062  1.00  0.00    -0.389 OA
HETATM   24  H   UNL     1      38.170  48.003  66.914  1.00  0.00     0.210 HD
ENDBRANCH   2  23
BRANCH  10  25
HETATM   25  O   UNL     1      34.444  42.331  64.931  1.00  0.00    -0.343 OA
HETATM   26  H   UNL     1      34.605  41.464  65.338  1.00  0.00     0.219 HD
ENDBRANCH  10  25
TORSDOF 5
ENDMDL
MODEL 6
REMARK VINA RESULT:      -6.8      2.632      3.968
REMARK  5 active torsions:
REMARK  status: ('A' for Active; 'I' for Inactive)
REMARK    1  A    between atoms: C_2  and  O_3 
REMARK    2  A    between atoms: C_4  and  C_5 
REMARK    3  A    between atoms: C_5  and  O_6 
REMARK    4  A    between atoms: C_9  and  C_10 
REMARK    5  A    between atoms: C_22  and  O_23 
ROOT
HETATM    1  C   UNL     1      33.544  52.778  39.416  1.00  0.00     0.047 C 
HETATM    2  C   UNL     1      32.946  52.006  40.608  1.00  0.00     0.073 C 
HETATM    3  C   UNL     1      32.618  50.531  40.173  1.00  0.00     0.133 C 
HETATM    4  C   UNL     1      31.333  50.360  39.291  1.00  0.00     0.074 C 
HETATM    5  C   UNL     1      30.400  51.524  39.386  1.00  0.00     0.030 A 
HETATM    6  C   UNL     1      30.575  52.585  40.245  1.00  0.00     0.042 A 
HETATM    7  N   UNL     1      29.550  53.459  40.020  1.00  0.00    -0.279 N 
HETATM    8  H   UNL     1      29.361  54.349  40.471  1.00  0.00     0.189 HD
HETATM    9  N   UNL     1      28.735  53.056  39.022  1.00  0.00    -0.149 NA
HETATM   10  C   UNL     1      29.272  51.900  38.653  1.00  0.00     0.190 A 
HETATM   11  C   UNL     1      31.711  52.769  41.171  1.00  0.00     0.097 C 
ENDROOT
BRANCH   4  12
HETATM   12  C   UNL     1      30.478  49.127  39.567  1.00  0.00    -0.048 A 
HETATM   13  C   UNL     1      29.505  49.094  40.586  1.00  0.00     0.009 A 
HETATM   14  C   UNL     1      28.758  47.940  40.833  1.00  0.00     0.024 A 
HETATM   15  C   UNL     1      28.976  46.801  40.064  1.00  0.00     0.034 A 
HETATM   16 CL   UNL     1      28.062  45.377  40.371  1.00  0.00    -0.084 Cl
HETATM   17  C   UNL     1      29.933  46.808  39.052  1.00  0.00     0.024 A 
HETATM   18  C   UNL     1      30.681  47.963  38.805  1.00  0.00     0.009 A 
ENDBRANCH   4  12
BRANCH   3  19
HETATM   19  C   UNL     1      32.632  49.616  41.382  1.00  0.00     0.266 C 
HETATM   20  O   UNL     1      32.083  49.864  42.449  1.00  0.00    -0.265 OA
BRANCH  19  21
HETATM   21  O   UNL     1      33.383  48.507  41.126  1.00  0.00    -0.326 OA
HETATM   22  C   UNL     1      32.827  47.288  41.621  1.00  0.00     0.213 C 
ENDBRANCH  19  21
ENDBRANCH   3  19
BRANCH   2  23
HETATM   23  O   UNL     1      33.987  52.023  41.602  1.00  0.00    -0.389 OA
HETATM   24  H   UNL     1      34.795  52.385  41.183  1.00  0.00     0.210 HD
ENDBRANCH   2  23
BRANCH  10  25
HETATM   25  O   UNL     1      28.680  51.296  37.629  1.00  0.00    -0.343 OA
HETATM   26  H   UNL     1      28.804  50.347  37.801  1.00  0.00     0.219 HD
ENDBRANCH  10  25
TORSDOF 5
ENDMDL
MODEL 7
REMARK VINA RESULT:      -6.6     25.829     27.174
REMARK  5 active torsions:
REMARK  status: ('A' for Active; 'I' for Inactive)
REMARK    1  A    between atoms: C_2  and  O_3 
REMARK    2  A    between atoms: C_4  and  C_5 
REMARK    3  A    between atoms: C_5  and  O_6 
REMARK    4  A    between atoms: C_9  and  C_10 
REMARK    5  A    between atoms: C_22  and  O_23 
ROOT
HETATM    1  C   UNL     1      37.416  47.817  67.442  1.00  0.00     0.047 C 
HETATM    2  C   UNL     1      36.952  47.280  66.073  1.00  0.00     0.073 C 
HETATM    3  C   UNL     1      37.126  45.717  66.031  1.00  0.00     0.133 C 
HETATM    4  C   UNL     1      38.598  45.210  65.843  1.00  0.00     0.074 C 
HETATM    5  C   UNL     1      39.510  46.256  65.288  1.00  0.00     0.030 A 
HETATM    6  C   UNL     1      39.094  47.499  64.868  1.00  0.00     0.042 A 
HETATM    7  N   UNL     1      40.205  48.181  64.464  1.00  0.00    -0.279 N 
HETATM    8  H   UNL     1      40.275  49.126  64.096  1.00  0.00     0.189 HD
HETATM    9  N   UNL     1      41.341  47.473  64.644  1.00  0.00    -0.149 NA
HETATM   10  C   UNL     1      40.898  46.329  65.147  1.00  0.00     0.190 A 
HETATM   11  C   UNL     1      37.711  48.013  64.928  1.00  0.00     0.097 C 
ENDROOT
BRANCH   4  12
HETATM   12  C   UNL     1      38.786  43.988  64.949  1.00  0.00    -0.048 A 
HETATM   13  C   UNL     1      38.994  44.093  63.558  1.00  0.00     0.009 A 
HETATM   14  C   UNL     1      39.134  42.954  62.763  1.00  0.00     0.024 A 
HETATM   15  C   UNL     1      39.066  41.693  63.346  1.00  0.00     0.034 A 
HETATM   16 CL   UNL     1      39.232  40.289  62.367  1.00  0.00    -0.084 Cl
HETATM   17  C   UNL     1      38.860  41.563  64.717  1.00  0.00     0.024 A 
HETATM   18  C   UNL     1      38.720  42.703  65.515  1.00  0.00     0.009 A 
ENDBRANCH   4  12
BRANCH   3  19
HETATM   19  C   UNL     1      36.159  45.112  65.033  1.00  0.00     0.266 C 
HETATM   20  O   UNL     1      35.968  45.541  63.902  1.00  0.00    -0.265 OA
BRANCH  19  21
HETATM   21  O   UNL     1      35.499  44.058  65.594  1.00  0.00    -0.326 OA
HETATM   22  C   UNL     1      35.252  44.192  66.994  1.00  0.00     0.213 C 
ENDBRANCH  19  21
ENDBRANCH   3  19
BRANCH   2  23
HETATM   23  O   UNL     1      35.560  47.637  66.003  1.00  0.00    -0.389 OA
HETATM   24  H   UNL     1      35.506  48.610  65.904  1.00  0.00     0.210 HD
ENDBRANCH   2  23
BRANCH  10  25
HETATM   25  O   UNL     1      41.835  45.445  65.469  1.00  0.00    -0.343 OA
HETATM   26  H   UNL     1      41.826  44.803  64.739  1.00  0.00     0.219 HD
ENDBRANCH  10  25
TORSDOF 5
ENDMDL
MODEL 8
REMARK VINA RESULT:      -6.6      2.337      3.629
REMARK  5 active torsions:
REMARK  status: ('A' for Active; 'I' for Inactive)
REMARK    1  A    between atoms: C_2  and  O_3 
REMARK    2  A    between atoms: C_4  and  C_5 
REMARK    3  A    between atoms: C_5  and  O_6 
REMARK    4  A    between atoms: C_9  and  C_10 
REMARK    5  A    between atoms: C_22  and  O_23 
ROOT
HETATM    1  C   UNL     1      34.000  50.537  40.540  1.00  0.00     0.047 C 
HETATM    2  C   UNL     1      32.915  49.529  40.967  1.00  0.00     0.073 C 
HETATM    3  C   UNL     1      31.756  49.518  39.903  1.00  0.00     0.133 C 
HETATM    4  C   UNL     1      30.781  50.743  39.959  1.00  0.00     0.074 C 
HETATM    5  C   UNL     1      30.828  51.470  41.264  1.00  0.00     0.030 A 
HETATM    6  C   UNL     1      31.554  51.050  42.356  1.00  0.00     0.042 A 
HETATM    7  N   UNL     1      31.380  51.981  43.339  1.00  0.00    -0.279 N 
HETATM    8  H   UNL     1      31.768  51.997  44.277  1.00  0.00     0.189 HD
HETATM    9  N   UNL     1      30.618  53.021  42.937  1.00  0.00    -0.149 NA
HETATM   10  C   UNL     1      30.309  52.695  41.689  1.00  0.00     0.190 A 
HETATM   11  C   UNL     1      32.423  49.856  42.408  1.00  0.00     0.097 C 
ENDROOT
BRANCH   4  12
HETATM   12  C   UNL     1      29.305  50.449  39.708  1.00  0.00    -0.048 A 
HETATM   13  C   UNL     1      28.448  49.966  40.719  1.00  0.00     0.009 A 
HETATM   14  C   UNL     1      27.108  49.678  40.450  1.00  0.00     0.024 A 
HETATM   15  C   UNL     1      26.606  49.868  39.167  1.00  0.00     0.034 A 
HETATM   16 CL   UNL     1      24.957  49.508  38.833  1.00  0.00    -0.084 Cl
HETATM   17  C   UNL     1      27.432  50.343  38.152  1.00  0.00     0.024 A 
HETATM   18  C   UNL     1      28.775  50.630  38.420  1.00  0.00     0.009 A 
ENDBRANCH   4  12
BRANCH   3  19
HETATM   19  C   UNL     1      31.035  48.185  39.935  1.00  0.00     0.266 C 
HETATM   20  O   UNL     1      30.719  47.588  40.957  1.00  0.00    -0.265 OA
BRANCH  19  21
HETATM   21  O   UNL     1      30.837  47.726  38.666  1.00  0.00    -0.326 OA
HETATM   22  C   UNL     1      29.635  46.974  38.489  1.00  0.00     0.213 C 
ENDBRANCH  19  21
ENDBRANCH   3  19
BRANCH   2  23
HETATM   23  O   UNL     1      33.595  48.262  40.991  1.00  0.00    -0.389 OA
HETATM   24  H   UNL     1      34.557  48.437  40.935  1.00  0.00     0.210 HD
ENDBRANCH   2  23
BRANCH  10  25
HETATM   25  O   UNL     1      29.586  53.591  41.027  1.00  0.00    -0.343 OA
HETATM   26  H   UNL     1      29.736  54.425  41.504  1.00  0.00     0.219 HD
ENDBRANCH  10  25
TORSDOF 5
ENDMDL
MODEL 9
REMARK VINA RESULT:      -6.5     12.538     14.332
REMARK  5 active torsions:
REMARK  status: ('A' for Active; 'I' for Inactive)
REMARK    1  A    between atoms: C_2  and  O_3 
REMARK    2  A    between atoms: C_4  and  C_5 
REMARK    3  A    between atoms: C_5  and  O_6 
REMARK    4  A    between atoms: C_9  and  C_10 
REMARK    5  A    between atoms: C_22  and  O_23 
ROOT
HETATM    1  C   UNL     1      30.149  42.994  52.822  1.00  0.00     0.047 C 
HETATM    2  C   UNL     1      28.861  42.181  52.586  1.00  0.00     0.073 C 
HETATM    3  C   UNL     1      28.139  42.698  51.288  1.00  0.00     0.133 C 
HETATM    4  C   UNL     1      27.371  44.055  51.442  1.00  0.00     0.074 C 
HETATM    5  C   UNL     1      27.069  44.399  52.865  1.00  0.00     0.030 A 
HETATM    6  C   UNL     1      27.323  43.565  53.931  1.00  0.00     0.042 A 
HETATM    7  N   UNL     1      26.951  44.233  55.062  1.00  0.00    -0.279 N 
HETATM    8  H   UNL     1      26.998  43.924  56.029  1.00  0.00     0.189 HD
HETATM    9  N   UNL     1      26.512  45.484  54.805  1.00  0.00    -0.149 NA
HETATM   10  C   UNL     1      26.603  45.561  53.483  1.00  0.00     0.190 A 
HETATM   11  C   UNL     1      27.959  42.234  53.854  1.00  0.00     0.097 C 
ENDROOT
BRANCH   4  12
HETATM   12  C   UNL     1      26.041  44.172  50.703  1.00  0.00    -0.048 A 
HETATM   13  C   UNL     1      25.926  44.804  49.448  1.00  0.00     0.009 A 
HETATM   14  C   UNL     1      24.689  44.921  48.811  1.00  0.00     0.024 A 
HETATM   15  C   UNL     1      23.549  44.408  49.420  1.00  0.00     0.034 A 
HETATM   16 CL   UNL     1      22.023  44.556  48.639  1.00  0.00    -0.084 Cl
HETATM   17  C   UNL     1      23.636  43.780  50.660  1.00  0.00     0.024 A 
HETATM   18  C   UNL     1      24.875  43.664  51.299  1.00  0.00     0.009 A 
ENDBRANCH   4  12
BRANCH   3  19
HETATM   19  C   UNL     1      27.281  41.596  50.697  1.00  0.00     0.266 C 
HETATM   20  O   UNL     1      26.598  40.819  51.351  1.00  0.00    -0.265 OA
BRANCH  19  21
HETATM   21  O   UNL     1      27.422  41.565  49.340  1.00  0.00    -0.326 OA
HETATM   22  C   UNL     1      28.182  40.461  48.849  1.00  0.00     0.213 C 
ENDBRANCH  19  21
ENDBRANCH   3  19
BRANCH   2  23
HETATM   23  O   UNL     1      29.321  40.829  52.408  1.00  0.00    -0.389 OA
HETATM   24  H   UNL     1      29.930  40.819  51.640  1.00  0.00     0.210 HD
ENDBRANCH   2  23
BRANCH  10  25
HETATM   25  O   UNL     1      26.270  46.734  52.956  1.00  0.00    -0.343 OA
HETATM   26  H   UNL     1      26.468  46.640  52.009  1.00  0.00     0.219 HD
ENDBRANCH  10  25
TORSDOF 5
ENDMDL
MODEL 10
REMARK VINA RESULT:      -6.3     26.382     27.720
REMARK  5 active torsions:
REMARK  status: ('A' for Active; 'I' for Inactive)
REMARK    1  A    between atoms: C_2  and  O_3 
REMARK    2  A    between atoms: C_4  and  C_5 
REMARK    3  A    between atoms: C_5  and  O_6 
REMARK    4  A    between atoms: C_9  and  C_10 
REMARK    5  A    between atoms: C_22  and  O_23 
ROOT
HETATM    1  C   UNL     1      38.195  41.980  63.000  1.00  0.00     0.047 C 
HETATM    2  C   UNL     1      37.933  42.329  64.478  1.00  0.00     0.073 C 
HETATM    3  C   UNL     1      37.224  43.730  64.574  1.00  0.00     0.133 C 
HETATM    4  C   UNL     1      38.153  44.971  64.342  1.00  0.00     0.074 C 
HETATM    5  C   UNL     1      39.604  44.657  64.519  1.00  0.00     0.030 A 
HETATM    6  C   UNL     1      40.082  43.443  64.959  1.00  0.00     0.042 A 
HETATM    7  N   UNL     1      41.445  43.524  64.957  1.00  0.00    -0.279 N 
HETATM    8  H   UNL     1      42.126  42.817  65.220  1.00  0.00     0.189 HD
HETATM    9  N   UNL     1      41.894  44.709  64.491  1.00  0.00    -0.149 NA
HETATM   10  C   UNL     1      40.771  45.365  64.227  1.00  0.00     0.190 A 
HETATM   11  C   UNL     1      39.264  42.258  65.285  1.00  0.00     0.097 C 
ENDROOT
BRANCH   4  12
HETATM   12  C   UNL     1      37.889  46.191  65.219  1.00  0.00    -0.048 A 
HETATM   13  C   UNL     1      38.553  46.399  66.445  1.00  0.00     0.009 A 
HETATM   14  C   UNL     1      38.268  47.512  67.240  1.00  0.00     0.024 A 
HETATM   15  C   UNL     1      37.312  48.431  66.820  1.00  0.00     0.034 A 
HETATM   16 CL   UNL     1      36.954  49.799  67.801  1.00  0.00    -0.084 Cl
HETATM   17  C   UNL     1      36.640  48.247  65.614  1.00  0.00     0.024 A 
HETATM   18  C   UNL     1      36.926  47.133  64.818  1.00  0.00     0.009 A 
ENDBRANCH   4  12
BRANCH   3  19
HETATM   19  C   UNL     1      36.424  43.821  65.858  1.00  0.00     0.266 C 
HETATM   20  O   UNL     1      36.867  43.575  66.973  1.00  0.00    -0.265 OA
BRANCH  19  21
HETATM   21  O   UNL     1      35.132  44.164  65.586  1.00  0.00    -0.326 OA
HETATM   22  C   UNL     1      34.165  43.185  65.968  1.00  0.00     0.213 C 
ENDBRANCH  19  21
ENDBRANCH   3  19
BRANCH   2  23
HETATM   23  O   UNL     1      37.060  41.285  64.942  1.00  0.00    -0.389 OA
HETATM   24  H   UNL     1      37.546  40.766  65.617  1.00  0.00     0.210 HD
ENDBRANCH   2  23
BRANCH  10  25
HETATM   25  O   UNL     1      40.927  46.573  63.698  1.00  0.00    -0.343 OA
HETATM   26  H   UNL     1      40.039  46.967  63.725  1.00  0.00     0.219 HD
ENDBRANCH  10  25
TORSDOF 5
ENDMDL
