MODEL 1
REMARK VINA RESULT:      -9.2      0.000      0.000
REMARK  5 active torsions:
REMARK  status: ('A' for Active; 'I' for Inactive)
REMARK    1  A    between atoms: C_2  and  O_3 
REMARK    2  A    between atoms: O_3  and  C_4 
REMARK    3  A    between atoms: C_7  and  C_8 
REMARK       I    between atoms: C_8  and  N_9 
REMARK    4  A    between atoms: N_12  and  C_13 
REMARK    5  A    between atoms: C_17  and  C_18 
ROOT
HETATM    1  C   UNL     1      27.044  44.035  50.560  1.00  0.00     0.253 C 
HETATM    2  N   UNL     1      26.050  44.985  50.339  1.00  0.00    -0.345 N 
HETATM    3  C   UNL     1      25.199  44.813  49.156  1.00  0.00     0.146 C 
HETATM    4  C   UNL     1      23.806  45.428  49.369  1.00  0.00     0.144 C 
HETATM    5  N   UNL     1      23.917  46.827  49.825  1.00  0.00    -0.363 N 
HETATM    6  C   UNL     1      24.757  47.014  51.018  1.00  0.00     0.144 C 
HETATM    7  C   UNL     1      26.146  46.378  50.804  1.00  0.00     0.146 C 
HETATM    8  O   UNL     1      27.295  43.129  49.769  1.00  0.00    -0.267 OA
ENDROOT
BRANCH   5   9
HETATM    9  C   UNL     1      23.280  47.839  49.173  1.00  0.00     0.122 A 
HETATM   10  N   UNL     1      23.922  48.764  48.390  1.00  0.00    -0.262 N 
HETATM   11  H   UNL     1      24.914  48.843  48.215  1.00  0.00     0.191 HD
HETATM   12  N   UNL     1      23.114  49.677  47.828  1.00  0.00    -0.173 NA
HETATM   13  C   UNL     1      21.886  49.347  48.259  1.00  0.00     0.090 A 
HETATM   14  C   UNL     1      21.956  48.213  49.117  1.00  0.00     0.084 A 
BRANCH  13  15
HETATM   15  C   UNL     1      20.697  50.103  47.853  1.00  0.00    -0.005 A 
HETATM   16  C   UNL     1      19.828  49.590  46.875  1.00  0.00     0.015 A 
HETATM   17  C   UNL     1      18.692  50.304  46.480  1.00  0.00     0.024 A 
HETATM   18  C   UNL     1      18.413  51.536  47.063  1.00  0.00     0.034 A 
HETATM   19 CL   UNL     1      17.016  52.416  46.580  1.00  0.00    -0.084 Cl
HETATM   20  C   UNL     1      19.258  52.060  48.038  1.00  0.00     0.024 A 
HETATM   21  C   UNL     1      20.395  51.346  48.431  1.00  0.00     0.015 A 
ENDBRANCH  13  15
ENDBRANCH   5   9
BRANCH   1  22
HETATM   22  C   UNL     1      27.791  44.064  51.840  1.00  0.00     0.032 A 
HETATM   23  C   UNL     1      27.275  44.729  52.956  1.00  0.00     0.020 A 
HETATM   24  C   UNL     1      27.968  44.691  54.167  1.00  0.00     0.038 A 
HETATM   25  C   UNL     1      29.150  43.956  54.283  1.00  0.00     0.068 A 
HETATM   26  C   UNL     1      29.660  43.283  53.171  1.00  0.00     0.038 A 
HETATM   27  C   UNL     1      28.976  43.329  51.951  1.00  0.00     0.020 A 
BRANCH  25  28
HETATM   28  O   UNL     1      29.721  43.979  55.525  1.00  0.00    -0.352 OA
BRANCH  28  29
HETATM   29  C   UNL     1      30.955  43.275  55.662  1.00  0.00     0.171 C 
HETATM   30  C   UNL     1      31.460  43.494  57.077  1.00  0.00     0.034 C 
ENDBRANCH  28  29
ENDBRANCH  25  28
ENDBRANCH   1  22
TORSDOF 5
ENDMDL
MODEL 2
REMARK VINA RESULT:      -9.1      5.137     11.192
REMARK  5 active torsions:
REMARK  status: ('A' for Active; 'I' for Inactive)
REMARK    1  A    between atoms: C_2  and  O_3 
REMARK    2  A    between atoms: O_3  and  C_4 
REMARK    3  A    between atoms: C_7  and  C_8 
REMARK       I    between atoms: C_8  and  N_9 
REMARK    4  A    between atoms: N_12  and  C_13 
REMARK    5  A    between atoms: C_17  and  C_18 
ROOT
HETATM    1  C   UNL     1      22.652  47.284  48.241  1.00  0.00     0.253 C 
HETATM    2  N   UNL     1      23.438  46.699  49.230  1.00  0.00    -0.345 N 
HETATM    3  C   UNL     1      24.562  47.482  49.754  1.00  0.00     0.146 C 
HETATM    4  C   UNL     1      24.893  47.095  51.204  1.00  0.00     0.144 C 
HETATM    5  N   UNL     1      25.075  45.635  51.327  1.00  0.00    -0.363 N 
HETATM    6  C   UNL     1      23.950  44.835  50.816  1.00  0.00     0.144 C 
HETATM    7  C   UNL     1      23.612  45.243  49.368  1.00  0.00     0.146 C 
HETATM    8  O   UNL     1      22.912  48.371  47.730  1.00  0.00    -0.267 OA
ENDROOT
BRANCH   5   9
HETATM    9  C   UNL     1      26.204  45.104  51.872  1.00  0.00     0.122 A 
HETATM   10  N   UNL     1      27.031  44.231  51.213  1.00  0.00    -0.262 N 
HETATM   11  H   UNL     1      26.914  43.852  50.283  1.00  0.00     0.191 HD
HETATM   12  N   UNL     1      28.097  43.828  51.922  1.00  0.00    -0.173 NA
HETATM   13  C   UNL     1      27.970  44.456  53.102  1.00  0.00     0.090 A 
HETATM   14  C   UNL     1      26.787  45.248  53.111  1.00  0.00     0.084 A 
BRANCH  13  15
HETATM   15  C   UNL     1      28.958  44.292  54.174  1.00  0.00    -0.005 A 
HETATM   16  C   UNL     1      29.787  43.158  54.207  1.00  0.00     0.015 A 
HETATM   17  C   UNL     1      30.730  42.990  55.226  1.00  0.00     0.024 A 
HETATM   18  C   UNL     1      30.855  43.957  56.219  1.00  0.00     0.034 A 
HETATM   19 CL   UNL     1      32.015  43.755  57.472  1.00  0.00    -0.084 Cl
HETATM   20  C   UNL     1      30.046  45.091  56.201  1.00  0.00     0.024 A 
HETATM   21  C   UNL     1      29.102  45.257  55.183  1.00  0.00     0.015 A 
ENDBRANCH  13  15
ENDBRANCH   5   9
BRANCH   1  22
HETATM   22  C   UNL     1      21.398  46.608  47.828  1.00  0.00     0.032 A 
HETATM   23  C   UNL     1      21.370  45.769  46.710  1.00  0.00     0.020 A 
HETATM   24  C   UNL     1      20.193  45.097  46.376  1.00  0.00     0.038 A 
HETATM   25  C   UNL     1      19.057  45.220  47.180  1.00  0.00     0.068 A 
HETATM   26  C   UNL     1      19.088  46.048  48.304  1.00  0.00     0.038 A 
HETATM   27  C   UNL     1      20.261  46.735  48.633  1.00  0.00     0.020 A 
BRANCH  25  28
HETATM   28  O   UNL     1      17.977  44.494  46.760  1.00  0.00    -0.352 OA
BRANCH  28  29
HETATM   29  C   UNL     1      17.563  44.707  45.411  1.00  0.00     0.171 C 
HETATM   30  C   UNL     1      16.854  46.048  45.348  1.00  0.00     0.034 C 
ENDBRANCH  28  29
ENDBRANCH  25  28
ENDBRANCH   1  22
TORSDOF 5
ENDMDL
MODEL 3
REMARK VINA RESULT:      -9.1      4.791     10.846
REMARK  5 active torsions:
REMARK  status: ('A' for Active; 'I' for Inactive)
REMARK    1  A    between atoms: C_2  and  O_3 
REMARK    2  A    between atoms: O_3  and  C_4 
REMARK    3  A    between atoms: C_7  and  C_8 
REMARK       I    between atoms: C_8  and  N_9 
REMARK    4  A    between atoms: N_12  and  C_13 
REMARK    5  A    between atoms: C_17  and  C_18 
ROOT
HETATM    1  C   UNL     1      22.436  44.084  48.596  1.00  0.00     0.253 C 
HETATM    2  N   UNL     1      23.662  44.133  49.253  1.00  0.00    -0.345 N 
HETATM    3  C   UNL     1      24.462  42.904  49.289  1.00  0.00     0.146 C 
HETATM    4  C   UNL     1      25.965  43.211  49.383  1.00  0.00     0.144 C 
HETATM    5  N   UNL     1      26.241  44.132  50.502  1.00  0.00    -0.363 N 
HETATM    6  C   UNL     1      25.455  45.377  50.475  1.00  0.00     0.144 C 
HETATM    7  C   UNL     1      23.950  45.060  50.360  1.00  0.00     0.146 C 
HETATM    8  O   UNL     1      21.961  43.048  48.135  1.00  0.00    -0.267 OA
ENDROOT
BRANCH   5   9
HETATM    9  C   UNL     1      27.154  43.828  51.465  1.00  0.00     0.122 A 
HETATM   10  N   UNL     1      27.917  42.689  51.459  1.00  0.00    -0.262 N 
HETATM   11  H   UNL     1      27.894  41.933  50.788  1.00  0.00     0.191 HD
HETATM   12  N   UNL     1      28.763  42.578  52.495  1.00  0.00    -0.173 NA
HETATM   13  C   UNL     1      28.550  43.687  53.221  1.00  0.00     0.090 A 
HETATM   14  C   UNL     1      27.536  44.481  52.616  1.00  0.00     0.084 A 
BRANCH  13  15
HETATM   15  C   UNL     1      29.300  43.960  54.452  1.00  0.00    -0.005 A 
HETATM   16  C   UNL     1      29.039  45.120  55.200  1.00  0.00     0.015 A 
HETATM   17  C   UNL     1      29.749  45.392  56.373  1.00  0.00     0.024 A 
HETATM   18  C   UNL     1      30.726  44.502  56.812  1.00  0.00     0.034 A 
HETATM   19 CL   UNL     1      31.601  44.831  58.255  1.00  0.00    -0.084 Cl
HETATM   20  C   UNL     1      30.997  43.343  56.087  1.00  0.00     0.024 A 
HETATM   21  C   UNL     1      30.287  43.074  54.912  1.00  0.00     0.015 A 
ENDBRANCH  13  15
ENDBRANCH   5   9
BRANCH   1  22
HETATM   22  C   UNL     1      21.693  45.346  48.371  1.00  0.00     0.032 A 
HETATM   23  C   UNL     1      20.373  45.490  48.810  1.00  0.00     0.020 A 
HETATM   24  C   UNL     1      19.715  46.709  48.640  1.00  0.00     0.038 A 
HETATM   25  C   UNL     1      20.380  47.800  48.075  1.00  0.00     0.068 A 
HETATM   26  C   UNL     1      21.702  47.660  47.647  1.00  0.00     0.038 A 
HETATM   27  C   UNL     1      22.361  46.436  47.802  1.00  0.00     0.020 A 
BRANCH  25  28
HETATM   28  O   UNL     1      19.634  48.942  47.984  1.00  0.00    -0.352 OA
BRANCH  28  29
HETATM   29  C   UNL     1      19.834  49.906  49.018  1.00  0.00     0.171 C 
HETATM   30  C   UNL     1      20.347  51.181  48.372  1.00  0.00     0.034 C 
ENDBRANCH  28  29
ENDBRANCH  25  28
ENDBRANCH   1  22
TORSDOF 5
ENDMDL
MODEL 4
REMARK VINA RESULT:      -8.7      5.058     10.845
REMARK  5 active torsions:
REMARK  status: ('A' for Active; 'I' for Inactive)
REMARK    1  A    between atoms: C_2  and  O_3 
REMARK    2  A    between atoms: O_3  and  C_4 
REMARK    3  A    between atoms: C_7  and  C_8 
REMARK       I    between atoms: C_8  and  N_9 
REMARK    4  A    between atoms: N_12  and  C_13 
REMARK    5  A    between atoms: C_17  and  C_18 
ROOT
HETATM    1  C   UNL     1      24.270  49.810  48.345  1.00  0.00     0.253 C 
HETATM    2  N   UNL     1      24.698  48.691  49.054  1.00  0.00    -0.345 N 
HETATM    3  C   UNL     1      26.141  48.433  49.107  1.00  0.00     0.146 C 
HETATM    4  C   UNL     1      26.533  47.676  50.387  1.00  0.00     0.144 C 
HETATM    5  N   UNL     1      25.705  46.466  50.552  1.00  0.00    -0.363 N 
HETATM    6  C   UNL     1      24.254  46.709  50.513  1.00  0.00     0.144 C 
HETATM    7  C   UNL     1      23.872  47.485  49.236  1.00  0.00     0.146 C 
HETATM    8  O   UNL     1      25.030  50.525  47.696  1.00  0.00    -0.267 OA
ENDROOT
BRANCH   5   9
HETATM    9  C   UNL     1      26.268  45.238  50.724  1.00  0.00     0.122 A 
HETATM   10  N   UNL     1      26.700  44.761  51.935  1.00  0.00    -0.262 N 
HETATM   11  H   UNL     1      26.690  45.238  52.826  1.00  0.00     0.191 HD
HETATM   12  N   UNL     1      27.220  43.524  51.895  1.00  0.00    -0.173 NA
HETATM   13  C   UNL     1      27.133  43.167  50.604  1.00  0.00     0.090 A 
HETATM   14  C   UNL     1      26.560  44.223  49.840  1.00  0.00     0.084 A 
BRANCH  13  15
HETATM   15  C   UNL     1      27.590  41.855  50.133  1.00  0.00    -0.005 A 
HETATM   16  C   UNL     1      28.188  40.949  51.025  1.00  0.00     0.015 A 
HETATM   17  C   UNL     1      28.629  39.697  50.587  1.00  0.00     0.024 A 
HETATM   18  C   UNL     1      28.471  39.337  49.251  1.00  0.00     0.034 A 
HETATM   19 CL   UNL     1      29.010  37.797  48.709  1.00  0.00    -0.084 Cl
HETATM   20  C   UNL     1      27.876  40.218  48.352  1.00  0.00     0.024 A 
HETATM   21  C   UNL     1      27.437  41.471  48.791  1.00  0.00     0.015 A 
ENDBRANCH  13  15
ENDBRANCH   5   9
BRANCH   1  22
HETATM   22  C   UNL     1      22.846  50.212  48.432  1.00  0.00     0.032 A 
HETATM   23  C   UNL     1      22.340  50.818  49.586  1.00  0.00     0.020 A 
HETATM   24  C   UNL     1      21.011  51.241  49.621  1.00  0.00     0.038 A 
HETATM   25  C   UNL     1      20.195  51.106  48.495  1.00  0.00     0.068 A 
HETATM   26  C   UNL     1      20.703  50.511  47.339  1.00  0.00     0.038 A 
HETATM   27  C   UNL     1      22.031  50.071  47.303  1.00  0.00     0.020 A 
BRANCH  25  28
HETATM   28  O   UNL     1      18.922  51.580  48.649  1.00  0.00    -0.352 OA
BRANCH  28  29
HETATM   29  C   UNL     1      18.295  51.299  49.900  1.00  0.00     0.171 C 
HETATM   30  C   UNL     1      16.967  52.036  49.930  1.00  0.00     0.034 C 
ENDBRANCH  28  29
ENDBRANCH  25  28
ENDBRANCH   1  22
TORSDOF 5
ENDMDL
MODEL 5
REMARK VINA RESULT:      -8.5     19.826     23.196
REMARK  5 active torsions:
REMARK  status: ('A' for Active; 'I' for Inactive)
REMARK    1  A    between atoms: C_2  and  O_3 
REMARK    2  A    between atoms: O_3  and  C_4 
REMARK    3  A    between atoms: C_7  and  C_8 
REMARK       I    between atoms: C_8  and  N_9 
REMARK    4  A    between atoms: N_12  and  C_13 
REMARK    5  A    between atoms: C_17  and  C_18 
ROOT
HETATM    1  C   UNL     1      37.346  46.837  64.348  1.00  0.00     0.253 C 
HETATM    2  N   UNL     1      38.060  45.655  64.180  1.00  0.00    -0.345 N 
HETATM    3  C   UNL     1      37.583  44.714  63.160  1.00  0.00     0.146 C 
HETATM    4  C   UNL     1      38.732  43.865  62.593  1.00  0.00     0.144 C 
HETATM    5  N   UNL     1      39.496  43.225  63.682  1.00  0.00    -0.363 N 
HETATM    6  C   UNL     1      39.993  44.158  64.707  1.00  0.00     0.144 C 
HETATM    7  C   UNL     1      38.838  45.019  65.257  1.00  0.00     0.146 C 
HETATM    8  O   UNL     1      36.297  47.079  63.755  1.00  0.00    -0.267 OA
ENDROOT
BRANCH   5   9
HETATM    9  C   UNL     1      39.707  41.881  63.708  1.00  0.00     0.122 A 
HETATM   10  N   UNL     1      39.418  41.044  62.661  1.00  0.00    -0.262 N 
HETATM   11  H   UNL     1      39.000  41.287  61.773  1.00  0.00     0.191 HD
HETATM   12  N   UNL     1      39.706  39.752  62.882  1.00  0.00    -0.173 NA
HETATM   13  C   UNL     1      40.204  39.730  64.129  1.00  0.00     0.090 A 
HETATM   14  C   UNL     1      40.201  41.041  64.681  1.00  0.00     0.084 A 
BRANCH  13  15
HETATM   15  C   UNL     1      40.661  38.485  64.755  1.00  0.00    -0.005 A 
HETATM   16  C   UNL     1      41.820  37.840  64.292  1.00  0.00     0.015 A 
HETATM   17  C   UNL     1      42.264  36.652  64.880  1.00  0.00     0.024 A 
HETATM   18  C   UNL     1      41.553  36.099  65.942  1.00  0.00     0.034 A 
HETATM   19 CL   UNL     1      42.097  34.639  66.670  1.00  0.00    -0.084 Cl
HETATM   20  C   UNL     1      40.404  36.724  66.420  1.00  0.00     0.024 A 
HETATM   21  C   UNL     1      39.961  37.912  65.828  1.00  0.00     0.015 A 
ENDBRANCH  13  15
ENDBRANCH   5   9
BRANCH   1  22
HETATM   22  C   UNL     1      37.906  47.894  65.225  1.00  0.00     0.032 A 
HETATM   23  C   UNL     1      38.998  48.663  64.813  1.00  0.00     0.020 A 
HETATM   24  C   UNL     1      39.469  49.692  65.630  1.00  0.00     0.038 A 
HETATM   25  C   UNL     1      38.828  49.988  66.835  1.00  0.00     0.068 A 
HETATM   26  C   UNL     1      37.729  49.228  67.242  1.00  0.00     0.038 A 
HETATM   27  C   UNL     1      37.263  48.186  66.432  1.00  0.00     0.020 A 
BRANCH  25  28
HETATM   28  O   UNL     1      39.370  51.031  67.533  1.00  0.00    -0.352 OA
BRANCH  28  29
HETATM   29  C   UNL     1      38.457  52.039  67.967  1.00  0.00     0.171 C 
HETATM   30  C   UNL     1      37.891  52.716  66.731  1.00  0.00     0.034 C 
ENDBRANCH  28  29
ENDBRANCH  25  28
ENDBRANCH   1  22
TORSDOF 5
ENDMDL
MODEL 6
REMARK VINA RESULT:      -8.4      2.723      3.341
REMARK  5 active torsions:
REMARK  status: ('A' for Active; 'I' for Inactive)
REMARK    1  A    between atoms: C_2  and  O_3 
REMARK    2  A    between atoms: O_3  and  C_4 
REMARK    3  A    between atoms: C_7  and  C_8 
REMARK       I    between atoms: C_8  and  N_9 
REMARK    4  A    between atoms: N_12  and  C_13 
REMARK    5  A    between atoms: C_17  and  C_18 
ROOT
HETATM    1  C   UNL     1      27.575  42.550  52.031  1.00  0.00     0.253 C 
HETATM    2  N   UNL     1      26.538  43.340  51.543  1.00  0.00    -0.345 N 
HETATM    3  C   UNL     1      25.577  42.709  50.631  1.00  0.00     0.146 C 
HETATM    4  C   UNL     1      24.196  43.378  50.715  1.00  0.00     0.144 C 
HETATM    5  N   UNL     1      24.311  44.839  50.541  1.00  0.00    -0.363 N 
HETATM    6  C   UNL     1      25.262  45.489  51.457  1.00  0.00     0.144 C 
HETATM    7  C   UNL     1      26.640  44.800  51.381  1.00  0.00     0.146 C 
HETATM    8  O   UNL     1      27.771  41.395  51.661  1.00  0.00    -0.267 OA
ENDROOT
BRANCH   5   9
HETATM    9  C   UNL     1      23.584  45.502  49.601  1.00  0.00     0.122 A 
HETATM   10  N   UNL     1      23.524  46.869  49.507  1.00  0.00    -0.262 N 
HETATM   11  H   UNL     1      23.966  47.550  50.109  1.00  0.00     0.191 HD
HETATM   12  N   UNL     1      22.756  47.327  48.505  1.00  0.00    -0.173 NA
HETATM   13  C   UNL     1      22.284  46.219  47.913  1.00  0.00     0.090 A 
HETATM   14  C   UNL     1      22.766  45.060  48.584  1.00  0.00     0.084 A 
BRANCH  13  15
HETATM   15  C   UNL     1      21.400  46.286  46.744  1.00  0.00    -0.005 A 
HETATM   16  C   UNL     1      20.238  47.076  46.777  1.00  0.00     0.015 A 
HETATM   17  C   UNL     1      19.387  47.145  45.669  1.00  0.00     0.024 A 
HETATM   18  C   UNL     1      19.693  46.427  44.516  1.00  0.00     0.034 A 
HETATM   19 CL   UNL     1      18.650  46.511  43.152  1.00  0.00    -0.084 Cl
HETATM   20  C   UNL     1      20.842  45.642  44.462  1.00  0.00     0.024 A 
HETATM   21  C   UNL     1      21.691  45.572  45.571  1.00  0.00     0.015 A 
ENDBRANCH  13  15
ENDBRANCH   5   9
BRANCH   1  22
HETATM   22  C   UNL     1      28.447  43.093  53.100  1.00  0.00     0.032 A 
HETATM   23  C   UNL     1      27.944  43.986  54.051  1.00  0.00     0.020 A 
HETATM   24  C   UNL     1      28.768  44.436  55.084  1.00  0.00     0.038 A 
HETATM   25  C   UNL     1      30.078  43.964  55.200  1.00  0.00     0.068 A 
HETATM   26  C   UNL     1      30.577  43.063  54.257  1.00  0.00     0.038 A 
HETATM   27  C   UNL     1      29.759  42.621  53.212  1.00  0.00     0.020 A 
BRANCH  25  28
HETATM   28  O   UNL     1      30.774  44.463  56.266  1.00  0.00    -0.352 OA
BRANCH  28  29
HETATM   29  C   UNL     1      30.246  45.647  56.863  1.00  0.00     0.171 C 
HETATM   30  C   UNL     1      30.458  45.545  58.363  1.00  0.00     0.034 C 
ENDBRANCH  28  29
ENDBRANCH  25  28
ENDBRANCH   1  22
TORSDOF 5
ENDMDL
MODEL 7
REMARK VINA RESULT:      -8.4      5.323     10.849
REMARK  5 active torsions:
REMARK  status: ('A' for Active; 'I' for Inactive)
REMARK    1  A    between atoms: C_2  and  O_3 
REMARK    2  A    between atoms: O_3  and  C_4 
REMARK    3  A    between atoms: C_7  and  C_8 
REMARK       I    between atoms: C_8  and  N_9 
REMARK    4  A    between atoms: N_12  and  C_13 
REMARK    5  A    between atoms: C_17  and  C_18 
ROOT
HETATM    1  C   UNL     1      23.185  50.308  48.102  1.00  0.00     0.253 C 
HETATM    2  N   UNL     1      23.757  49.150  48.621  1.00  0.00    -0.345 N 
HETATM    3  C   UNL     1      25.218  49.028  48.558  1.00  0.00     0.146 C 
HETATM    4  C   UNL     1      25.761  48.147  49.694  1.00  0.00     0.144 C 
HETATM    5  N   UNL     1      25.057  46.851  49.733  1.00  0.00    -0.363 N 
HETATM    6  C   UNL     1      23.591  46.956  49.809  1.00  0.00     0.144 C 
HETATM    7  C   UNL     1      23.056  47.857  48.678  1.00  0.00     0.146 C 
HETATM    8  O   UNL     1      23.832  51.174  47.518  1.00  0.00    -0.267 OA
ENDROOT
BRANCH   5   9
HETATM    9  C   UNL     1      25.737  45.672  49.699  1.00  0.00     0.122 A 
HETATM   10  N   UNL     1      27.096  45.571  49.848  1.00  0.00    -0.262 N 
HETATM   11  H   UNL     1      27.762  46.322  49.970  1.00  0.00     0.191 HD
HETATM   12  N   UNL     1      27.573  44.318  49.791  1.00  0.00    -0.173 NA
HETATM   13  C   UNL     1      26.486  43.555  49.592  1.00  0.00     0.090 A 
HETATM   14  C   UNL     1      25.323  44.372  49.511  1.00  0.00     0.084 A 
BRANCH  13  15
HETATM   15  C   UNL     1      26.576  42.095  49.484  1.00  0.00    -0.005 A 
HETATM   16  C   UNL     1      27.119  41.500  48.333  1.00  0.00     0.015 A 
HETATM   17  C   UNL     1      27.208  40.110  48.219  1.00  0.00     0.024 A 
HETATM   18  C   UNL     1      26.758  39.300  49.259  1.00  0.00     0.034 A 
HETATM   19 CL   UNL     1      26.867  37.590  49.123  1.00  0.00    -0.084 Cl
HETATM   20  C   UNL     1      26.221  39.870  50.410  1.00  0.00     0.024 A 
HETATM   21  C   UNL     1      26.130  41.262  50.522  1.00  0.00     0.015 A 
ENDBRANCH  13  15
ENDBRANCH   5   9
BRANCH   1  22
HETATM   22  C   UNL     1      21.740  50.554  48.324  1.00  0.00     0.032 A 
HETATM   23  C   UNL     1      20.805  50.282  47.321  1.00  0.00     0.020 A 
HETATM   24  C   UNL     1      19.444  50.466  47.574  1.00  0.00     0.038 A 
HETATM   25  C   UNL     1      19.008  50.875  48.836  1.00  0.00     0.068 A 
HETATM   26  C   UNL     1      19.942  51.136  49.842  1.00  0.00     0.038 A 
HETATM   27  C   UNL     1      21.307  50.967  49.588  1.00  0.00     0.020 A 
BRANCH  25  28
HETATM   28  O   UNL     1      17.652  50.996  48.964  1.00  0.00    -0.352 OA
BRANCH  28  29
HETATM   29  C   UNL     1      17.100  52.267  48.621  1.00  0.00     0.171 C 
HETATM   30  C   UNL     1      16.617  52.924  49.901  1.00  0.00     0.034 C 
ENDBRANCH  28  29
ENDBRANCH  25  28
ENDBRANCH   1  22
TORSDOF 5
ENDMDL
MODEL 8
REMARK VINA RESULT:      -8.3      2.454      3.727
REMARK  5 active torsions:
REMARK  status: ('A' for Active; 'I' for Inactive)
REMARK    1  A    between atoms: C_2  and  O_3 
REMARK    2  A    between atoms: O_3  and  C_4 
REMARK    3  A    between atoms: C_7  and  C_8 
REMARK       I    between atoms: C_8  and  N_9 
REMARK    4  A    between atoms: N_12  and  C_13 
REMARK    5  A    between atoms: C_17  and  C_18 
ROOT
HETATM    1  C   UNL     1      26.472  43.688  52.767  1.00  0.00     0.253 C 
HETATM    2  N   UNL     1      26.177  44.748  51.915  1.00  0.00    -0.345 N 
HETATM    3  C   UNL     1      25.756  46.014  52.527  1.00  0.00     0.146 C 
HETATM    4  C   UNL     1      26.123  47.217  51.644  1.00  0.00     0.144 C 
HETATM    5  N   UNL     1      25.625  47.027  50.268  1.00  0.00    -0.363 N 
HETATM    6  C   UNL     1      26.049  45.768  49.635  1.00  0.00     0.144 C 
HETATM    7  C   UNL     1      25.695  44.567  50.536  1.00  0.00     0.146 C 
HETATM    8  O   UNL     1      26.306  43.738  53.984  1.00  0.00    -0.267 OA
ENDROOT
BRANCH   5   9
HETATM    9  C   UNL     1      24.840  47.959  49.662  1.00  0.00     0.122 A 
HETATM   10  N   UNL     1      25.330  49.028  48.957  1.00  0.00    -0.262 N 
HETATM   11  H   UNL     1      26.299  49.283  48.816  1.00  0.00     0.191 HD
HETATM   12  N   UNL     1      24.391  49.828  48.429  1.00  0.00    -0.173 NA
HETATM   13  C   UNL     1      23.229  49.270  48.802  1.00  0.00     0.090 A 
HETATM   14  C   UNL     1      23.473  48.110  49.590  1.00  0.00     0.084 A 
BRANCH  13  15
HETATM   15  C   UNL     1      21.937  49.843  48.409  1.00  0.00    -0.005 A 
HETATM   16  C   UNL     1      21.041  49.100  47.622  1.00  0.00     0.015 A 
HETATM   17  C   UNL     1      19.807  49.637  47.240  1.00  0.00     0.024 A 
HETATM   18  C   UNL     1      19.457  50.921  47.646  1.00  0.00     0.034 A 
HETATM   19 CL   UNL     1      17.940  51.584  47.180  1.00  0.00    -0.084 Cl
HETATM   20  C   UNL     1      20.328  51.672  48.431  1.00  0.00     0.024 A 
HETATM   21  C   UNL     1      21.563  51.135  48.810  1.00  0.00     0.015 A 
ENDBRANCH  13  15
ENDBRANCH   5   9
BRANCH   1  22
HETATM   22  C   UNL     1      27.085  42.463  52.201  1.00  0.00     0.032 A 
HETATM   23  C   UNL     1      26.511  41.816  51.103  1.00  0.00     0.020 A 
HETATM   24  C   UNL     1      27.139  40.699  50.550  1.00  0.00     0.038 A 
HETATM   25  C   UNL     1      28.361  40.251  51.058  1.00  0.00     0.068 A 
HETATM   26  C   UNL     1      28.941  40.904  52.148  1.00  0.00     0.038 A 
HETATM   27  C   UNL     1      28.307  42.015  52.714  1.00  0.00     0.020 A 
BRANCH  25  28
HETATM   28  O   UNL     1      28.885  39.163  50.417  1.00  0.00    -0.352 OA
BRANCH  28  29
HETATM   29  C   UNL     1      28.079  38.594  49.385  1.00  0.00     0.171 C 
HETATM   30  C   UNL     1      29.009  38.005  48.340  1.00  0.00     0.034 C 
ENDBRANCH  28  29
ENDBRANCH  25  28
ENDBRANCH   1  22
TORSDOF 5
ENDMDL
MODEL 9
REMARK VINA RESULT:      -8.2      8.105     11.393
REMARK  5 active torsions:
REMARK  status: ('A' for Active; 'I' for Inactive)
REMARK    1  A    between atoms: C_2  and  O_3 
REMARK    2  A    between atoms: O_3  and  C_4 
REMARK    3  A    between atoms: C_7  and  C_8 
REMARK       I    between atoms: C_8  and  N_9 
REMARK    4  A    between atoms: N_12  and  C_13 
REMARK    5  A    between atoms: C_17  and  C_18 
ROOT
HETATM    1  C   UNL     1      26.649  40.732  45.843  1.00  0.00     0.253 C 
HETATM    2  N   UNL     1      27.092  40.632  47.159  1.00  0.00    -0.345 N 
HETATM    3  C   UNL     1      26.160  41.027  48.220  1.00  0.00     0.146 C 
HETATM    4  C   UNL     1      26.439  40.269  49.528  1.00  0.00     0.144 C 
HETATM    5  N   UNL     1      27.860  40.389  49.909  1.00  0.00    -0.363 N 
HETATM    6  C   UNL     1      28.808  39.984  48.858  1.00  0.00     0.144 C 
HETATM    7  C   UNL     1      28.509  40.735  47.545  1.00  0.00     0.146 C 
HETATM    8  O   UNL     1      25.563  41.219  45.535  1.00  0.00    -0.267 OA
ENDROOT
BRANCH   5   9
HETATM    9  C   UNL     1      28.230  40.841  51.138  1.00  0.00     0.122 A 
HETATM   10  N   UNL     1      28.575  40.019  52.180  1.00  0.00    -0.262 N 
HETATM   11  H   UNL     1      28.576  39.008  52.195  1.00  0.00     0.191 HD
HETATM   12  N   UNL     1      28.917  40.660  53.308  1.00  0.00    -0.173 NA
HETATM   13  C   UNL     1      28.790  41.962  53.004  1.00  0.00     0.090 A 
HETATM   14  C   UNL     1      28.344  42.110  51.661  1.00  0.00     0.084 A 
BRANCH  13  15
HETATM   15  C   UNL     1      29.089  43.015  53.980  1.00  0.00    -0.005 A 
HETATM   16  C   UNL     1      30.326  43.036  54.646  1.00  0.00     0.015 A 
HETATM   17  C   UNL     1      30.620  44.035  55.580  1.00  0.00     0.024 A 
HETATM   18  C   UNL     1      29.680  45.025  55.853  1.00  0.00     0.034 A 
HETATM   19 CL   UNL     1      30.039  46.255  57.000  1.00  0.00    -0.084 Cl
HETATM   20  C   UNL     1      28.450  45.024  55.201  1.00  0.00     0.024 A 
HETATM   21  C   UNL     1      28.156  44.024  54.268  1.00  0.00     0.015 A 
ENDBRANCH  13  15
ENDBRANCH   5   9
BRANCH   1  22
HETATM   22  C   UNL     1      27.485  40.161  44.760  1.00  0.00     0.032 A 
HETATM   23  C   UNL     1      27.496  38.785  44.512  1.00  0.00     0.020 A 
HETATM   24  C   UNL     1      28.245  38.278  43.449  1.00  0.00     0.038 A 
HETATM   25  C   UNL     1      28.945  39.141  42.602  1.00  0.00     0.068 A 
HETATM   26  C   UNL     1      28.924  40.516  42.841  1.00  0.00     0.038 A 
HETATM   27  C   UNL     1      28.187  41.028  43.915  1.00  0.00     0.020 A 
BRANCH  25  28
HETATM   28  O   UNL     1      29.619  38.524  41.585  1.00  0.00    -0.352 OA
BRANCH  28  29
HETATM   29  C   UNL     1      30.769  37.768  41.962  1.00  0.00     0.171 C 
HETATM   30  C   UNL     1      31.994  38.634  41.724  1.00  0.00     0.034 C 
ENDBRANCH  28  29
ENDBRANCH  25  28
ENDBRANCH   1  22
TORSDOF 5
ENDMDL
MODEL 10
REMARK VINA RESULT:      -8.1      5.450     11.055
REMARK  5 active torsions:
REMARK  status: ('A' for Active; 'I' for Inactive)
REMARK    1  A    between atoms: C_2  and  O_3 
REMARK    2  A    between atoms: O_3  and  C_4 
REMARK    3  A    between atoms: C_7  and  C_8 
REMARK       I    between atoms: C_8  and  N_9 
REMARK    4  A    between atoms: N_12  and  C_13 
REMARK    5  A    between atoms: C_17  and  C_18 
ROOT
HETATM    1  C   UNL     1      23.742  41.992  47.489  1.00  0.00     0.253 C 
HETATM    2  N   UNL     1      24.786  42.325  48.348  1.00  0.00    -0.345 N 
HETATM    3  C   UNL     1      25.654  41.239  48.813  1.00  0.00     0.146 C 
HETATM    4  C   UNL     1      27.070  41.744  49.133  1.00  0.00     0.144 C 
HETATM    5  N   UNL     1      27.018  42.899  50.051  1.00  0.00    -0.363 N 
HETATM    6  C   UNL     1      26.160  44.004  49.592  1.00  0.00     0.144 C 
HETATM    7  C   UNL     1      24.748  43.485  49.255  1.00  0.00     0.146 C 
HETATM    8  O   UNL     1      23.465  40.834  47.186  1.00  0.00    -0.267 OA
ENDROOT
BRANCH   5   9
HETATM    9  C   UNL     1      27.717  42.910  51.218  1.00  0.00     0.122 A 
HETATM   10  N   UNL     1      28.424  41.836  51.694  1.00  0.00    -0.262 N 
HETATM   11  H   UNL     1      28.502  40.916  51.282  1.00  0.00     0.191 HD
HETATM   12  N   UNL     1      29.052  42.053  52.860  1.00  0.00    -0.173 NA
HETATM   13  C   UNL     1      28.746  43.322  53.174  1.00  0.00     0.090 A 
HETATM   14  C   UNL     1      27.898  43.882  52.178  1.00  0.00     0.084 A 
BRANCH  13  15
HETATM   15  C   UNL     1      29.257  43.961  54.391  1.00  0.00    -0.005 A 
HETATM   16  C   UNL     1      28.608  45.085  54.929  1.00  0.00     0.015 A 
HETATM   17  C   UNL     1      29.087  45.703  56.088  1.00  0.00     0.024 A 
HETATM   18  C   UNL     1      30.220  45.200  56.722  1.00  0.00     0.034 A 
HETATM   19 CL   UNL     1      30.812  45.956  58.149  1.00  0.00    -0.084 Cl
HETATM   20  C   UNL     1      30.875  44.084  56.208  1.00  0.00     0.024 A 
HETATM   21  C   UNL     1      30.396  43.468  55.047  1.00  0.00     0.015 A 
ENDBRANCH  13  15
ENDBRANCH   5   9
BRANCH   1  22
HETATM   22  C   UNL     1      22.968  43.081  46.846  1.00  0.00     0.032 A 
HETATM   23  C   UNL     1      23.439  43.708  45.688  1.00  0.00     0.020 A 
HETATM   24  C   UNL     1      22.665  44.689  45.067  1.00  0.00     0.038 A 
HETATM   25  C   UNL     1      21.401  45.014  45.567  1.00  0.00     0.068 A 
HETATM   26  C   UNL     1      20.925  44.380  46.716  1.00  0.00     0.038 A 
HETATM   27  C   UNL     1      21.705  43.406  47.351  1.00  0.00     0.020 A 
BRANCH  25  28
HETATM   28  O   UNL     1      20.733  45.972  44.857  1.00  0.00    -0.352 OA
BRANCH  28  29
HETATM   29  C   UNL     1      19.752  46.718  45.578  1.00  0.00     0.171 C 
HETATM   30  C   UNL     1      18.842  47.390  44.565  1.00  0.00     0.034 C 
ENDBRANCH  28  29
ENDBRANCH  25  28
ENDBRANCH   1  22
TORSDOF 5
ENDMDL
