MODEL 1
REMARK VINA RESULT:      -9.2      0.000      0.000
REMARK  5 active torsions:
REMARK  status: ('A' for Active; 'I' for Inactive)
REMARK    1  A    between atoms: C_2  and  C_3 
REMARK    2  A    between atoms: C_2  and  C_9 
REMARK    3  A    between atoms: C_9  and  C_10 
REMARK       I    between atoms: C_10  and  N_11 
REMARK    4  A    between atoms: N_11  and  C_12 
REMARK    5  A    between atoms: C_19  and  C_20 
REMARK       I    between atoms: C_20  and  N_21 
ROOT
HETATM    1  C   UNL     1      26.043  47.240  50.194  1.00  0.00     0.035 A 
HETATM    2  C   UNL     1      24.732  47.450  49.744  1.00  0.00     0.046 A 
HETATM    3  C   UNL     1      24.454  48.540  48.889  1.00  0.00     0.030 A 
HETATM    4  C   UNL     1      25.493  49.381  48.514  1.00  0.00     0.063 A 
HETATM    5  N   UNL     1      24.924  50.323  47.705  1.00  0.00    -0.277 N 
HETATM    6  H   UNL     1      25.386  51.101  47.249  1.00  0.00     0.189 HD
HETATM    7  N   UNL     1      23.604  50.171  47.515  1.00  0.00    -0.168 NA
HETATM    8  C   UNL     1      23.297  49.070  48.240  1.00  0.00     0.156 A 
HETATM    9  C   UNL     1      26.810  49.200  48.940  1.00  0.00     0.034 A 
HETATM   10  C   UNL     1      27.061  48.112  49.785  1.00  0.00     0.032 A 
ENDROOT
BRANCH   1  11
HETATM   11  N   UNL     1      26.420  46.181  51.049  1.00  0.00    -0.327 N 
HETATM   12  C   UNL     1      26.926  44.941  50.689  1.00  0.00     0.222 C 
HETATM   13  O   UNL     1      27.115  44.537  49.548  1.00  0.00    -0.273 OA
HETATM   14  H   UNL     1      26.284  46.341  52.039  1.00  0.00     0.169 HD
BRANCH  12  15
HETATM   15  C   UNL     1      27.214  44.082  51.912  1.00  0.00     0.112 C 
BRANCH  15  16
HETATM   16  C   UNL     1      27.063  44.846  53.240  1.00  0.00     0.023 C 
HETATM   17  C   UNL     1      25.782  44.449  53.985  1.00  0.00     0.015 C 
BRANCH  16  18
HETATM   18  C   UNL     1      28.290  44.632  54.114  1.00  0.00    -0.054 A 
HETATM   19  C   UNL     1      28.657  45.546  55.114  1.00  0.00     0.007 A 
HETATM   20  C   UNL     1      29.787  45.321  55.905  1.00  0.00     0.001 A 
HETATM   21  C   UNL     1      30.561  44.180  55.710  1.00  0.00     0.000 A 
HETATM   22  C   UNL     1      30.206  43.262  54.725  1.00  0.00     0.001 A 
HETATM   23  C   UNL     1      29.078  43.485  53.933  1.00  0.00     0.007 A 
ENDBRANCH  16  18
ENDBRANCH  15  16
ENDBRANCH  12  15
ENDBRANCH   1  11
BRANCH   8  24
HETATM   24  C   UNL     1      21.922  48.555  48.296  1.00  0.00     0.270 C 
HETATM   25  N   UNL     1      21.329  48.681  49.523  1.00  0.00    -0.365 N 
HETATM   26  H   UNL     1      21.857  49.105  50.276  1.00  0.00     0.159 HD
HETATM   27  H   UNL     1      20.383  48.357  49.655  1.00  0.00     0.159 HD
HETATM   28  O   UNL     1      21.322  48.053  47.352  1.00  0.00    -0.266 OA
ENDBRANCH   8  24
TORSDOF 5
ENDMDL
MODEL 2
REMARK VINA RESULT:      -9.2      5.837      7.956
REMARK  5 active torsions:
REMARK  status: ('A' for Active; 'I' for Inactive)
REMARK    1  A    between atoms: C_2  and  C_3 
REMARK    2  A    between atoms: C_2  and  C_9 
REMARK    3  A    between atoms: C_9  and  C_10 
REMARK       I    between atoms: C_10  and  N_11 
REMARK    4  A    between atoms: N_11  and  C_12 
REMARK    5  A    between atoms: C_19  and  C_20 
REMARK       I    between atoms: C_20  and  N_21 
ROOT
HETATM    1  C   UNL     1      27.679  41.779  51.329  1.00  0.00     0.035 A 
HETATM    2  C   UNL     1      28.275  40.512  51.267  1.00  0.00     0.046 A 
HETATM    3  C   UNL     1      28.320  39.823  50.034  1.00  0.00     0.030 A 
HETATM    4  C   UNL     1      27.769  40.422  48.909  1.00  0.00     0.063 A 
HETATM    5  N   UNL     1      27.959  39.529  47.892  1.00  0.00    -0.277 N 
HETATM    6  H   UNL     1      27.680  39.633  46.924  1.00  0.00     0.189 HD
HETATM    7  N   UNL     1      28.588  38.399  48.253  1.00  0.00    -0.168 NA
HETATM    8  C   UNL     1      28.821  38.566  49.576  1.00  0.00     0.156 A 
HETATM    9  C   UNL     1      27.171  41.683  48.934  1.00  0.00     0.034 A 
HETATM   10  C   UNL     1      27.140  42.347  50.167  1.00  0.00     0.032 A 
ENDROOT
BRANCH   1  11
HETATM   11  N   UNL     1      27.584  42.545  52.512  1.00  0.00    -0.327 N 
HETATM   12  C   UNL     1      28.551  43.370  53.067  1.00  0.00     0.222 C 
HETATM   13  O   UNL     1      29.680  43.560  52.631  1.00  0.00    -0.273 OA
HETATM   14  H   UNL     1      26.714  42.465  53.024  1.00  0.00     0.169 HD
BRANCH  12  15
HETATM   15  C   UNL     1      28.054  44.026  54.347  1.00  0.00     0.112 C 
BRANCH  15  16
HETATM   16  C   UNL     1      28.836  45.298  54.720  1.00  0.00     0.023 C 
HETATM   17  C   UNL     1      27.902  46.489  54.973  1.00  0.00     0.015 C 
BRANCH  16  18
HETATM   18  C   UNL     1      29.725  45.036  55.928  1.00  0.00    -0.054 A 
HETATM   19  C   UNL     1      30.677  44.005  55.939  1.00  0.00     0.007 A 
HETATM   20  C   UNL     1      31.482  43.791  57.061  1.00  0.00     0.001 A 
HETATM   21  C   UNL     1      31.349  44.606  58.182  1.00  0.00     0.000 A 
HETATM   22  C   UNL     1      30.412  45.637  58.184  1.00  0.00     0.001 A 
HETATM   23  C   UNL     1      29.606  45.852  57.064  1.00  0.00     0.007 A 
ENDBRANCH  16  18
ENDBRANCH  15  16
ENDBRANCH  12  15
ENDBRANCH   1  11
BRANCH   8  24
HETATM   24  C   UNL     1      29.507  37.532  50.363  1.00  0.00     0.270 C 
HETATM   25  N   UNL     1      28.692  36.512  50.775  1.00  0.00    -0.365 N 
HETATM   26  H   UNL     1      27.713  36.539  50.518  1.00  0.00     0.159 HD
HETATM   27  H   UNL     1      29.077  35.756  51.320  1.00  0.00     0.159 HD
HETATM   28  O   UNL     1      30.700  37.543  50.646  1.00  0.00    -0.266 OA
ENDBRANCH   8  24
TORSDOF 5
ENDMDL
MODEL 3
REMARK VINA RESULT:      -8.7      2.297      3.670
REMARK  5 active torsions:
REMARK  status: ('A' for Active; 'I' for Inactive)
REMARK    1  A    between atoms: C_2  and  C_3 
REMARK    2  A    between atoms: C_2  and  C_9 
REMARK    3  A    between atoms: C_9  and  C_10 
REMARK       I    between atoms: C_10  and  N_11 
REMARK    4  A    between atoms: N_11  and  C_12 
REMARK    5  A    between atoms: C_19  and  C_20 
REMARK       I    between atoms: C_20  and  N_21 
ROOT
HETATM    1  C   UNL     1      25.468  44.341  51.845  1.00  0.00     0.035 A 
HETATM    2  C   UNL     1      25.103  45.585  51.313  1.00  0.00     0.046 A 
HETATM    3  C   UNL     1      24.222  45.641  50.210  1.00  0.00     0.030 A 
HETATM    4  C   UNL     1      23.738  44.453  49.677  1.00  0.00     0.063 A 
HETATM    5  N   UNL     1      22.929  44.824  48.640  1.00  0.00    -0.277 N 
HETATM    6  H   UNL     1      22.408  44.215  48.020  1.00  0.00     0.189 HD
HETATM    7  N   UNL     1      22.840  46.150  48.448  1.00  0.00    -0.168 NA
HETATM    8  C   UNL     1      23.633  46.670  49.414  1.00  0.00     0.156 A 
HETATM    9  C   UNL     1      24.077  43.197  50.183  1.00  0.00     0.034 A 
HETATM   10  C   UNL     1      24.950  43.169  51.278  1.00  0.00     0.032 A 
ENDROOT
BRANCH   1  11
HETATM   11  N   UNL     1      26.341  44.182  52.944  1.00  0.00    -0.327 N 
HETATM   12  C   UNL     1      27.705  43.933  52.912  1.00  0.00     0.222 C 
HETATM   13  O   UNL     1      28.393  43.784  51.909  1.00  0.00    -0.273 OA
HETATM   14  H   UNL     1      25.916  44.235  53.860  1.00  0.00     0.169 HD
BRANCH  12  15
HETATM   15  C   UNL     1      28.285  43.833  54.315  1.00  0.00     0.112 C 
BRANCH  15  16
HETATM   16  C   UNL     1      28.955  45.135  54.789  1.00  0.00     0.023 C 
HETATM   17  C   UNL     1      27.923  46.202  55.176  1.00  0.00     0.015 C 
BRANCH  16  18
HETATM   18  C   UNL     1      29.904  44.849  55.945  1.00  0.00    -0.054 A 
HETATM   19  C   UNL     1      30.823  43.790  55.907  1.00  0.00     0.007 A 
HETATM   20  C   UNL     1      31.684  43.555  56.982  1.00  0.00     0.001 A 
HETATM   21  C   UNL     1      31.640  44.377  58.105  1.00  0.00     0.000 A 
HETATM   22  C   UNL     1      30.737  45.436  58.155  1.00  0.00     0.001 A 
HETATM   23  C   UNL     1      29.875  45.672  57.083  1.00  0.00     0.007 A 
ENDBRANCH  16  18
ENDBRANCH  15  16
ENDBRANCH  12  15
ENDBRANCH   1  11
BRANCH   8  24
HETATM   24  C   UNL     1      23.809  48.123  49.552  1.00  0.00     0.270 C 
HETATM   25  N   UNL     1      22.635  48.824  49.607  1.00  0.00    -0.365 N 
HETATM   26  H   UNL     1      21.762  48.314  49.553  1.00  0.00     0.159 HD
HETATM   27  H   UNL     1      22.658  49.827  49.704  1.00  0.00     0.159 HD
HETATM   28  O   UNL     1      24.891  48.695  49.618  1.00  0.00    -0.266 OA
ENDBRANCH   8  24
TORSDOF 5
ENDMDL
MODEL 4
REMARK VINA RESULT:      -8.4      5.495      7.506
REMARK  5 active torsions:
REMARK  status: ('A' for Active; 'I' for Inactive)
REMARK    1  A    between atoms: C_2  and  C_3 
REMARK    2  A    between atoms: C_2  and  C_9 
REMARK    3  A    between atoms: C_9  and  C_10 
REMARK       I    between atoms: C_10  and  N_11 
REMARK    4  A    between atoms: N_11  and  C_12 
REMARK    5  A    between atoms: C_19  and  C_20 
REMARK       I    between atoms: C_20  and  N_21 
ROOT
HETATM    1  C   UNL     1      26.814  41.652  51.241  1.00  0.00     0.035 A 
HETATM    2  C   UNL     1      27.418  40.496  50.728  1.00  0.00     0.046 A 
HETATM    3  C   UNL     1      26.825  39.824  49.636  1.00  0.00     0.030 A 
HETATM    4  C   UNL     1      25.650  40.329  49.095  1.00  0.00     0.063 A 
HETATM    5  N   UNL     1      25.325  39.479  48.076  1.00  0.00    -0.277 N 
HETATM    6  H   UNL     1      24.523  39.538  47.460  1.00  0.00     0.189 HD
HETATM    7  N   UNL     1      26.185  38.463  47.902  1.00  0.00    -0.168 NA
HETATM    8  C   UNL     1      27.121  38.663  48.858  1.00  0.00     0.156 A 
HETATM    9  C   UNL     1      25.023  41.479  49.577  1.00  0.00     0.034 A 
HETATM   10  C   UNL     1      25.631  42.128  50.659  1.00  0.00     0.032 A 
ENDROOT
BRANCH   1  11
HETATM   11  N   UNL     1      27.328  42.392  52.328  1.00  0.00    -0.327 N 
HETATM   12  C   UNL     1      27.892  43.659  52.299  1.00  0.00     0.222 C 
HETATM   13  O   UNL     1      28.063  44.354  51.305  1.00  0.00    -0.273 OA
HETATM   14  H   UNL     1      27.300  41.934  53.230  1.00  0.00     0.169 HD
BRANCH  12  15
HETATM   15  C   UNL     1      28.320  44.109  53.688  1.00  0.00     0.112 C 
BRANCH  15  16
HETATM   16  C   UNL     1      29.401  43.209  54.311  1.00  0.00     0.023 C 
HETATM   17  C   UNL     1      30.502  42.855  53.303  1.00  0.00     0.015 C 
BRANCH  16  18
HETATM   18  C   UNL     1      29.989  43.871  55.550  1.00  0.00    -0.054 A 
HETATM   19  C   UNL     1      29.551  45.126  56.000  1.00  0.00     0.007 A 
HETATM   20  C   UNL     1      30.106  45.706  57.143  1.00  0.00     0.001 A 
HETATM   21  C   UNL     1      31.101  45.039  57.852  1.00  0.00     0.000 A 
HETATM   22  C   UNL     1      31.543  43.791  57.421  1.00  0.00     0.001 A 
HETATM   23  C   UNL     1      30.990  43.209  56.279  1.00  0.00     0.007 A 
ENDBRANCH  16  18
ENDBRANCH  15  16
ENDBRANCH  12  15
ENDBRANCH   1  11
BRANCH   8  24
HETATM   24  C   UNL     1      28.264  37.751  49.007  1.00  0.00     0.270 C 
HETATM   25  N   UNL     1      28.205  36.960  50.122  1.00  0.00    -0.365 N 
HETATM   26  H   UNL     1      27.409  37.053  50.741  1.00  0.00     0.159 HD
HETATM   27  H   UNL     1      28.945  36.301  50.305  1.00  0.00     0.159 HD
HETATM   28  O   UNL     1      29.205  37.672  48.224  1.00  0.00    -0.266 OA
ENDBRANCH   8  24
TORSDOF 5
ENDMDL
MODEL 5
REMARK VINA RESULT:      -8.4      1.696      2.739
REMARK  5 active torsions:
REMARK  status: ('A' for Active; 'I' for Inactive)
REMARK    1  A    between atoms: C_2  and  C_3 
REMARK    2  A    between atoms: C_2  and  C_9 
REMARK    3  A    between atoms: C_9  and  C_10 
REMARK       I    between atoms: C_10  and  N_11 
REMARK    4  A    between atoms: N_11  and  C_12 
REMARK    5  A    between atoms: C_19  and  C_20 
REMARK       I    between atoms: C_20  and  N_21 
ROOT
HETATM    1  C   UNL     1      24.610  45.376  50.418  1.00  0.00     0.035 A 
HETATM    2  C   UNL     1      24.621  46.730  50.060  1.00  0.00     0.046 A 
HETATM    3  C   UNL     1      23.675  47.213  49.128  1.00  0.00     0.030 A 
HETATM    4  C   UNL     1      22.753  46.326  48.587  1.00  0.00     0.063 A 
HETATM    5  N   UNL     1      21.989  47.072  47.734  1.00  0.00    -0.277 N 
HETATM    6  H   UNL     1      21.217  46.751  47.162  1.00  0.00     0.189 HD
HETATM    7  N   UNL     1      22.329  48.370  47.671  1.00  0.00    -0.168 NA
HETATM    8  C   UNL     1      23.370  48.474  48.530  1.00  0.00     0.156 A 
HETATM    9  C   UNL     1      22.711  44.972  48.923  1.00  0.00     0.034 A 
HETATM   10  C   UNL     1      23.658  44.519  49.850  1.00  0.00     0.032 A 
ENDROOT
BRANCH   1  11
HETATM   11  N   UNL     1      25.514  44.799  51.338  1.00  0.00    -0.327 N 
HETATM   12  C   UNL     1      26.842  44.462  51.123  1.00  0.00     0.222 C 
HETATM   13  O   UNL     1      27.462  44.588  50.074  1.00  0.00    -0.273 OA
HETATM   14  H   UNL     1      25.140  44.589  52.255  1.00  0.00     0.169 HD
BRANCH  12  15
HETATM   15  C   UNL     1      27.473  43.867  52.373  1.00  0.00     0.112 C 
BRANCH  15  16
HETATM   16  C   UNL     1      27.468  44.830  53.573  1.00  0.00     0.023 C 
HETATM   17  C   UNL     1      26.183  44.704  54.402  1.00  0.00     0.015 C 
BRANCH  16  18
HETATM   18  C   UNL     1      28.700  44.603  54.439  1.00  0.00    -0.054 A 
HETATM   19  C   UNL     1      29.478  43.440  54.330  1.00  0.00     0.007 A 
HETATM   20  C   UNL     1      30.606  43.261  55.134  1.00  0.00     0.001 A 
HETATM   21  C   UNL     1      30.972  44.241  56.053  1.00  0.00     0.000 A 
HETATM   22  C   UNL     1      30.212  45.402  56.169  1.00  0.00     0.001 A 
HETATM   23  C   UNL     1      29.084  45.583  55.366  1.00  0.00     0.007 A 
ENDBRANCH  16  18
ENDBRANCH  15  16
ENDBRANCH  12  15
ENDBRANCH   1  11
BRANCH   8  24
HETATM   24  C   UNL     1      24.042  49.761  48.757  1.00  0.00     0.270 C 
HETATM   25  N   UNL     1      25.267  49.865  48.153  1.00  0.00    -0.365 N 
HETATM   26  H   UNL     1      25.609  49.080  47.612  1.00  0.00     0.159 HD
HETATM   27  H   UNL     1      25.800  50.714  48.252  1.00  0.00     0.159 HD
HETATM   28  O   UNL     1      23.583  50.685  49.418  1.00  0.00    -0.266 OA
ENDBRANCH   8  24
TORSDOF 5
ENDMDL
MODEL 6
REMARK VINA RESULT:      -8.3      1.931      2.580
REMARK  5 active torsions:
REMARK  status: ('A' for Active; 'I' for Inactive)
REMARK    1  A    between atoms: C_2  and  C_3 
REMARK    2  A    between atoms: C_2  and  C_9 
REMARK    3  A    between atoms: C_9  and  C_10 
REMARK       I    between atoms: C_10  and  N_11 
REMARK    4  A    between atoms: N_11  and  C_12 
REMARK    5  A    between atoms: C_19  and  C_20 
REMARK       I    between atoms: C_20  and  N_21 
ROOT
HETATM    1  C   UNL     1      25.699  45.940  50.182  1.00  0.00     0.035 A 
HETATM    2  C   UNL     1      24.435  45.469  49.804  1.00  0.00     0.046 A 
HETATM    3  C   UNL     1      23.494  46.364  49.248  1.00  0.00     0.030 A 
HETATM    4  C   UNL     1      23.849  47.698  49.090  1.00  0.00     0.063 A 
HETATM    5  N   UNL     1      22.752  48.302  48.543  1.00  0.00    -0.277 N 
HETATM    6  H   UNL     1      22.651  49.279  48.293  1.00  0.00     0.189 HD
HETATM    7  N   UNL     1      21.712  47.481  48.327  1.00  0.00    -0.168 NA
HETATM    8  C   UNL     1      22.156  46.277  48.757  1.00  0.00     0.156 A 
HETATM    9  C   UNL     1      25.099  48.201  49.451  1.00  0.00     0.034 A 
HETATM   10  C   UNL     1      26.015  47.293  49.999  1.00  0.00     0.032 A 
ENDROOT
BRANCH   1  11
HETATM   11  N   UNL     1      26.706  45.125  50.746  1.00  0.00    -0.327 N 
HETATM   12  C   UNL     1      26.751  44.602  52.029  1.00  0.00     0.222 C 
HETATM   13  O   UNL     1      25.923  44.778  52.915  1.00  0.00    -0.273 OA
HETATM   14  H   UNL     1      27.496  44.917  50.148  1.00  0.00     0.169 HD
BRANCH  12  15
HETATM   15  C   UNL     1      28.005  43.767  52.245  1.00  0.00     0.112 C 
BRANCH  15  16
HETATM   16  C   UNL     1      28.006  43.007  53.583  1.00  0.00     0.023 C 
HETATM   17  C   UNL     1      28.333  41.520  53.397  1.00  0.00     0.015 C 
BRANCH  16  18
HETATM   18  C   UNL     1      28.974  43.660  54.560  1.00  0.00    -0.054 A 
HETATM   19  C   UNL     1      30.150  43.018  54.980  1.00  0.00     0.007 A 
HETATM   20  C   UNL     1      31.022  43.644  55.874  1.00  0.00     0.001 A 
HETATM   21  C   UNL     1      30.733  44.918  56.356  1.00  0.00     0.000 A 
HETATM   22  C   UNL     1      29.573  45.569  55.945  1.00  0.00     0.001 A 
HETATM   23  C   UNL     1      28.700  44.946  55.052  1.00  0.00     0.007 A 
ENDBRANCH  16  18
ENDBRANCH  15  16
ENDBRANCH  12  15
ENDBRANCH   1  11
BRANCH   8  24
HETATM   24  C   UNL     1      21.301  45.084  48.690  1.00  0.00     0.270 C 
HETATM   25  N   UNL     1      20.083  45.235  49.297  1.00  0.00    -0.365 N 
HETATM   26  H   UNL     1      19.865  46.123  49.731  1.00  0.00     0.159 HD
HETATM   27  H   UNL     1      19.429  44.468  49.298  1.00  0.00     0.159 HD
HETATM   28  O   UNL     1      21.610  44.029  48.146  1.00  0.00    -0.266 OA
ENDBRANCH   8  24
TORSDOF 5
ENDMDL
MODEL 7
REMARK VINA RESULT:      -8.3      4.715      6.094
REMARK  5 active torsions:
REMARK  status: ('A' for Active; 'I' for Inactive)
REMARK    1  A    between atoms: C_2  and  C_3 
REMARK    2  A    between atoms: C_2  and  C_9 
REMARK    3  A    between atoms: C_9  and  C_10 
REMARK       I    between atoms: C_10  and  N_11 
REMARK    4  A    between atoms: N_11  and  C_12 
REMARK    5  A    between atoms: C_19  and  C_20 
REMARK       I    between atoms: C_20  and  N_21 
ROOT
HETATM    1  C   UNL     1      27.856  41.365  50.645  1.00  0.00     0.035 A 
HETATM    2  C   UNL     1      26.660  41.942  50.198  1.00  0.00     0.046 A 
HETATM    3  C   UNL     1      25.832  41.227  49.303  1.00  0.00     0.030 A 
HETATM    4  C   UNL     1      26.228  39.963  48.887  1.00  0.00     0.063 A 
HETATM    5  N   UNL     1      25.244  39.535  48.041  1.00  0.00    -0.277 N 
HETATM    6  H   UNL     1      25.202  38.652  47.545  1.00  0.00     0.189 HD
HETATM    7  N   UNL     1      24.238  40.407  47.869  1.00  0.00    -0.168 NA
HETATM    8  C   UNL     1      24.585  41.460  48.645  1.00  0.00     0.156 A 
HETATM    9  C   UNL     1      27.410  39.356  49.314  1.00  0.00     0.034 A 
HETATM   10  C   UNL     1      28.213  40.084  50.202  1.00  0.00     0.032 A 
ENDROOT
BRANCH   1  11
HETATM   11  N   UNL     1      28.749  41.999  51.537  1.00  0.00    -0.327 N 
HETATM   12  C   UNL     1      28.972  41.694  52.871  1.00  0.00     0.222 C 
HETATM   13  O   UNL     1      28.406  40.823  53.521  1.00  0.00    -0.273 OA
HETATM   14  H   UNL     1      29.271  42.780  51.162  1.00  0.00     0.169 HD
BRANCH  12  15
HETATM   15  C   UNL     1      30.021  42.610  53.483  1.00  0.00     0.112 C 
BRANCH  15  16
HETATM   16  C   UNL     1      29.424  43.879  54.117  1.00  0.00     0.023 C 
HETATM   17  C   UNL     1      27.898  43.788  54.249  1.00  0.00     0.015 C 
BRANCH  16  18
HETATM   18  C   UNL     1      30.073  44.150  55.468  1.00  0.00    -0.054 A 
HETATM   19  C   UNL     1      29.794  45.311  56.205  1.00  0.00     0.007 A 
HETATM   20  C   UNL     1      30.401  45.530  57.444  1.00  0.00     0.001 A 
HETATM   21  C   UNL     1      31.289  44.592  57.963  1.00  0.00     0.000 A 
HETATM   22  C   UNL     1      31.572  43.433  57.245  1.00  0.00     0.001 A 
HETATM   23  C   UNL     1      30.967  43.211  56.006  1.00  0.00     0.007 A 
ENDBRANCH  16  18
ENDBRANCH  15  16
ENDBRANCH  12  15
ENDBRANCH   1  11
BRANCH   8  24
HETATM   24  C   UNL     1      23.729  42.651  48.740  1.00  0.00     0.270 C 
HETATM   25  N   UNL     1      24.256  43.765  48.145  1.00  0.00    -0.365 N 
HETATM   26  H   UNL     1      25.162  43.694  47.698  1.00  0.00     0.159 HD
HETATM   27  H   UNL     1      23.737  44.629  48.158  1.00  0.00     0.159 HD
HETATM   28  O   UNL     1      22.634  42.685  49.291  1.00  0.00    -0.266 OA
ENDBRANCH   8  24
TORSDOF 5
ENDMDL
MODEL 8
REMARK VINA RESULT:      -8.3      4.522      6.158
REMARK  5 active torsions:
REMARK  status: ('A' for Active; 'I' for Inactive)
REMARK    1  A    between atoms: C_2  and  C_3 
REMARK    2  A    between atoms: C_2  and  C_9 
REMARK    3  A    between atoms: C_9  and  C_10 
REMARK       I    between atoms: C_10  and  N_11 
REMARK    4  A    between atoms: N_11  and  C_12 
REMARK    5  A    between atoms: C_19  and  C_20 
REMARK       I    between atoms: C_20  and  N_21 
ROOT
HETATM    1  C   UNL     1      26.843  43.764  51.632  1.00  0.00     0.035 A 
HETATM    2  C   UNL     1      27.260  42.501  51.192  1.00  0.00     0.046 A 
HETATM    3  C   UNL     1      26.898  42.058  49.900  1.00  0.00     0.030 A 
HETATM    4  C   UNL     1      26.131  42.890  49.095  1.00  0.00     0.063 A 
HETATM    5  N   UNL     1      25.944  42.198  47.932  1.00  0.00    -0.277 N 
HETATM    6  H   UNL     1      25.426  42.500  47.115  1.00  0.00     0.189 HD
HETATM    7  N   UNL     1      26.521  40.986  47.905  1.00  0.00    -0.168 NA
HETATM    8  C   UNL     1      27.118  40.885  49.115  1.00  0.00     0.156 A 
HETATM    9  C   UNL     1      25.701  44.155  49.499  1.00  0.00     0.034 A 
HETATM   10  C   UNL     1      26.075  44.573  50.783  1.00  0.00     0.032 A 
ENDROOT
BRANCH   1  11
HETATM   11  N   UNL     1      27.153  44.296  52.904  1.00  0.00    -0.327 N 
HETATM   12  C   UNL     1      26.306  44.432  53.994  1.00  0.00     0.222 C 
HETATM   13  O   UNL     1      25.119  44.131  54.033  1.00  0.00    -0.273 OA
HETATM   14  H   UNL     1      28.099  44.635  53.025  1.00  0.00     0.169 HD
BRANCH  12  15
HETATM   15  C   UNL     1      27.028  45.046  55.184  1.00  0.00     0.112 C 
BRANCH  15  16
HETATM   16  C   UNL     1      28.410  45.620  54.827  1.00  0.00     0.023 C 
HETATM   17  C   UNL     1      28.428  47.152  54.891  1.00  0.00     0.015 C 
BRANCH  16  18
HETATM   18  C   UNL     1      29.479  45.024  55.733  1.00  0.00    -0.054 A 
HETATM   19  C   UNL     1      29.808  45.600  56.970  1.00  0.00     0.007 A 
HETATM   20  C   UNL     1      30.790  45.028  57.782  1.00  0.00     0.001 A 
HETATM   21  C   UNL     1      31.452  43.874  57.372  1.00  0.00     0.000 A 
HETATM   22  C   UNL     1      31.133  43.288  56.150  1.00  0.00     0.001 A 
HETATM   23  C   UNL     1      30.152  43.858  55.336  1.00  0.00     0.007 A 
ENDBRANCH  16  18
ENDBRANCH  15  16
ENDBRANCH  12  15
ENDBRANCH   1  11
BRANCH   8  24
HETATM   24  C   UNL     1      27.876  39.683  49.491  1.00  0.00     0.270 C 
HETATM   25  N   UNL     1      29.234  39.853  49.475  1.00  0.00    -0.365 N 
HETATM   26  H   UNL     1      29.607  40.759  49.218  1.00  0.00     0.159 HD
HETATM   27  H   UNL     1      29.835  39.082  49.721  1.00  0.00     0.159 HD
HETATM   28  O   UNL     1      27.377  38.607  49.799  1.00  0.00    -0.266 OA
ENDBRANCH   8  24
TORSDOF 5
ENDMDL
MODEL 9
REMARK VINA RESULT:      -8.3      5.489      6.787
REMARK  5 active torsions:
REMARK  status: ('A' for Active; 'I' for Inactive)
REMARK    1  A    between atoms: C_2  and  C_3 
REMARK    2  A    between atoms: C_2  and  C_9 
REMARK    3  A    between atoms: C_9  and  C_10 
REMARK       I    between atoms: C_10  and  N_11 
REMARK    4  A    between atoms: N_11  and  C_12 
REMARK    5  A    between atoms: C_19  and  C_20 
REMARK       I    between atoms: C_20  and  N_21 
ROOT
HETATM    1  C   UNL     1      27.767  42.576  52.519  1.00  0.00     0.035 A 
HETATM    2  C   UNL     1      27.036  42.290  51.358  1.00  0.00     0.046 A 
HETATM    3  C   UNL     1      27.288  41.093  50.652  1.00  0.00     0.030 A 
HETATM    4  C   UNL     1      28.260  40.224  51.130  1.00  0.00     0.063 A 
HETATM    5  N   UNL     1      28.275  39.178  50.250  1.00  0.00    -0.277 N 
HETATM    6  H   UNL     1      28.867  38.356  50.284  1.00  0.00     0.189 HD
HETATM    7  N   UNL     1      27.397  39.285  49.241  1.00  0.00    -0.168 NA
HETATM    8  C   UNL     1      26.776  40.465  49.476  1.00  0.00     0.156 A 
HETATM    9  C   UNL     1      29.004  40.473  52.283  1.00  0.00     0.034 A 
HETATM   10  C   UNL     1      28.735  41.666  52.967  1.00  0.00     0.032 A 
ENDROOT
BRANCH   1  11
HETATM   11  N   UNL     1      27.590  43.744  53.293  1.00  0.00    -0.327 N 
HETATM   12  C   UNL     1      26.916  43.867  54.498  1.00  0.00     0.222 C 
HETATM   13  O   UNL     1      26.330  42.974  55.097  1.00  0.00    -0.273 OA
HETATM   14  H   UNL     1      27.984  44.594  52.909  1.00  0.00     0.169 HD
BRANCH  12  15
HETATM   15  C   UNL     1      26.957  45.298  55.014  1.00  0.00     0.112 C 
BRANCH  15  16
HETATM   16  C   UNL     1      28.333  45.966  54.844  1.00  0.00     0.023 C 
HETATM   17  C   UNL     1      28.228  47.497  54.826  1.00  0.00     0.015 C 
BRANCH  16  18
HETATM   18  C   UNL     1      29.286  45.498  55.935  1.00  0.00    -0.054 A 
HETATM   19  C   UNL     1      30.248  44.503  55.704  1.00  0.00     0.007 A 
HETATM   20  C   UNL     1      31.112  44.097  56.724  1.00  0.00     0.001 A 
HETATM   21  C   UNL     1      31.029  44.682  57.985  1.00  0.00     0.000 A 
HETATM   22  C   UNL     1      30.082  45.674  58.228  1.00  0.00     0.001 A 
HETATM   23  C   UNL     1      29.217  46.081  57.210  1.00  0.00     0.007 A 
ENDBRANCH  16  18
ENDBRANCH  15  16
ENDBRANCH  12  15
ENDBRANCH   1  11
BRANCH   8  24
HETATM   24  C   UNL     1      25.720  40.960  48.581  1.00  0.00     0.270 C 
HETATM   25  N   UNL     1      24.764  40.029  48.277  1.00  0.00    -0.365 N 
HETATM   26  H   UNL     1      24.847  39.101  48.675  1.00  0.00     0.159 HD
HETATM   27  H   UNL     1      23.999  40.280  47.672  1.00  0.00     0.159 HD
HETATM   28  O   UNL     1      25.662  42.097  48.127  1.00  0.00    -0.266 OA
ENDBRANCH   8  24
TORSDOF 5
ENDMDL
MODEL 10
REMARK VINA RESULT:      -8.2      6.247      7.964
REMARK  5 active torsions:
REMARK  status: ('A' for Active; 'I' for Inactive)
REMARK    1  A    between atoms: C_2  and  C_3 
REMARK    2  A    between atoms: C_2  and  C_9 
REMARK    3  A    between atoms: C_9  and  C_10 
REMARK       I    between atoms: C_10  and  N_11 
REMARK    4  A    between atoms: N_11  and  C_12 
REMARK    5  A    between atoms: C_19  and  C_20 
REMARK       I    between atoms: C_20  and  N_21 
ROOT
HETATM    1  C   UNL     1      28.904  39.602  51.206  1.00  0.00     0.035 A 
HETATM    2  C   UNL     1      27.948  39.794  50.200  1.00  0.00     0.046 A 
HETATM    3  C   UNL     1      27.956  38.959  49.060  1.00  0.00     0.030 A 
HETATM    4  C   UNL     1      28.920  37.963  48.965  1.00  0.00     0.063 A 
HETATM    5  N   UNL     1      28.678  37.338  47.775  1.00  0.00    -0.277 N 
HETATM    6  H   UNL     1      29.191  36.560  47.375  1.00  0.00     0.189 HD
HETATM    7  N   UNL     1      27.641  37.836  47.083  1.00  0.00    -0.168 NA
HETATM    8  C   UNL     1      27.182  38.839  47.866  1.00  0.00     0.156 A 
HETATM    9  C   UNL     1      29.884  37.740  49.949  1.00  0.00     0.034 A 
HETATM   10  C   UNL     1      29.854  38.580  51.070  1.00  0.00     0.032 A 
ENDROOT
BRANCH   1  11
HETATM   11  N   UNL     1      28.977  40.383  52.381  1.00  0.00    -0.327 N 
HETATM   12  C   UNL     1      28.856  41.760  52.490  1.00  0.00     0.222 C 
HETATM   13  O   UNL     1      28.685  42.550  51.569  1.00  0.00    -0.273 OA
HETATM   14  H   UNL     1      29.161  39.879  53.239  1.00  0.00     0.169 HD
BRANCH  12  15
HETATM   15  C   UNL     1      28.990  42.217  53.935  1.00  0.00     0.112 C 
BRANCH  15  16
HETATM   16  C   UNL     1      29.318  43.714  54.072  1.00  0.00     0.023 C 
HETATM   17  C   UNL     1      28.066  44.589  53.932  1.00  0.00     0.015 C 
BRANCH  16  18
HETATM   18  C   UNL     1      30.025  43.982  55.394  1.00  0.00    -0.054 A 
HETATM   19  C   UNL     1      30.939  43.070  55.944  1.00  0.00     0.007 A 
HETATM   20  C   UNL     1      31.576  43.345  57.157  1.00  0.00     0.001 A 
HETATM   21  C   UNL     1      31.311  44.534  57.832  1.00  0.00     0.000 A 
HETATM   22  C   UNL     1      30.410  45.450  57.295  1.00  0.00     0.001 A 
HETATM   23  C   UNL     1      29.772  45.178  56.083  1.00  0.00     0.007 A 
ENDBRANCH  16  18
ENDBRANCH  15  16
ENDBRANCH  12  15
ENDBRANCH   1  11
BRANCH   8  24
HETATM   24  C   UNL     1      26.026  39.652  47.461  1.00  0.00     0.270 C 
HETATM   25  N   UNL     1      24.850  38.955  47.391  1.00  0.00    -0.365 N 
HETATM   26  H   UNL     1      24.858  37.967  47.616  1.00  0.00     0.159 HD
HETATM   27  H   UNL     1      24.004  39.432  47.124  1.00  0.00     0.159 HD
HETATM   28  O   UNL     1      26.068  40.850  47.202  1.00  0.00    -0.266 OA
ENDBRANCH   8  24
TORSDOF 5
ENDMDL
