MODEL 1
REMARK VINA RESULT:      -9.4      0.000      0.000
REMARK  3 active torsions:
REMARK  status: ('A' for Active; 'I' for Inactive)
REMARK    1  A    between atoms: C_6  and  C_7 
REMARK    2  A    between atoms: C_14  and  N_15 
REMARK    3  A    between atoms: N_15  and  C_16 
ROOT
HETATM    1  C   UNL     1      27.140  40.077  49.585  1.00  0.00     0.001 A 
HETATM    2  C   UNL     1      26.692  41.317  50.032  1.00  0.00     0.018 A 
HETATM    3  C   UNL     1      27.333  41.980  51.111  1.00  0.00     0.039 A 
HETATM    4  C   UNL     1      28.421  41.367  51.744  1.00  0.00     0.073 A 
HETATM    5  N   UNL     1      29.062  41.916  52.778  1.00  0.00    -0.228 NA
HETATM    6  C   UNL     1      28.626  43.108  53.218  1.00  0.00     0.164 A 
HETATM    7  N   UNL     1      27.598  43.784  52.682  1.00  0.00    -0.210 NA
HETATM    8  C   UNL     1      26.960  43.232  51.635  1.00  0.00     0.143 A 
HETATM    9  C   UNL     1      28.852  40.129  51.279  1.00  0.00     0.032 A 
HETATM   10  C   UNL     1      28.228  39.482  50.210  1.00  0.00     0.002 A 
ENDROOT
BRANCH   8  11
HETATM   11  N   UNL     1      25.885  43.935  51.027  1.00  0.00    -0.340 N 
HETATM   12  H   UNL     1      25.453  43.339  50.329  1.00  0.00     0.167 HD
BRANCH  11  13
HETATM   13  C   UNL     1      25.807  45.301  50.669  1.00  0.00     0.036 A 
HETATM   14  C   UNL     1      26.880  45.874  49.963  1.00  0.00     0.069 A 
HETATM   15  C   UNL     1      26.771  47.184  49.541  1.00  0.00     0.107 A 
HETATM   16  C   UNL     1      25.641  47.928  49.772  1.00  0.00     0.105 A 
HETATM   17  O   UNL     1      27.720  47.878  48.857  1.00  0.00    -0.323 OA
HETATM   18  O   UNL     1      25.735  49.187  49.267  1.00  0.00    -0.323 OA
HETATM   19  C   UNL     1      24.555  47.401  50.430  1.00  0.00     0.042 A 
HETATM   20  C   UNL     1      27.053  49.147  48.682  1.00  0.00     0.352 A 
HETATM   21  C   UNL     1      24.641  46.072  50.865  1.00  0.00     0.032 A 
ENDBRANCH  11  13
ENDBRANCH   8  11
BRANCH   6  22
HETATM   22  C   UNL     1      29.320  43.714  54.361  1.00  0.00     0.029 A 
HETATM   23  C   UNL     1      28.911  44.929  54.912  1.00  0.00     0.131 A 
HETATM   24  N   UNL     1      29.502  45.552  55.966  1.00  0.00    -0.272 NA
HETATM   25  C   UNL     1      30.567  44.933  56.514  1.00  0.00     0.116 A 
HETATM   26  C   UNL     1      31.066  43.726  56.058  1.00  0.00     0.020 A 
HETATM   27  C   UNL     1      30.434  43.117  54.973  1.00  0.00     0.018 A 
ENDBRANCH   6  22
TORSDOF 3
ENDMDL
MODEL 2
REMARK VINA RESULT:      -9.3      1.594      2.431
REMARK  3 active torsions:
REMARK  status: ('A' for Active; 'I' for Inactive)
REMARK    1  A    between atoms: C_6  and  C_7 
REMARK    2  A    between atoms: C_14  and  N_15 
REMARK    3  A    between atoms: N_15  and  C_16 
ROOT
HETATM    1  C   UNL     1      24.683  42.380  49.668  1.00  0.00     0.001 A 
HETATM    2  C   UNL     1      24.755  43.629  50.282  1.00  0.00     0.018 A 
HETATM    3  C   UNL     1      25.738  43.902  51.269  1.00  0.00     0.039 A 
HETATM    4  C   UNL     1      26.635  42.894  51.641  1.00  0.00     0.073 A 
HETATM    5  N   UNL     1      27.572  43.066  52.575  1.00  0.00    -0.228 NA
HETATM    6  C   UNL     1      27.638  44.265  53.176  1.00  0.00     0.164 A 
HETATM    7  N   UNL     1      26.833  45.300  52.893  1.00  0.00    -0.210 NA
HETATM    8  C   UNL     1      25.895  45.126  51.944  1.00  0.00     0.143 A 
HETATM    9  C   UNL     1      26.545  41.656  51.013  1.00  0.00     0.032 A 
HETATM   10  C   UNL     1      25.585  41.390  50.034  1.00  0.00     0.002 A 
ENDROOT
BRANCH   8  11
HETATM   11  N   UNL     1      25.044  46.210  51.602  1.00  0.00    -0.340 N 
HETATM   12  H   UNL     1      24.078  45.914  51.692  1.00  0.00     0.167 HD
BRANCH  11  13
HETATM   13  C   UNL     1      25.202  47.173  50.578  1.00  0.00     0.036 A 
HETATM   14  C   UNL     1      24.051  47.768  50.029  1.00  0.00     0.069 A 
HETATM   15  C   UNL     1      24.205  48.767  49.088  1.00  0.00     0.107 A 
HETATM   16  C   UNL     1      25.445  49.206  48.694  1.00  0.00     0.105 A 
HETATM   17  O   UNL     1      23.196  49.430  48.464  1.00  0.00    -0.323 OA
HETATM   18  O   UNL     1      25.375  50.199  47.768  1.00  0.00    -0.323 OA
HETATM   19  C   UNL     1      26.597  48.676  49.225  1.00  0.00     0.042 A 
HETATM   20  C   UNL     1      23.946  50.342  47.632  1.00  0.00     0.352 A 
HETATM   21  C   UNL     1      26.466  47.663  50.184  1.00  0.00     0.032 A 
ENDBRANCH  11  13
ENDBRANCH   8  11
BRANCH   6  22
HETATM   22  C   UNL     1      28.661  44.460  54.212  1.00  0.00     0.029 A 
HETATM   23  C   UNL     1      28.709  45.615  54.992  1.00  0.00     0.131 A 
HETATM   24  N   UNL     1      29.623  45.868  55.967  1.00  0.00    -0.272 NA
HETATM   25  C   UNL     1      30.551  44.914  56.185  1.00  0.00     0.116 A 
HETATM   26  C   UNL     1      30.606  43.726  55.478  1.00  0.00     0.020 A 
HETATM   27  C   UNL     1      29.652  43.503  54.486  1.00  0.00     0.018 A 
ENDBRANCH   6  22
TORSDOF 3
ENDMDL
MODEL 3
REMARK VINA RESULT:      -9.2      1.816      4.865
REMARK  3 active torsions:
REMARK  status: ('A' for Active; 'I' for Inactive)
REMARK    1  A    between atoms: C_6  and  C_7 
REMARK    2  A    between atoms: C_14  and  N_15 
REMARK    3  A    between atoms: N_15  and  C_16 
ROOT
HETATM    1  C   UNL     1      29.076  44.947  55.556  1.00  0.00     0.001 A 
HETATM    2  C   UNL     1      28.005  44.576  54.746  1.00  0.00     0.018 A 
HETATM    3  C   UNL     1      28.115  43.485  53.844  1.00  0.00     0.039 A 
HETATM    4  C   UNL     1      29.325  42.786  53.758  1.00  0.00     0.073 A 
HETATM    5  N   UNL     1      29.514  41.765  52.920  1.00  0.00    -0.228 NA
HETATM    6  C   UNL     1      28.487  41.410  52.131  1.00  0.00     0.164 A 
HETATM    7  N   UNL     1      27.286  42.008  52.136  1.00  0.00    -0.210 NA
HETATM    8  C   UNL     1      27.096  43.031  52.988  1.00  0.00     0.143 A 
HETATM    9  C   UNL     1      30.379  43.174  54.578  1.00  0.00     0.032 A 
HETATM   10  C   UNL     1      30.267  44.240  55.474  1.00  0.00     0.002 A 
ENDROOT
BRANCH   8  11
HETATM   11  N   UNL     1      25.827  43.667  53.037  1.00  0.00    -0.340 N 
HETATM   12  H   UNL     1      25.168  43.054  53.506  1.00  0.00     0.167 HD
BRANCH  11  13
HETATM   13  C   UNL     1      25.193  44.462  52.054  1.00  0.00     0.036 A 
HETATM   14  C   UNL     1      25.524  45.826  51.975  1.00  0.00     0.069 A 
HETATM   15  C   UNL     1      24.968  46.586  50.964  1.00  0.00     0.107 A 
HETATM   16  C   UNL     1      24.125  46.040  50.028  1.00  0.00     0.105 A 
HETATM   17  O   UNL     1      25.183  47.913  50.760  1.00  0.00    -0.323 OA
HETATM   18  O   UNL     1      23.698  46.955  49.117  1.00  0.00    -0.323 OA
HETATM   19  C   UNL     1      23.798  44.705  50.046  1.00  0.00     0.042 A 
HETATM   20  C   UNL     1      24.378  48.139  49.582  1.00  0.00     0.352 A 
HETATM   21  C   UNL     1      24.352  43.913  51.061  1.00  0.00     0.032 A 
ENDBRANCH  11  13
ENDBRANCH   8  11
BRANCH   6  22
HETATM   22  C   UNL     1      28.690  40.293  51.199  1.00  0.00     0.029 A 
HETATM   23  C   UNL     1      28.107  40.275  49.932  1.00  0.00     0.131 A 
HETATM   24  N   UNL     1      28.247  39.279  49.017  1.00  0.00    -0.272 NA
HETATM   25  C   UNL     1      29.016  38.231  49.378  1.00  0.00     0.116 A 
HETATM   26  C   UNL     1      29.648  38.135  50.605  1.00  0.00     0.020 A 
HETATM   27  C   UNL     1      29.480  39.176  51.518  1.00  0.00     0.018 A 
ENDBRANCH   6  22
TORSDOF 3
ENDMDL
MODEL 4
REMARK VINA RESULT:      -9.1      3.181      5.755
REMARK  3 active torsions:
REMARK  status: ('A' for Active; 'I' for Inactive)
REMARK    1  A    between atoms: C_6  and  C_7 
REMARK    2  A    between atoms: C_14  and  N_15 
REMARK    3  A    between atoms: N_15  and  C_16 
ROOT
HETATM    1  C   UNL     1      25.014  46.007  51.346  1.00  0.00     0.001 A 
HETATM    2  C   UNL     1      25.572  44.763  51.637  1.00  0.00     0.018 A 
HETATM    3  C   UNL     1      26.563  44.625  52.643  1.00  0.00     0.039 A 
HETATM    4  C   UNL     1      26.997  45.759  53.339  1.00  0.00     0.073 A 
HETATM    5  N   UNL     1      27.940  45.713  54.283  1.00  0.00    -0.228 NA
HETATM    6  C   UNL     1      28.486  44.518  54.559  1.00  0.00     0.164 A 
HETATM    7  N   UNL     1      28.142  43.370  53.956  1.00  0.00    -0.210 NA
HETATM    8  C   UNL     1      27.185  43.418  53.012  1.00  0.00     0.143 A 
HETATM    9  C   UNL     1      26.425  46.989  53.034  1.00  0.00     0.032 A 
HETATM   10  C   UNL     1      25.441  47.124  52.051  1.00  0.00     0.002 A 
ENDROOT
BRANCH   8  11
HETATM   11  N   UNL     1      26.778  42.216  52.375  1.00  0.00    -0.340 N 
HETATM   12  H   UNL     1      26.395  41.585  53.071  1.00  0.00     0.167 HD
BRANCH  11  13
HETATM   13  C   UNL     1      27.408  41.511  51.323  1.00  0.00     0.036 A 
HETATM   14  C   UNL     1      28.189  40.385  51.639  1.00  0.00     0.069 A 
HETATM   15  C   UNL     1      28.738  39.648  50.608  1.00  0.00     0.107 A 
HETATM   16  C   UNL     1      28.523  39.972  49.291  1.00  0.00     0.105 A 
HETATM   17  O   UNL     1      29.518  38.543  50.751  1.00  0.00    -0.323 OA
HETATM   18  O   UNL     1      29.143  39.115  48.437  1.00  0.00    -0.323 OA
HETATM   19  C   UNL     1      27.741  41.044  48.933  1.00  0.00     0.042 A 
HETATM   20  C   UNL     1      29.767  38.207  49.369  1.00  0.00     0.352 A 
HETATM   21  C   UNL     1      27.170  41.806  49.962  1.00  0.00     0.032 A 
ENDBRANCH  11  13
ENDBRANCH   8  11
BRANCH   6  22
HETATM   22  C   UNL     1      29.531  44.461  55.590  1.00  0.00     0.029 A 
HETATM   23  C   UNL     1      29.675  45.464  56.549  1.00  0.00     0.131 A 
HETATM   24  N   UNL     1      30.615  45.483  57.531  1.00  0.00    -0.272 NA
HETATM   25  C   UNL     1      31.469  44.440  57.568  1.00  0.00     0.116 A 
HETATM   26  C   UNL     1      31.427  43.386  56.674  1.00  0.00     0.020 A 
HETATM   27  C   UNL     1      30.449  43.402  55.680  1.00  0.00     0.018 A 
ENDBRANCH   6  22
TORSDOF 3
ENDMDL
MODEL 5
REMARK VINA RESULT:      -9.1      1.756      5.127
REMARK  3 active torsions:
REMARK  status: ('A' for Active; 'I' for Inactive)
REMARK    1  A    between atoms: C_6  and  C_7 
REMARK    2  A    between atoms: C_14  and  N_15 
REMARK    3  A    between atoms: N_15  and  C_16 
ROOT
HETATM    1  C   UNL     1      27.706  46.933  55.047  1.00  0.00     0.001 A 
HETATM    2  C   UNL     1      26.864  46.790  53.946  1.00  0.00     0.018 A 
HETATM    3  C   UNL     1      26.841  45.584  53.197  1.00  0.00     0.039 A 
HETATM    4  C   UNL     1      27.690  44.533  53.562  1.00  0.00     0.073 A 
HETATM    5  N   UNL     1      27.742  43.377  52.896  1.00  0.00    -0.228 NA
HETATM    6  C   UNL     1      26.939  43.239  51.828  1.00  0.00     0.164 A 
HETATM    7  N   UNL     1      26.086  44.179  51.395  1.00  0.00    -0.210 NA
HETATM    8  C   UNL     1      26.030  45.339  52.074  1.00  0.00     0.143 A 
HETATM    9  C   UNL     1      28.520  44.698  54.666  1.00  0.00     0.032 A 
HETATM   10  C   UNL     1      28.535  45.880  55.410  1.00  0.00     0.002 A 
ENDROOT
BRANCH   8  11
HETATM   11  N   UNL     1      25.116  46.344  51.657  1.00  0.00    -0.340 N 
HETATM   12  H   UNL     1      24.171  45.982  51.726  1.00  0.00     0.167 HD
BRANCH  11  13
HETATM   13  C   UNL     1      25.243  47.276  50.601  1.00  0.00     0.036 A 
HETATM   14  C   UNL     1      24.076  47.852  50.068  1.00  0.00     0.069 A 
HETATM   15  C   UNL     1      24.201  48.822  49.092  1.00  0.00     0.107 A 
HETATM   16  C   UNL     1      25.428  49.250  48.650  1.00  0.00     0.105 A 
HETATM   17  O   UNL     1      23.173  49.465  48.477  1.00  0.00    -0.323 OA
HETATM   18  O   UNL     1      25.330  50.215  47.697  1.00  0.00    -0.323 OA
HETATM   19  C   UNL     1      26.596  48.739  49.164  1.00  0.00     0.042 A 
HETATM   20  C   UNL     1      23.897  50.351  47.597  1.00  0.00     0.352 A 
HETATM   21  C   UNL     1      26.495  47.755  50.157  1.00  0.00     0.032 A 
ENDBRANCH  11  13
ENDBRANCH   8  11
BRANCH   6  22
HETATM   22  C   UNL     1      26.997  41.975  51.084  1.00  0.00     0.029 A 
HETATM   23  C   UNL     1      28.121  41.149  51.121  1.00  0.00     0.131 A 
HETATM   24  N   UNL     1      28.250  39.967  50.460  1.00  0.00    -0.272 NA
HETATM   25  C   UNL     1      27.197  39.575  49.714  1.00  0.00     0.116 A 
HETATM   26  C   UNL     1      26.029  40.306  49.599  1.00  0.00     0.020 A 
HETATM   27  C   UNL     1      25.934  41.514  50.290  1.00  0.00     0.018 A 
ENDBRANCH   6  22
TORSDOF 3
ENDMDL
MODEL 6
REMARK VINA RESULT:      -9.0      2.795      6.423
REMARK  3 active torsions:
REMARK  status: ('A' for Active; 'I' for Inactive)
REMARK    1  A    between atoms: C_6  and  C_7 
REMARK    2  A    between atoms: C_14  and  N_15 
REMARK    3  A    between atoms: N_15  and  C_16 
ROOT
HETATM    1  C   UNL     1      27.940  40.320  50.505  1.00  0.00     0.001 A 
HETATM    2  C   UNL     1      27.725  41.287  51.485  1.00  0.00     0.018 A 
HETATM    3  C   UNL     1      27.239  42.577  51.144  1.00  0.00     0.039 A 
HETATM    4  C   UNL     1      26.990  42.883  49.802  1.00  0.00     0.073 A 
HETATM    5  N   UNL     1      26.552  44.078  49.400  1.00  0.00    -0.228 NA
HETATM    6  C   UNL     1      26.354  45.016  50.341  1.00  0.00     0.164 A 
HETATM    7  N   UNL     1      26.556  44.827  51.653  1.00  0.00    -0.210 NA
HETATM    8  C   UNL     1      26.988  43.619  52.056  1.00  0.00     0.143 A 
HETATM    9  C   UNL     1      27.210  41.901  48.841  1.00  0.00     0.032 A 
HETATM   10  C   UNL     1      27.677  40.628  49.177  1.00  0.00     0.002 A 
ENDROOT
BRANCH   8  11
HETATM   11  N   UNL     1      27.185  43.378  53.442  1.00  0.00    -0.340 N 
HETATM   12  H   UNL     1      26.299  43.478  53.924  1.00  0.00     0.167 HD
BRANCH  11  13
HETATM   13  C   UNL     1      28.273  43.756  54.262  1.00  0.00     0.036 A 
HETATM   14  C   UNL     1      28.106  44.837  55.147  1.00  0.00     0.069 A 
HETATM   15  C   UNL     1      29.138  45.157  56.006  1.00  0.00     0.107 A 
HETATM   16  C   UNL     1      30.306  44.436  56.035  1.00  0.00     0.105 A 
HETATM   17  O   UNL     1      29.131  46.173  56.910  1.00  0.00    -0.323 OA
HETATM   18  O   UNL     1      31.186  44.909  56.957  1.00  0.00    -0.323 OA
HETATM   19  C   UNL     1      30.503  43.353  55.212  1.00  0.00     0.042 A 
HETATM   20  C   UNL     1      30.432  46.006  57.514  1.00  0.00     0.352 A 
HETATM   21  C   UNL     1      29.468  43.007  54.332  1.00  0.00     0.032 A 
ENDBRANCH  11  13
ENDBRANCH   8  11
BRANCH   6  22
HETATM   22  C   UNL     1      25.882  46.337  49.905  1.00  0.00     0.029 A 
HETATM   23  C   UNL     1      24.527  46.610  49.718  1.00  0.00     0.131 A 
HETATM   24  N   UNL     1      24.014  47.804  49.317  1.00  0.00    -0.272 NA
HETATM   25  C   UNL     1      24.901  48.794  49.086  1.00  0.00     0.116 A 
HETATM   26  C   UNL     1      26.268  48.646  49.238  1.00  0.00     0.020 A 
HETATM   27  C   UNL     1      26.756  47.406  49.650  1.00  0.00     0.018 A 
ENDBRANCH   6  22
TORSDOF 3
ENDMDL
MODEL 7
REMARK VINA RESULT:      -8.9      1.562      4.751
REMARK  3 active torsions:
REMARK  status: ('A' for Active; 'I' for Inactive)
REMARK    1  A    between atoms: C_6  and  C_7 
REMARK    2  A    between atoms: C_14  and  N_15 
REMARK    3  A    between atoms: N_15  and  C_16 
ROOT
HETATM    1  C   UNL     1      28.313  44.616  54.491  1.00  0.00     0.001 A 
HETATM    2  C   UNL     1      27.491  44.392  53.388  1.00  0.00     0.018 A 
HETATM    3  C   UNL     1      27.691  43.268  52.545  1.00  0.00     0.039 A 
HETATM    4  C   UNL     1      28.741  42.384  52.818  1.00  0.00     0.073 A 
HETATM    5  N   UNL     1      29.007  41.317  52.061  1.00  0.00    -0.228 NA
HETATM    6  C   UNL     1      28.222  41.104  50.992  1.00  0.00     0.164 A 
HETATM    7  N   UNL     1      27.188  41.883  50.642  1.00  0.00    -0.210 NA
HETATM    8  C   UNL     1      26.918  42.952  51.413  1.00  0.00     0.143 A 
HETATM    9  C   UNL     1      29.547  42.627  53.925  1.00  0.00     0.032 A 
HETATM   10  C   UNL     1      29.344  43.727  54.762  1.00  0.00     0.002 A 
ENDROOT
BRANCH   8  11
HETATM   11  N   UNL     1      25.813  43.782  51.086  1.00  0.00    -0.340 N 
HETATM   12  H   UNL     1      25.160  43.255  50.516  1.00  0.00     0.167 HD
BRANCH  11  13
HETATM   13  C   UNL     1      25.802  45.157  50.755  1.00  0.00     0.036 A 
HETATM   14  C   UNL     1      26.861  45.673  49.986  1.00  0.00     0.069 A 
HETATM   15  C   UNL     1      26.812  46.996  49.594  1.00  0.00     0.107 A 
HETATM   16  C   UNL     1      25.752  47.808  49.913  1.00  0.00     0.105 A 
HETATM   17  O   UNL     1      27.757  47.640  48.857  1.00  0.00    -0.323 OA
HETATM   18  O   UNL     1      25.896  49.068  49.423  1.00  0.00    -0.323 OA
HETATM   19  C   UNL     1      24.680  47.340  50.636  1.00  0.00     0.042 A 
HETATM   20  C   UNL     1      27.166  48.953  48.749  1.00  0.00     0.352 A 
HETATM   21  C   UNL     1      24.706  45.999  51.043  1.00  0.00     0.032 A 
ENDBRANCH  11  13
ENDBRANCH   8  11
BRANCH   6  22
HETATM   22  C   UNL     1      28.514  39.938  50.148  1.00  0.00     0.029 A 
HETATM   23  C   UNL     1      28.048  39.842  48.836  1.00  0.00     0.131 A 
HETATM   24  N   UNL     1      28.275  38.797  47.996  1.00  0.00    -0.272 NA
HETATM   25  C   UNL     1      29.013  37.779  48.484  1.00  0.00     0.116 A 
HETATM   26  C   UNL     1      29.531  37.758  49.766  1.00  0.00     0.020 A 
HETATM   27  C   UNL     1      29.276  38.848  50.600  1.00  0.00     0.018 A 
ENDBRANCH   6  22
TORSDOF 3
ENDMDL
MODEL 8
REMARK VINA RESULT:      -8.8      4.186      8.957
REMARK  3 active torsions:
REMARK  status: ('A' for Active; 'I' for Inactive)
REMARK    1  A    between atoms: C_6  and  C_7 
REMARK    2  A    between atoms: C_14  and  N_15 
REMARK    3  A    between atoms: N_15  and  C_16 
ROOT
HETATM    1  C   UNL     1      27.779  48.523  49.206  1.00  0.00     0.001 A 
HETATM    2  C   UNL     1      26.685  47.768  49.623  1.00  0.00     0.018 A 
HETATM    3  C   UNL     1      25.359  48.230  49.416  1.00  0.00     0.039 A 
HETATM    4  C   UNL     1      25.152  49.470  48.801  1.00  0.00     0.073 A 
HETATM    5  N   UNL     1      23.937  49.981  48.592  1.00  0.00    -0.228 NA
HETATM    6  C   UNL     1      22.880  49.261  49.001  1.00  0.00     0.164 A 
HETATM    7  N   UNL     1      22.965  48.061  49.595  1.00  0.00    -0.210 NA
HETATM    8  C   UNL     1      24.190  47.544  49.796  1.00  0.00     0.143 A 
HETATM    9  C   UNL     1      26.259  50.205  48.392  1.00  0.00     0.032 A 
HETATM   10  C   UNL     1      27.565  49.746  48.585  1.00  0.00     0.002 A 
ENDROOT
BRANCH   8  11
HETATM   11  N   UNL     1      24.314  46.264  50.398  1.00  0.00    -0.340 N 
HETATM   12  H   UNL     1      23.432  45.770  50.310  1.00  0.00     0.167 HD
BRANCH  11  13
HETATM   13  C   UNL     1      24.999  45.901  51.581  1.00  0.00     0.036 A 
HETATM   14  C   UNL     1      25.553  44.611  51.671  1.00  0.00     0.069 A 
HETATM   15  C   UNL     1      26.292  44.283  52.790  1.00  0.00     0.107 A 
HETATM   16  C   UNL     1      26.517  45.185  53.800  1.00  0.00     0.105 A 
HETATM   17  O   UNL     1      26.882  43.081  53.025  1.00  0.00    -0.323 OA
HETATM   18  O   UNL     1      27.275  44.666  54.802  1.00  0.00    -0.323 OA
HETATM   19  C   UNL     1      26.023  46.467  53.742  1.00  0.00     0.042 A 
HETATM   20  C   UNL     1      27.509  43.333  54.302  1.00  0.00     0.352 A 
HETATM   21  C   UNL     1      25.272  46.825  52.614  1.00  0.00     0.032 A 
ENDBRANCH  11  13
ENDBRANCH   8  11
BRANCH   6  22
HETATM   22  C   UNL     1      21.540  49.821  48.783  1.00  0.00     0.029 A 
HETATM   23  C   UNL     1      20.402  49.015  48.739  1.00  0.00     0.131 A 
HETATM   24  N   UNL     1      19.132  49.459  48.541  1.00  0.00    -0.272 NA
HETATM   25  C   UNL     1      18.977  50.789  48.376  1.00  0.00     0.116 A 
HETATM   26  C   UNL     1      20.026  51.689  48.400  1.00  0.00     0.020 A 
HETATM   27  C   UNL     1      21.315  51.197  48.605  1.00  0.00     0.018 A 
ENDBRANCH   6  22
TORSDOF 3
ENDMDL
MODEL 9
REMARK VINA RESULT:      -8.7      2.574      5.336
REMARK  3 active torsions:
REMARK  status: ('A' for Active; 'I' for Inactive)
REMARK    1  A    between atoms: C_6  and  C_7 
REMARK    2  A    between atoms: C_14  and  N_15 
REMARK    3  A    between atoms: N_15  and  C_16 
ROOT
HETATM    1  C   UNL     1      24.218  46.051  50.101  1.00  0.00     0.001 A 
HETATM    2  C   UNL     1      24.659  44.787  50.486  1.00  0.00     0.018 A 
HETATM    3  C   UNL     1      25.666  44.634  51.474  1.00  0.00     0.039 A 
HETATM    4  C   UNL     1      26.235  45.773  52.055  1.00  0.00     0.073 A 
HETATM    5  N   UNL     1      27.201  45.713  52.974  1.00  0.00    -0.228 NA
HETATM    6  C   UNL     1      27.635  44.496  53.340  1.00  0.00     0.164 A 
HETATM    7  N   UNL     1      27.157  43.342  52.852  1.00  0.00    -0.210 NA
HETATM    8  C   UNL     1      26.177  43.406  51.933  1.00  0.00     0.143 A 
HETATM    9  C   UNL     1      25.778  47.025  51.656  1.00  0.00     0.032 A 
HETATM   10  C   UNL     1      24.779  47.175  50.692  1.00  0.00     0.002 A 
ENDROOT
BRANCH   8  11
HETATM   11  N   UNL     1      25.630  42.202  51.415  1.00  0.00    -0.340 N 
HETATM   12  H   UNL     1      25.243  41.659  52.180  1.00  0.00     0.167 HD
BRANCH  11  13
HETATM   13  C   UNL     1      26.128  41.371  50.385  1.00  0.00     0.036 A 
HETATM   14  C   UNL     1      26.696  41.974  49.249  1.00  0.00     0.069 A 
HETATM   15  C   UNL     1      27.256  41.166  48.279  1.00  0.00     0.107 A 
HETATM   16  C   UNL     1      27.292  39.800  48.407  1.00  0.00     0.105 A 
HETATM   17  O   UNL     1      27.835  41.596  47.126  1.00  0.00    -0.323 OA
HETATM   18  O   UNL     1      27.894  39.194  47.349  1.00  0.00    -0.323 OA
HETATM   19  C   UNL     1      26.778  39.167  49.513  1.00  0.00     0.042 A 
HETATM   20  C   UNL     1      28.243  40.339  46.543  1.00  0.00     0.352 A 
HETATM   21  C   UNL     1      26.206  39.967  50.513  1.00  0.00     0.032 A 
ENDBRANCH  11  13
ENDBRANCH   8  11
BRANCH   6  22
HETATM   22  C   UNL     1      28.705  44.421  54.344  1.00  0.00     0.029 A 
HETATM   23  C   UNL     1      28.869  45.404  55.321  1.00  0.00     0.131 A 
HETATM   24  N   UNL     1      29.832  45.405  56.280  1.00  0.00    -0.272 NA
HETATM   25  C   UNL     1      30.690  44.365  56.275  1.00  0.00     0.116 A 
HETATM   26  C   UNL     1      30.630  43.329  55.360  1.00  0.00     0.020 A 
HETATM   27  C   UNL     1      29.628  43.363  54.390  1.00  0.00     0.018 A 
ENDBRANCH   6  22
TORSDOF 3
ENDMDL
MODEL 10
REMARK VINA RESULT:      -8.4      1.830      5.074
REMARK  3 active torsions:
REMARK  status: ('A' for Active; 'I' for Inactive)
REMARK    1  A    between atoms: C_6  and  C_7 
REMARK    2  A    between atoms: C_14  and  N_15 
REMARK    3  A    between atoms: N_15  and  C_16 
ROOT
HETATM    1  C   UNL     1      29.245  44.128  54.703  1.00  0.00     0.001 A 
HETATM    2  C   UNL     1      28.289  44.708  53.872  1.00  0.00     0.018 A 
HETATM    3  C   UNL     1      27.795  44.017  52.735  1.00  0.00     0.039 A 
HETATM    4  C   UNL     1      28.291  42.743  52.437  1.00  0.00     0.073 A 
HETATM    5  N   UNL     1      27.893  42.040  51.375  1.00  0.00    -0.228 NA
HETATM    6  C   UNL     1      26.979  42.600  50.566  1.00  0.00     0.164 A 
HETATM    7  N   UNL     1      26.435  43.810  50.761  1.00  0.00    -0.210 NA
HETATM    8  C   UNL     1      26.831  44.512  51.837  1.00  0.00     0.143 A 
HETATM    9  C   UNL     1      29.244  42.184  53.282  1.00  0.00     0.032 A 
HETATM   10  C   UNL     1      29.722  42.859  54.408  1.00  0.00     0.002 A 
ENDROOT
BRANCH   8  11
HETATM   11  N   UNL     1      26.254  45.786  52.087  1.00  0.00    -0.340 N 
HETATM   12  H   UNL     1      25.616  45.712  52.872  1.00  0.00     0.167 HD
BRANCH  11  13
HETATM   13  C   UNL     1      25.829  46.765  51.159  1.00  0.00     0.036 A 
HETATM   14  C   UNL     1      26.802  47.556  50.521  1.00  0.00     0.069 A 
HETATM   15  C   UNL     1      26.396  48.456  49.555  1.00  0.00     0.107 A 
HETATM   16  C   UNL     1      25.078  48.581  49.190  1.00  0.00     0.105 A 
HETATM   17  O   UNL     1      27.211  49.291  48.857  1.00  0.00    -0.323 OA
HETATM   18  O   UNL     1      24.895  49.514  48.218  1.00  0.00    -0.323 OA
HETATM   19  C   UNL     1      24.097  47.808  49.763  1.00  0.00     0.042 A 
HETATM   20  C   UNL     1      26.251  49.956  48.006  1.00  0.00     0.352 A 
HETATM   21  C   UNL     1      24.485  46.885  50.744  1.00  0.00     0.032 A 
ENDBRANCH  11  13
ENDBRANCH   8  11
BRANCH   6  22
HETATM   22  C   UNL     1      26.543  41.836  49.390  1.00  0.00     0.029 A 
HETATM   23  C   UNL     1      27.442  41.412  48.411  1.00  0.00     0.131 A 
HETATM   24  N   UNL     1      27.115  40.705  47.297  1.00  0.00    -0.272 NA
HETATM   25  C   UNL     1      25.812  40.394  47.140  1.00  0.00     0.116 A 
HETATM   26  C   UNL     1      24.827  40.757  48.041  1.00  0.00     0.020 A 
HETATM   27  C   UNL     1      25.201  41.483  49.171  1.00  0.00     0.018 A 
ENDBRANCH   6  22
TORSDOF 3
ENDMDL
