MODEL 1
REMARK VINA RESULT:      -8.3      0.000      0.000
REMARK  5 active torsions:
REMARK  status: ('A' for Active; 'I' for Inactive)
REMARK    1  A    between atoms: C_8  and  N_9 
REMARK       I    between atoms: N_9  and  C_10 
REMARK    2  A    between atoms: C_10  and  C_11 
REMARK    3  A    between atoms: C_11  and  N_12 
REMARK    4  A    between atoms: N_12  and  C_13 
REMARK    5  A    between atoms: C_13  and  C_14 
ROOT
HETATM    1  C   UNL     1      25.213  45.320  52.146  1.00  0.00     0.372 C 
ENDROOT
BRANCH   1   2
HETATM    2  C   UNL     1      25.313  46.778  51.657  1.00  0.00     0.250 C 
HETATM    3  N   UNL     1      25.218  46.875  50.282  1.00  0.00    -0.322 N 
HETATM    4  H   UNL     1      25.031  46.026  49.766  1.00  0.00     0.169 HD
HETATM    5  O   UNL     1      25.389  47.710  52.451  1.00  0.00    -0.271 OA
BRANCH   3   6
HETATM    6  C   UNL     1      25.259  48.034  49.523  1.00  0.00     0.085 A 
HETATM    7  C   UNL     1      24.104  48.616  49.032  1.00  0.00     0.052 A 
HETATM    8  C   UNL     1      22.671  48.256  49.148  1.00  0.00     0.072 C 
HETATM    9  N   UNL     1      24.506  49.725  48.346  1.00  0.00    -0.280 N 
HETATM   10  H   UNL     1      23.933  50.404  47.856  1.00  0.00     0.189 HD
HETATM   11  N   UNL     1      25.828  49.908  48.341  1.00  0.00    -0.177 NA
HETATM   12  C   UNL     1      26.310  48.876  49.053  1.00  0.00     0.079 A 
HETATM   13  C   UNL     1      27.783  48.763  49.200  1.00  0.00     0.075 C 
ENDBRANCH   3   6
ENDBRANCH   1   2
BRANCH   1  14
HETATM   14  N   UNL     1      26.555  44.782  52.387  1.00  0.00     0.101 N 
HETATM   15  H   UNL     1      27.199  45.570  52.527  1.00  0.00     0.317 HD
BRANCH  14  16
HETATM   16  C   UNL     1      26.649  43.854  53.522  1.00  0.00     0.254 C 
HETATM   17  C   UNL     1      25.519  44.023  54.547  1.00  0.00     0.048 C 
BRANCH  16  18
HETATM   18  C   UNL     1      27.986  44.002  54.240  1.00  0.00     0.035 A 
HETATM   19  C   UNL     1      28.925  42.960  54.325  1.00  0.00     0.045 A 
HETATM   20 CL   UNL     1      28.652  41.406  53.616  1.00  0.00    -0.084 Cl
HETATM   21  C   UNL     1      30.127  43.127  55.028  1.00  0.00     0.024 A 
HETATM   22  C   UNL     1      30.415  44.332  55.665  1.00  0.00     0.005 A 
HETATM   23  C   UNL     1      29.492  45.369  55.610  1.00  0.00     0.043 A 
HETATM   24  C   UNL     1      28.297  45.195  54.915  1.00  0.00     0.126 A 
HETATM   25  F   UNL     1      27.417  46.208  54.929  1.00  0.00    -0.205 F 
ENDBRANCH  16  18
ENDBRANCH  14  16
ENDBRANCH   1  14
TORSDOF 5
ENDMDL
MODEL 2
REMARK VINA RESULT:      -8.2      1.614      1.911
REMARK  5 active torsions:
REMARK  status: ('A' for Active; 'I' for Inactive)
REMARK    1  A    between atoms: C_8  and  N_9 
REMARK       I    between atoms: N_9  and  C_10 
REMARK    2  A    between atoms: C_10  and  C_11 
REMARK    3  A    between atoms: C_11  and  N_12 
REMARK    4  A    between atoms: N_12  and  C_13 
REMARK    5  A    between atoms: C_13  and  C_14 
ROOT
HETATM    1  C   UNL     1      25.769  45.166  52.053  1.00  0.00     0.372 C 
ENDROOT
BRANCH   1   2
HETATM    2  C   UNL     1      25.652  46.641  51.623  1.00  0.00     0.250 C 
HETATM    3  N   UNL     1      25.612  46.782  50.249  1.00  0.00    -0.322 N 
HETATM    4  H   UNL     1      25.593  45.938  49.693  1.00  0.00     0.169 HD
HETATM    5  O   UNL     1      25.531  47.538  52.452  1.00  0.00    -0.271 OA
BRANCH   3   6
HETATM    6  C   UNL     1      25.498  47.965  49.535  1.00  0.00     0.085 A 
HETATM    7  C   UNL     1      24.271  48.425  49.091  1.00  0.00     0.052 A 
HETATM    8  C   UNL     1      22.893  47.896  49.223  1.00  0.00     0.072 C 
HETATM    9  N   UNL     1      24.524  49.598  48.441  1.00  0.00    -0.280 N 
HETATM   10  H   UNL     1      23.864  50.223  47.990  1.00  0.00     0.189 HD
HETATM   11  N   UNL     1      25.815  49.935  48.415  1.00  0.00    -0.177 NA
HETATM   12  C   UNL     1      26.431  48.941  49.076  1.00  0.00     0.079 A 
HETATM   13  C   UNL     1      27.911  48.996  49.188  1.00  0.00     0.075 C 
ENDBRANCH   3   6
ENDBRANCH   1   2
BRANCH   1  14
HETATM   14  N   UNL     1      27.111  44.908  52.584  1.00  0.00     0.101 N 
HETATM   15  H   UNL     1      27.520  45.803  52.878  1.00  0.00     0.317 HD
BRANCH  14  16
HETATM   16  C   UNL     1      27.156  43.950  53.697  1.00  0.00     0.254 C 
HETATM   17  C   UNL     1      25.935  44.029  54.623  1.00  0.00     0.048 C 
BRANCH  16  18
HETATM   18  C   UNL     1      28.417  44.142  54.533  1.00  0.00     0.035 A 
HETATM   19  C   UNL     1      28.738  45.359  55.159  1.00  0.00     0.045 A 
HETATM   20 CL   UNL     1      27.724  46.757  55.044  1.00  0.00    -0.084 Cl
HETATM   21  C   UNL     1      29.927  45.504  55.888  1.00  0.00     0.024 A 
HETATM   22  C   UNL     1      30.824  44.444  56.001  1.00  0.00     0.005 A 
HETATM   23  C   UNL     1      30.536  43.238  55.374  1.00  0.00     0.043 A 
HETATM   24  C   UNL     1      29.355  43.102  54.646  1.00  0.00     0.126 A 
HETATM   25  F   UNL     1      29.142  41.934  54.020  1.00  0.00    -0.205 F 
ENDBRANCH  16  18
ENDBRANCH  14  16
ENDBRANCH   1  14
TORSDOF 5
ENDMDL
MODEL 3
REMARK VINA RESULT:      -8.2      1.604      2.573
REMARK  5 active torsions:
REMARK  status: ('A' for Active; 'I' for Inactive)
REMARK    1  A    between atoms: C_8  and  N_9 
REMARK       I    between atoms: N_9  and  C_10 
REMARK    2  A    between atoms: C_10  and  C_11 
REMARK    3  A    between atoms: C_11  and  N_12 
REMARK    4  A    between atoms: N_12  and  C_13 
REMARK    5  A    between atoms: C_13  and  C_14 
ROOT
HETATM    1  C   UNL     1      25.788  45.197  51.882  1.00  0.00     0.372 C 
ENDROOT
BRANCH   1   2
HETATM    2  C   UNL     1      25.565  46.673  51.498  1.00  0.00     0.250 C 
HETATM    3  N   UNL     1      25.456  46.845  50.131  1.00  0.00    -0.322 N 
HETATM    4  H   UNL     1      25.463  46.016  49.554  1.00  0.00     0.169 HD
HETATM    5  O   UNL     1      25.428  47.539  52.356  1.00  0.00    -0.271 OA
BRANCH   3   6
HETATM    6  C   UNL     1      25.242  48.037  49.456  1.00  0.00     0.085 A 
HETATM    7  C   UNL     1      26.296  48.840  49.056  1.00  0.00     0.052 A 
HETATM    8  C   UNL     1      27.766  48.705  49.186  1.00  0.00     0.072 C 
HETATM    9  N   UNL     1      25.732  49.911  48.426  1.00  0.00    -0.280 N 
HETATM   10  H   UNL     1      26.196  50.704  47.995  1.00  0.00     0.189 HD
HETATM   11  N   UNL     1      24.398  49.878  48.391  1.00  0.00    -0.177 NA
HETATM   12  C   UNL     1      24.077  48.737  49.024  1.00  0.00     0.079 A 
HETATM   13  C   UNL     1      22.636  48.422  49.197  1.00  0.00     0.075 C 
ENDBRANCH   3   6
ENDBRANCH   1   2
BRANCH   1  14
HETATM   14  N   UNL     1      27.090  45.045  52.539  1.00  0.00     0.101 N 
HETATM   15  H   UNL     1      27.374  45.960  52.908  1.00  0.00     0.317 HD
BRANCH  14  16
HETATM   16  C   UNL     1      27.121  44.042  53.613  1.00  0.00     0.254 C 
HETATM   17  C   UNL     1      25.890  44.086  54.528  1.00  0.00     0.048 C 
BRANCH  16  18
HETATM   18  C   UNL     1      28.373  44.198  54.469  1.00  0.00     0.035 A 
HETATM   19  C   UNL     1      28.708  45.399  55.117  1.00  0.00     0.045 A 
HETATM   20 CL   UNL     1      27.724  46.818  55.007  1.00  0.00    -0.084 Cl
HETATM   21  C   UNL     1      29.890  45.511  55.864  1.00  0.00     0.024 A 
HETATM   22  C   UNL     1      30.764  44.432  55.976  1.00  0.00     0.005 A 
HETATM   23  C   UNL     1      30.461  43.241  55.328  1.00  0.00     0.043 A 
HETATM   24  C   UNL     1      29.289  43.138  54.581  1.00  0.00     0.126 A 
HETATM   25  F   UNL     1      29.063  41.983  53.935  1.00  0.00    -0.205 F 
ENDBRANCH  16  18
ENDBRANCH  14  16
ENDBRANCH   1  14
TORSDOF 5
ENDMDL
MODEL 4
REMARK VINA RESULT:      -7.5      3.195      7.600
REMARK  5 active torsions:
REMARK  status: ('A' for Active; 'I' for Inactive)
REMARK    1  A    between atoms: C_8  and  N_9 
REMARK       I    between atoms: N_9  and  C_10 
REMARK    2  A    between atoms: C_10  and  C_11 
REMARK    3  A    between atoms: C_11  and  N_12 
REMARK    4  A    between atoms: N_12  and  C_13 
REMARK    5  A    between atoms: C_13  and  C_14 
ROOT
HETATM    1  C   UNL     1      25.144  45.257  52.222  1.00  0.00     0.372 C 
ENDROOT
BRANCH   1   2
HETATM    2  C   UNL     1      26.586  44.755  52.427  1.00  0.00     0.250 C 
HETATM    3  N   UNL     1      26.900  44.604  53.764  1.00  0.00    -0.322 N 
HETATM    4  H   UNL     1      26.164  44.763  54.438  1.00  0.00     0.169 HD
HETATM    5  O   UNL     1      27.300  44.465  51.472  1.00  0.00    -0.271 OA
BRANCH   3   6
HETATM    6  C   UNL     1      28.103  44.162  54.294  1.00  0.00     0.085 A 
HETATM    7  C   UNL     1      28.914  44.998  55.040  1.00  0.00     0.052 A 
HETATM    8  C   UNL     1      28.779  46.412  55.464  1.00  0.00     0.072 C 
HETATM    9  N   UNL     1      29.995  44.247  55.400  1.00  0.00    -0.280 N 
HETATM   10  H   UNL     1      30.796  44.524  55.959  1.00  0.00     0.189 HD
HETATM   11  N   UNL     1      29.961  42.995  54.941  1.00  0.00    -0.177 NA
HETATM   12  C   UNL     1      28.809  42.924  54.253  1.00  0.00     0.079 A 
HETATM   13  C   UNL     1      28.490  41.646  53.567  1.00  0.00     0.075 C 
ENDBRANCH   3   6
ENDBRANCH   1   2
BRANCH   1  14
HETATM   14  N   UNL     1      25.163  46.614  51.669  1.00  0.00     0.101 N 
HETATM   15  H   UNL     1      26.142  46.908  51.566  1.00  0.00     0.317 HD
BRANCH  14  16
HETATM   16  C   UNL     1      24.460  46.765  50.388  1.00  0.00     0.254 C 
HETATM   17  C   UNL     1      24.538  45.518  49.496  1.00  0.00     0.048 C 
BRANCH  16  18
HETATM   18  C   UNL     1      24.996  47.959  49.607  1.00  0.00     0.035 A 
HETATM   19  C   UNL     1      24.159  48.898  48.979  1.00  0.00     0.045 A 
HETATM   20 CL   UNL     1      22.433  48.787  49.038  1.00  0.00    -0.084 Cl
HETATM   21  C   UNL     1      24.695  49.962  48.238  1.00  0.00     0.024 A 
HETATM   22  C   UNL     1      26.074  50.108  48.103  1.00  0.00     0.005 A 
HETATM   23  C   UNL     1      26.919  49.181  48.699  1.00  0.00     0.043 A 
HETATM   24  C   UNL     1      26.381  48.123  49.428  1.00  0.00     0.126 A 
HETATM   25  F   UNL     1      27.235  47.227  49.947  1.00  0.00    -0.205 F 
ENDBRANCH  16  18
ENDBRANCH  14  16
ENDBRANCH   1  14
TORSDOF 5
ENDMDL
MODEL 5
REMARK VINA RESULT:      -7.4      3.225      7.054
REMARK  5 active torsions:
REMARK  status: ('A' for Active; 'I' for Inactive)
REMARK    1  A    between atoms: C_8  and  N_9 
REMARK       I    between atoms: N_9  and  C_10 
REMARK    2  A    between atoms: C_10  and  C_11 
REMARK    3  A    between atoms: C_11  and  N_12 
REMARK    4  A    between atoms: N_12  and  C_13 
REMARK    5  A    between atoms: C_13  and  C_14 
ROOT
HETATM    1  C   UNL     1      25.053  44.392  51.846  1.00  0.00     0.372 C 
ENDROOT
BRANCH   1   2
HETATM    2  C   UNL     1      25.701  44.532  53.237  1.00  0.00     0.250 C 
HETATM    3  N   UNL     1      27.000  44.999  53.162  1.00  0.00    -0.322 N 
HETATM    4  H   UNL     1      27.352  45.257  52.250  1.00  0.00     0.169 HD
HETATM    5  O   UNL     1      25.062  44.314  54.261  1.00  0.00    -0.271 OA
BRANCH   3   6
HETATM    6  C   UNL     1      27.859  45.247  54.222  1.00  0.00     0.085 A 
HETATM    7  C   UNL     1      28.841  44.342  54.582  1.00  0.00     0.052 A 
HETATM    8  C   UNL     1      29.244  43.026  54.032  1.00  0.00     0.072 C 
HETATM    9  N   UNL     1      29.493  44.900  55.643  1.00  0.00    -0.280 N 
HETATM   10  H   UNL     1      30.278  44.526  56.166  1.00  0.00     0.189 HD
HETATM   11  N   UNL     1      29.011  46.088  56.011  1.00  0.00    -0.177 NA
HETATM   12  C   UNL     1      28.001  46.317  55.154  1.00  0.00     0.079 A 
HETATM   13  C   UNL     1      27.214  47.564  55.327  1.00  0.00     0.075 C 
ENDBRANCH   3   6
ENDBRANCH   1   2
BRANCH   1  14
HETATM   14  N   UNL     1      24.429  45.661  51.459  1.00  0.00     0.101 N 
HETATM   15  H   UNL     1      24.949  46.426  51.905  1.00  0.00     0.317 HD
BRANCH  14  16
HETATM   16  C   UNL     1      24.354  45.889  50.009  1.00  0.00     0.254 C 
HETATM   17  C   UNL     1      24.892  44.718  49.176  1.00  0.00     0.048 C 
BRANCH  16  18
HETATM   18  C   UNL     1      25.106  47.155  49.615  1.00  0.00     0.035 A 
HETATM   19  C   UNL     1      24.458  48.316  49.159  1.00  0.00     0.045 A 
HETATM   20 CL   UNL     1      22.737  48.418  49.006  1.00  0.00    -0.084 Cl
HETATM   21  C   UNL     1      25.191  49.448  48.771  1.00  0.00     0.024 A 
HETATM   22  C   UNL     1      26.583  49.443  48.823  1.00  0.00     0.005 A 
HETATM   23  C   UNL     1      27.245  48.300  49.252  1.00  0.00     0.043 A 
HETATM   24  C   UNL     1      26.511  47.176  49.631  1.00  0.00     0.126 A 
HETATM   25  F   UNL     1      27.195  46.081  49.994  1.00  0.00    -0.205 F 
ENDBRANCH  16  18
ENDBRANCH  14  16
ENDBRANCH   1  14
TORSDOF 5
ENDMDL
MODEL 6
REMARK VINA RESULT:      -7.4      2.611      3.352
REMARK  5 active torsions:
REMARK  status: ('A' for Active; 'I' for Inactive)
REMARK    1  A    between atoms: C_8  and  N_9 
REMARK       I    between atoms: N_9  and  C_10 
REMARK    2  A    between atoms: C_10  and  C_11 
REMARK    3  A    between atoms: C_11  and  N_12 
REMARK    4  A    between atoms: N_12  and  C_13 
REMARK    5  A    between atoms: C_13  and  C_14 
ROOT
HETATM    1  C   UNL     1      27.559  42.800  51.420  1.00  0.00     0.372 C 
ENDROOT
BRANCH   1   2
HETATM    2  C   UNL     1      26.795  43.702  50.431  1.00  0.00     0.250 C 
HETATM    3  N   UNL     1      25.746  44.368  51.037  1.00  0.00    -0.322 N 
HETATM    4  H   UNL     1      25.635  44.255  52.036  1.00  0.00     0.169 HD
HETATM    5  O   UNL     1      27.169  43.834  49.271  1.00  0.00    -0.271 OA
BRANCH   3   6
HETATM    6  C   UNL     1      24.869  45.261  50.440  1.00  0.00     0.085 A 
HETATM    7  C   UNL     1      23.625  44.859  49.990  1.00  0.00     0.052 A 
HETATM    8  C   UNL     1      22.925  43.553  50.006  1.00  0.00     0.072 C 
HETATM    9  N   UNL     1      23.036  45.976  49.472  1.00  0.00    -0.280 N 
HETATM   10  H   UNL     1      22.114  46.065  49.056  1.00  0.00     0.189 HD
HETATM   11  N   UNL     1      23.797  47.069  49.538  1.00  0.00    -0.177 NA
HETATM   12  C   UNL     1      24.931  46.650  50.124  1.00  0.00     0.079 A 
HETATM   13  C   UNL     1      26.023  47.640  50.307  1.00  0.00     0.075 C 
ENDBRANCH   3   6
ENDBRANCH   1   2
BRANCH   1  14
HETATM   14  N   UNL     1      28.369  43.624  52.321  1.00  0.00     0.101 N 
HETATM   15  H   UNL     1      27.839  44.474  52.548  1.00  0.00     0.317 HD
BRANCH  14  16
HETATM   16  C   UNL     1      28.786  42.951  53.559  1.00  0.00     0.254 C 
HETATM   17  C   UNL     1      27.719  42.008  54.132  1.00  0.00     0.048 C 
BRANCH  16  18
HETATM   18  C   UNL     1      29.168  43.967  54.631  1.00  0.00     0.035 A 
HETATM   19  C   UNL     1      28.395  45.107  54.910  1.00  0.00     0.045 A 
HETATM   20 CL   UNL     1      26.929  45.464  54.062  1.00  0.00    -0.084 Cl
HETATM   21  C   UNL     1      28.802  46.036  55.878  1.00  0.00     0.024 A 
HETATM   22  C   UNL     1      29.990  45.852  56.583  1.00  0.00     0.005 A 
HETATM   23  C   UNL     1      30.779  44.741  56.310  1.00  0.00     0.043 A 
HETATM   24  C   UNL     1      30.372  43.825  55.342  1.00  0.00     0.126 A 
HETATM   25  F   UNL     1      31.189  42.793  55.080  1.00  0.00    -0.205 F 
ENDBRANCH  16  18
ENDBRANCH  14  16
ENDBRANCH   1  14
TORSDOF 5
ENDMDL
MODEL 7
REMARK VINA RESULT:      -7.4      3.798      5.414
REMARK  5 active torsions:
REMARK  status: ('A' for Active; 'I' for Inactive)
REMARK    1  A    between atoms: C_8  and  N_9 
REMARK       I    between atoms: N_9  and  C_10 
REMARK    2  A    between atoms: C_10  and  C_11 
REMARK    3  A    between atoms: C_11  and  N_12 
REMARK    4  A    between atoms: N_12  and  C_13 
REMARK    5  A    between atoms: C_13  and  C_14 
ROOT
HETATM    1  C   UNL     1      26.086  44.708  51.643  1.00  0.00     0.372 C 
ENDROOT
BRANCH   1   2
HETATM    2  C   UNL     1      26.417  43.708  50.519  1.00  0.00     0.250 C 
HETATM    3  N   UNL     1      25.848  42.468  50.739  1.00  0.00    -0.322 N 
HETATM    4  H   UNL     1      25.241  42.368  51.542  1.00  0.00     0.169 HD
HETATM    5  O   UNL     1      27.052  44.053  49.527  1.00  0.00    -0.271 OA
BRANCH   3   6
HETATM    6  C   UNL     1      25.938  41.352  49.921  1.00  0.00     0.085 A 
HETATM    7  C   UNL     1      24.934  41.031  49.024  1.00  0.00     0.052 A 
HETATM    8  C   UNL     1      23.645  41.679  48.687  1.00  0.00     0.072 C 
HETATM    9  N   UNL     1      25.347  39.895  48.392  1.00  0.00    -0.280 N 
HETATM   10  H   UNL     1      24.872  39.372  47.663  1.00  0.00     0.189 HD
HETATM   11  N   UNL     1      26.531  39.443  48.809  1.00  0.00    -0.177 NA
HETATM   12  C   UNL     1      26.908  40.321  49.754  1.00  0.00     0.079 A 
HETATM   13  C   UNL     1      28.190  40.071  50.460  1.00  0.00     0.075 C 
ENDBRANCH   3   6
ENDBRANCH   1   2
BRANCH   1  14
HETATM   14  N   UNL     1      27.238  44.850  52.538  1.00  0.00     0.101 N 
HETATM   15  H   UNL     1      27.257  45.814  52.891  1.00  0.00     0.317 HD
BRANCH  14  16
HETATM   16  C   UNL     1      27.260  43.906  53.664  1.00  0.00     0.254 C 
HETATM   17  C   UNL     1      26.013  43.988  54.556  1.00  0.00     0.048 C 
BRANCH  16  18
HETATM   18  C   UNL     1      28.496  44.118  54.531  1.00  0.00     0.035 A 
HETATM   19  C   UNL     1      28.780  45.338  55.168  1.00  0.00     0.045 A 
HETATM   20 CL   UNL     1      27.745  46.719  55.031  1.00  0.00    -0.084 Cl
HETATM   21  C   UNL     1      29.949  45.503  55.926  1.00  0.00     0.024 A 
HETATM   22  C   UNL     1      30.860  44.458  56.059  1.00  0.00     0.005 A 
HETATM   23  C   UNL     1      30.609  43.249  55.423  1.00  0.00     0.043 A 
HETATM   24  C   UNL     1      29.449  43.094  54.666  1.00  0.00     0.126 A 
HETATM   25  F   UNL     1      29.273  41.924  54.032  1.00  0.00    -0.205 F 
ENDBRANCH  16  18
ENDBRANCH  14  16
ENDBRANCH   1  14
TORSDOF 5
ENDMDL
MODEL 8
REMARK VINA RESULT:      -7.3      3.368      4.458
REMARK  5 active torsions:
REMARK  status: ('A' for Active; 'I' for Inactive)
REMARK    1  A    between atoms: C_8  and  N_9 
REMARK       I    between atoms: N_9  and  C_10 
REMARK    2  A    between atoms: C_10  and  C_11 
REMARK    3  A    between atoms: C_11  and  N_12 
REMARK    4  A    between atoms: N_12  and  C_13 
REMARK    5  A    between atoms: C_13  and  C_14 
ROOT
HETATM    1  C   UNL     1      27.642  41.928  52.950  1.00  0.00     0.372 C 
ENDROOT
BRANCH   1   2
HETATM    2  C   UNL     1      26.992  42.693  51.782  1.00  0.00     0.250 C 
HETATM    3  N   UNL     1      25.721  43.139  52.093  1.00  0.00    -0.322 N 
HETATM    4  H   UNL     1      25.390  42.985  53.036  1.00  0.00     0.169 HD
HETATM    5  O   UNL     1      27.611  42.919  50.747  1.00  0.00    -0.271 OA
BRANCH   3   6
HETATM    6  C   UNL     1      24.869  43.866  51.276  1.00  0.00     0.085 A 
HETATM    7  C   UNL     1      24.747  45.239  51.400  1.00  0.00     0.052 A 
HETATM    8  C   UNL     1      25.395  46.227  52.295  1.00  0.00     0.072 C 
HETATM    9  N   UNL     1      23.844  45.621  50.452  1.00  0.00    -0.280 N 
HETATM   10  H   UNL     1      23.510  46.556  50.242  1.00  0.00     0.189 HD
HETATM   11  N   UNL     1      23.359  44.611  49.728  1.00  0.00    -0.177 NA
HETATM   12  C   UNL     1      23.971  43.522  50.223  1.00  0.00     0.079 A 
HETATM   13  C   UNL     1      23.609  42.201  49.649  1.00  0.00     0.075 C 
ENDBRANCH   3   6
ENDBRANCH   1   2
BRANCH   1  14
HETATM   14  N   UNL     1      27.906  42.847  54.061  1.00  0.00     0.101 N 
HETATM   15  H   UNL     1      28.051  42.292  54.913  1.00  0.00     0.317 HD
BRANCH  14  16
HETATM   16  C   UNL     1      29.048  43.749  53.853  1.00  0.00     0.254 C 
HETATM   17  C   UNL     1      30.235  43.080  53.146  1.00  0.00     0.048 C 
BRANCH  16  18
HETATM   18  C   UNL     1      29.532  44.331  55.176  1.00  0.00     0.035 A 
HETATM   19  C   UNL     1      29.010  45.515  55.725  1.00  0.00     0.045 A 
HETATM   20 CL   UNL     1      27.759  46.424  54.947  1.00  0.00    -0.084 Cl
HETATM   21  C   UNL     1      29.510  46.037  56.926  1.00  0.00     0.024 A 
HETATM   22  C   UNL     1      30.545  45.394  57.602  1.00  0.00     0.005 A 
HETATM   23  C   UNL     1      31.089  44.233  57.069  1.00  0.00     0.043 A 
HETATM   24  C   UNL     1      30.592  43.722  55.871  1.00  0.00     0.126 A 
HETATM   25  F   UNL     1      31.180  42.624  55.371  1.00  0.00    -0.205 F 
ENDBRANCH  16  18
ENDBRANCH  14  16
ENDBRANCH   1  14
TORSDOF 5
ENDMDL
MODEL 9
REMARK VINA RESULT:      -7.3      4.489      8.888
REMARK  5 active torsions:
REMARK  status: ('A' for Active; 'I' for Inactive)
REMARK    1  A    between atoms: C_8  and  N_9 
REMARK       I    between atoms: N_9  and  C_10 
REMARK    2  A    between atoms: C_10  and  C_11 
REMARK    3  A    between atoms: C_11  and  N_12 
REMARK    4  A    between atoms: N_12  and  C_13 
REMARK    5  A    between atoms: C_13  and  C_14 
ROOT
HETATM    1  C   UNL     1      23.411  47.309  49.154  1.00  0.00     0.372 C 
ENDROOT
BRANCH   1   2
HETATM    2  C   UNL     1      24.620  47.252  50.108  1.00  0.00     0.250 C 
HETATM    3  N   UNL     1      24.747  46.017  50.716  1.00  0.00    -0.322 N 
HETATM    4  H   UNL     1      24.105  45.289  50.433  1.00  0.00     0.169 HD
HETATM    5  O   UNL     1      25.392  48.200  50.214  1.00  0.00    -0.271 OA
BRANCH   3   6
HETATM    6  C   UNL     1      25.727  45.628  51.616  1.00  0.00     0.085 A 
HETATM    7  C   UNL     1      26.516  44.515  51.387  1.00  0.00     0.052 A 
HETATM    8  C   UNL     1      26.573  43.537  50.275  1.00  0.00     0.072 C 
HETATM    9  N   UNL     1      27.362  44.430  52.454  1.00  0.00    -0.280 N 
HETATM   10  H   UNL     1      28.089  43.743  52.628  1.00  0.00     0.189 HD
HETATM   11  N   UNL     1      27.182  45.389  53.364  1.00  0.00    -0.177 NA
HETATM   12  C   UNL     1      26.178  46.132  52.871  1.00  0.00     0.079 A 
HETATM   13  C   UNL     1      25.698  47.278  53.686  1.00  0.00     0.075 C 
ENDBRANCH   3   6
ENDBRANCH   1   2
BRANCH   1  14
HETATM   14  N   UNL     1      22.519  48.403  49.547  1.00  0.00     0.101 N 
HETATM   15  H   UNL     1      22.918  49.286  49.204  1.00  0.00     0.317 HD
BRANCH  14  16
HETATM   16  C   UNL     1      21.134  48.266  49.073  1.00  0.00     0.254 C 
HETATM   17  C   UNL     1      21.030  47.776  47.622  1.00  0.00     0.048 C 
BRANCH  16  18
HETATM   18  C   UNL     1      20.380  49.585  49.199  1.00  0.00     0.035 A 
HETATM   19  C   UNL     1      19.250  49.741  50.020  1.00  0.00     0.045 A 
HETATM   20 CL   UNL     1      18.609  48.445  50.972  1.00  0.00    -0.084 Cl
HETATM   21  C   UNL     1      18.562  50.962  50.078  1.00  0.00     0.024 A 
HETATM   22  C   UNL     1      18.983  52.049  49.315  1.00  0.00     0.005 A 
HETATM   23  C   UNL     1      20.086  51.912  48.482  1.00  0.00     0.043 A 
HETATM   24  C   UNL     1      20.761  50.694  48.424  1.00  0.00     0.126 A 
HETATM   25  F   UNL     1      21.793  50.595  47.571  1.00  0.00    -0.205 F 
ENDBRANCH  16  18
ENDBRANCH  14  16
ENDBRANCH   1  14
TORSDOF 5
ENDMDL
MODEL 10
REMARK VINA RESULT:      -7.2      5.994      9.519
REMARK  5 active torsions:
REMARK  status: ('A' for Active; 'I' for Inactive)
REMARK    1  A    between atoms: C_8  and  N_9 
REMARK       I    between atoms: N_9  and  C_10 
REMARK    2  A    between atoms: C_10  and  C_11 
REMARK    3  A    between atoms: C_11  and  N_12 
REMARK    4  A    between atoms: N_12  and  C_13 
REMARK    5  A    between atoms: C_13  and  C_14 
ROOT
HETATM    1  C   UNL     1      19.964  46.467  48.551  1.00  0.00     0.372 C 
ENDROOT
BRANCH   1   2
HETATM    2  C   UNL     1      21.296  47.115  48.127  1.00  0.00     0.250 C 
HETATM    3  N   UNL     1      21.969  47.672  49.198  1.00  0.00    -0.322 N 
HETATM    4  H   UNL     1      21.571  47.542  50.118  1.00  0.00     0.169 HD
HETATM    5  O   UNL     1      21.699  47.043  46.970  1.00  0.00    -0.271 OA
BRANCH   3   6
HETATM    6  C   UNL     1      23.194  48.320  49.168  1.00  0.00     0.085 A 
HETATM    7  C   UNL     1      24.353  47.693  49.590  1.00  0.00     0.052 A 
HETATM    8  C   UNL     1      24.624  46.334  50.117  1.00  0.00     0.072 C 
HETATM    9  N   UNL     1      25.354  48.604  49.421  1.00  0.00    -0.280 N 
HETATM   10  H   UNL     1      26.344  48.494  49.617  1.00  0.00     0.189 HD
HETATM   11  N   UNL     1      24.943  49.776  48.933  1.00  0.00    -0.177 NA
HETATM   12  C   UNL     1      23.618  49.624  48.777  1.00  0.00     0.079 A 
HETATM   13  C   UNL     1      22.841  50.789  48.282  1.00  0.00     0.075 C 
ENDBRANCH   3   6
ENDBRANCH   1   2
BRANCH   1  14
HETATM   14  N   UNL     1      18.853  47.101  47.835  1.00  0.00     0.101 N 
HETATM   15  H   UNL     1      18.305  46.366  47.372  1.00  0.00     0.317 HD
BRANCH  14  16
HETATM   16  C   UNL     1      17.973  47.924  48.677  1.00  0.00     0.254 C 
HETATM   17  C   UNL     1      16.515  47.950  48.196  1.00  0.00     0.048 C 
BRANCH  16  18
HETATM   18  C   UNL     1      18.484  49.357  48.764  1.00  0.00     0.035 A 
HETATM   19  C   UNL     1      18.857  49.962  49.977  1.00  0.00     0.045 A 
HETATM   20 CL   UNL     1      18.773  49.129  51.491  1.00  0.00    -0.084 Cl
HETATM   21  C   UNL     1      19.287  51.296  50.017  1.00  0.00     0.024 A 
HETATM   22  C   UNL     1      19.348  52.057  48.852  1.00  0.00     0.005 A 
HETATM   23  C   UNL     1      18.966  51.486  47.644  1.00  0.00     0.043 A 
HETATM   24  C   UNL     1      18.534  50.161  47.611  1.00  0.00     0.126 A 
HETATM   25  F   UNL     1      18.132  49.668  46.430  1.00  0.00    -0.205 F 
ENDBRANCH  16  18
ENDBRANCH  14  16
ENDBRANCH   1  14
TORSDOF 5
ENDMDL
