MODEL 1
REMARK VINA RESULT:      -8.9      0.000      0.000
REMARK  4 active torsions:
REMARK  status: ('A' for Active; 'I' for Inactive)
REMARK    1  A    between atoms: C_2  and  C_3 
REMARK       I    between atoms: C_3  and  N_4 
REMARK    2  A    between atoms: N_4  and  C_5 
REMARK    3  A    between atoms: C_12  and  C_13 
REMARK       I    between atoms: C_13  and  N_14 
REMARK    4  A    between atoms: C_19  and  C_20 
ROOT
HETATM    1  C   UNL     1      27.794  43.323  52.406  1.00  0.00     0.036 A 
HETATM    2  C   UNL     1      27.616  42.906  51.080  1.00  0.00     0.046 A 
HETATM    3  C   UNL     1      27.970  41.590  50.712  1.00  0.00     0.030 A 
HETATM    4  C   UNL     1      28.466  40.732  51.685  1.00  0.00     0.063 A 
HETATM    5  N   UNL     1      28.694  39.547  51.042  1.00  0.00    -0.277 N 
HETATM    6  H   UNL     1      29.048  38.688  51.447  1.00  0.00     0.189 HD
HETATM    7  N   UNL     1      28.422  39.565  49.728  1.00  0.00    -0.168 NA
HETATM    8  C   UNL     1      27.981  40.825  49.506  1.00  0.00     0.156 A 
HETATM    9  C   UNL     1      28.653  41.113  53.015  1.00  0.00     0.034 A 
HETATM   10  C   UNL     1      28.321  42.431  53.350  1.00  0.00     0.032 A 
ENDROOT
BRANCH   1  11
HETATM   11  N   UNL     1      27.487  44.622  52.859  1.00  0.00    -0.323 N 
HETATM   12  C   UNL     1      26.586  44.968  53.841  1.00  0.00     0.251 C 
HETATM   13  O   UNL     1      25.935  44.234  54.570  1.00  0.00    -0.268 OA
HETATM   14  H   UNL     1      28.017  45.379  52.449  1.00  0.00     0.169 HD
BRANCH  12  15
HETATM   15  C   UNL     1      26.514  46.446  54.025  1.00  0.00     0.007 C 
HETATM   16  C   UNL     1      25.548  47.137  53.115  1.00  0.00     0.054 C 
HETATM   17  C   UNL     1      27.283  47.086  54.926  1.00  0.00     0.023 C 
BRANCH  17  18
HETATM   18  C   UNL     1      28.306  46.485  55.791  1.00  0.00    -0.035 A 
HETATM   19  C   UNL     1      29.507  45.984  55.268  1.00  0.00     0.013 A 
HETATM   20  C   UNL     1      30.488  45.462  56.114  1.00  0.00     0.024 A 
HETATM   21  C   UNL     1      30.279  45.452  57.490  1.00  0.00     0.034 A 
HETATM   22 CL   UNL     1      31.489  44.820  58.537  1.00  0.00    -0.084 Cl
HETATM   23  C   UNL     1      29.097  45.961  58.027  1.00  0.00     0.024 A 
HETATM   24  C   UNL     1      28.115  46.481  57.178  1.00  0.00     0.013 A 
ENDBRANCH  17  18
ENDBRANCH  12  15
ENDBRANCH   1  11
BRANCH   8  25
HETATM   25  C   UNL     1      27.599  41.268  48.158  1.00  0.00     0.270 C 
HETATM   26  N   UNL     1      26.326  41.765  48.074  1.00  0.00    -0.365 N 
HETATM   27  H   UNL     1      25.752  41.768  48.908  1.00  0.00     0.159 HD
HETATM   28  H   UNL     1      25.963  42.055  47.180  1.00  0.00     0.159 HD
HETATM   29  O   UNL     1      28.319  41.199  47.168  1.00  0.00    -0.266 OA
ENDBRANCH   8  25
TORSDOF 4
ENDMDL
MODEL 2
REMARK VINA RESULT:      -8.8      1.867      2.514
REMARK  4 active torsions:
REMARK  status: ('A' for Active; 'I' for Inactive)
REMARK    1  A    between atoms: C_2  and  C_3 
REMARK       I    between atoms: C_3  and  N_4 
REMARK    2  A    between atoms: N_4  and  C_5 
REMARK    3  A    between atoms: C_12  and  C_13 
REMARK       I    between atoms: C_13  and  N_14 
REMARK    4  A    between atoms: C_19  and  C_20 
ROOT
HETATM    1  C   UNL     1      26.258  43.935  52.044  1.00  0.00     0.036 A 
HETATM    2  C   UNL     1      27.158  42.879  51.850  1.00  0.00     0.046 A 
HETATM    3  C   UNL     1      26.763  41.759  51.086  1.00  0.00     0.030 A 
HETATM    4  C   UNL     1      25.493  41.747  50.522  1.00  0.00     0.063 A 
HETATM    5  N   UNL     1      25.412  40.567  49.837  1.00  0.00    -0.277 N 
HETATM    6  H   UNL     1      24.627  40.226  49.293  1.00  0.00     0.189 HD
HETATM    7  N   UNL     1      26.504  39.792  49.930  1.00  0.00    -0.168 NA
HETATM    8  C   UNL     1      27.347  40.513  50.706  1.00  0.00     0.156 A 
HETATM    9  C   UNL     1      24.572  42.782  50.692  1.00  0.00     0.034 A 
HETATM   10  C   UNL     1      24.977  43.868  51.477  1.00  0.00     0.032 A 
ENDROOT
BRANCH   1  11
HETATM   11  N   UNL     1      26.558  45.081  52.807  1.00  0.00    -0.323 N 
HETATM   12  C   UNL     1      26.496  45.207  54.176  1.00  0.00     0.251 C 
HETATM   13  O   UNL     1      26.252  44.346  55.010  1.00  0.00    -0.268 OA
HETATM   14  H   UNL     1      26.898  45.886  52.297  1.00  0.00     0.169 HD
BRANCH  12  15
HETATM   15  C   UNL     1      26.862  46.583  54.619  1.00  0.00     0.007 C 
HETATM   16  C   UNL     1      25.935  47.656  54.141  1.00  0.00     0.054 C 
HETATM   17  C   UNL     1      27.957  46.818  55.368  1.00  0.00     0.023 C 
BRANCH  17  18
HETATM   18  C   UNL     1      28.952  45.830  55.802  1.00  0.00    -0.035 A 
HETATM   19  C   UNL     1      29.428  44.837  54.934  1.00  0.00     0.013 A 
HETATM   20  C   UNL     1      30.411  43.938  55.354  1.00  0.00     0.024 A 
HETATM   21  C   UNL     1      30.934  44.037  56.640  1.00  0.00     0.034 A 
HETATM   22 CL   UNL     1      32.154  42.939  57.157  1.00  0.00    -0.084 Cl
HETATM   23  C   UNL     1      30.483  45.028  57.509  1.00  0.00     0.024 A 
HETATM   24  C   UNL     1      29.497  45.927  57.089  1.00  0.00     0.013 A 
ENDBRANCH  17  18
ENDBRANCH  12  15
ENDBRANCH   1  11
BRANCH   8  25
HETATM   25  C   UNL     1      28.670  39.991  51.076  1.00  0.00     0.270 C 
HETATM   26  N   UNL     1      29.310  39.327  50.066  1.00  0.00    -0.365 N 
HETATM   27  H   UNL     1      28.835  39.224  49.177  1.00  0.00     0.159 HD
HETATM   28  H   UNL     1      30.206  38.899  50.239  1.00  0.00     0.159 HD
HETATM   29  O   UNL     1      29.182  40.104  52.185  1.00  0.00    -0.266 OA
ENDBRANCH   8  25
TORSDOF 4
ENDMDL
MODEL 3
REMARK VINA RESULT:      -8.6      2.009      2.180
REMARK  4 active torsions:
REMARK  status: ('A' for Active; 'I' for Inactive)
REMARK    1  A    between atoms: C_2  and  C_3 
REMARK       I    between atoms: C_3  and  N_4 
REMARK    2  A    between atoms: N_4  and  C_5 
REMARK    3  A    between atoms: C_12  and  C_13 
REMARK       I    between atoms: C_13  and  N_14 
REMARK    4  A    between atoms: C_19  and  C_20 
ROOT
HETATM    1  C   UNL     1      26.868  43.604  52.196  1.00  0.00     0.036 A 
HETATM    2  C   UNL     1      25.866  43.384  51.242  1.00  0.00     0.046 A 
HETATM    3  C   UNL     1      25.820  42.153  50.553  1.00  0.00     0.030 A 
HETATM    4  C   UNL     1      26.759  41.176  50.861  1.00  0.00     0.063 A 
HETATM    5  N   UNL     1      26.450  40.111  50.062  1.00  0.00    -0.277 N 
HETATM    6  H   UNL     1      26.922  39.214  50.026  1.00  0.00     0.189 HD
HETATM    7  N   UNL     1      25.413  40.316  49.235  1.00  0.00    -0.168 NA
HETATM    8  C   UNL     1      25.016  41.578  49.522  1.00  0.00     0.156 A 
HETATM    9  C   UNL     1      27.769  41.360  51.807  1.00  0.00     0.034 A 
HETATM   10  C   UNL     1      27.811  42.599  52.456  1.00  0.00     0.032 A 
ENDROOT
BRANCH   1  11
HETATM   11  N   UNL     1      27.004  44.807  52.917  1.00  0.00    -0.323 N 
HETATM   12  C   UNL     1      26.575  45.060  54.200  1.00  0.00     0.251 C 
HETATM   13  O   UNL     1      26.069  44.286  55.001  1.00  0.00    -0.268 OA
HETATM   14  H   UNL     1      27.510  45.553  52.458  1.00  0.00     0.169 HD
BRANCH  12  15
HETATM   15  C   UNL     1      26.873  46.461  54.614  1.00  0.00     0.007 C 
HETATM   16  C   UNL     1      25.913  47.481  54.087  1.00  0.00     0.054 C 
HETATM   17  C   UNL     1      27.939  46.762  55.379  1.00  0.00     0.023 C 
BRANCH  17  18
HETATM   18  C   UNL     1      28.965  45.828  55.861  1.00  0.00    -0.035 A 
HETATM   19  C   UNL     1      29.511  44.843  55.027  1.00  0.00     0.013 A 
HETATM   20  C   UNL     1      30.521  43.997  55.492  1.00  0.00     0.024 A 
HETATM   21  C   UNL     1      31.000  44.144  56.791  1.00  0.00     0.034 A 
HETATM   22 CL   UNL     1      32.252  43.112  57.364  1.00  0.00    -0.084 Cl
HETATM   23  C   UNL     1      30.479  45.128  57.628  1.00  0.00     0.024 A 
HETATM   24  C   UNL     1      29.466  45.973  57.161  1.00  0.00     0.013 A 
ENDBRANCH  17  18
ENDBRANCH  12  15
ENDBRANCH   1  11
BRANCH   8  25
HETATM   25  C   UNL     1      23.900  42.204  48.800  1.00  0.00     0.270 C 
HETATM   26  N   UNL     1      24.286  42.978  47.739  1.00  0.00    -0.365 N 
HETATM   27  H   UNL     1      25.276  43.081  47.551  1.00  0.00     0.159 HD
HETATM   28  H   UNL     1      23.591  43.480  47.209  1.00  0.00     0.159 HD
HETATM   29  O   UNL     1      22.716  42.084  49.100  1.00  0.00    -0.266 OA
ENDBRANCH   8  25
TORSDOF 4
ENDMDL
MODEL 4
REMARK VINA RESULT:      -8.5      3.509      7.539
REMARK  4 active torsions:
REMARK  status: ('A' for Active; 'I' for Inactive)
REMARK    1  A    between atoms: C_2  and  C_3 
REMARK       I    between atoms: C_3  and  N_4 
REMARK    2  A    between atoms: N_4  and  C_5 
REMARK    3  A    between atoms: C_12  and  C_13 
REMARK       I    between atoms: C_13  and  N_14 
REMARK    4  A    between atoms: C_19  and  C_20 
ROOT
HETATM    1  C   UNL     1      27.959  43.411  52.712  1.00  0.00     0.036 A 
HETATM    2  C   UNL     1      27.949  44.350  53.751  1.00  0.00     0.046 A 
HETATM    3  C   UNL     1      29.041  44.412  54.643  1.00  0.00     0.030 A 
HETATM    4  C   UNL     1      30.115  43.552  54.449  1.00  0.00     0.063 A 
HETATM    5  N   UNL     1      31.009  43.859  55.437  1.00  0.00    -0.277 N 
HETATM    6  H   UNL     1      31.916  43.435  55.596  1.00  0.00     0.189 HD
HETATM    7  N   UNL     1      30.600  44.820  56.279  1.00  0.00    -0.168 NA
HETATM    8  C   UNL     1      29.381  45.168  55.806  1.00  0.00     0.156 A 
HETATM    9  C   UNL     1      30.160  42.607  53.423  1.00  0.00     0.034 A 
HETATM   10  C   UNL     1      29.052  42.545  52.569  1.00  0.00     0.032 A 
ENDROOT
BRANCH   1  11
HETATM   11  N   UNL     1      26.905  43.264  51.788  1.00  0.00    -0.323 N 
HETATM   12  C   UNL     1      26.786  43.873  50.559  1.00  0.00     0.251 C 
HETATM   13  O   UNL     1      27.591  44.591  49.984  1.00  0.00    -0.268 OA
HETATM   14  H   UNL     1      26.178  42.606  52.035  1.00  0.00     0.169 HD
BRANCH  12  15
HETATM   15  C   UNL     1      25.515  43.492  49.877  1.00  0.00     0.007 C 
HETATM   16  C   UNL     1      24.400  44.475  50.050  1.00  0.00     0.054 C 
HETATM   17  C   UNL     1      25.399  42.341  49.189  1.00  0.00     0.023 C 
BRANCH  17  18
HETATM   18  C   UNL     1      26.421  41.295  49.048  1.00  0.00    -0.035 A 
HETATM   19  C   UNL     1      27.435  41.386  48.085  1.00  0.00     0.013 A 
HETATM   20  C   UNL     1      28.426  40.404  48.000  1.00  0.00     0.024 A 
HETATM   21  C   UNL     1      28.414  39.334  48.891  1.00  0.00     0.034 A 
HETATM   22 CL   UNL     1      29.638  38.129  48.798  1.00  0.00    -0.084 Cl
HETATM   23  C   UNL     1      27.421  39.238  49.864  1.00  0.00     0.024 A 
HETATM   24  C   UNL     1      26.429  40.220  49.945  1.00  0.00     0.013 A 
ENDBRANCH  17  18
ENDBRANCH  12  15
ENDBRANCH   1  11
BRANCH   8  25
HETATM   25  C   UNL     1      28.570  46.193  56.479  1.00  0.00     0.270 C 
HETATM   26  N   UNL     1      28.676  46.180  57.844  1.00  0.00    -0.365 N 
HETATM   27  H   UNL     1      29.262  45.476  58.277  1.00  0.00     0.159 HD
HETATM   28  H   UNL     1      28.124  46.820  58.392  1.00  0.00     0.159 HD
HETATM   29  O   UNL     1      27.838  46.994  55.907  1.00  0.00    -0.266 OA
ENDBRANCH   8  25
TORSDOF 4
ENDMDL
MODEL 5
REMARK VINA RESULT:      -8.3      3.793      6.839
REMARK  4 active torsions:
REMARK  status: ('A' for Active; 'I' for Inactive)
REMARK    1  A    between atoms: C_2  and  C_3 
REMARK       I    between atoms: C_3  and  N_4 
REMARK    2  A    between atoms: N_4  and  C_5 
REMARK    3  A    between atoms: C_12  and  C_13 
REMARK       I    between atoms: C_13  and  N_14 
REMARK    4  A    between atoms: C_19  and  C_20 
ROOT
HETATM    1  C   UNL     1      27.802  43.566  52.675  1.00  0.00     0.036 A 
HETATM    2  C   UNL     1      27.885  44.472  53.741  1.00  0.00     0.046 A 
HETATM    3  C   UNL     1      28.979  44.400  54.631  1.00  0.00     0.030 A 
HETATM    4  C   UNL     1      29.961  43.443  54.410  1.00  0.00     0.063 A 
HETATM    5  N   UNL     1      30.882  43.631  55.404  1.00  0.00    -0.277 N 
HETATM    6  H   UNL     1      31.742  43.115  55.548  1.00  0.00     0.189 HD
HETATM    7  N   UNL     1      30.570  44.604  56.274  1.00  0.00    -0.168 NA
HETATM    8  C   UNL     1      29.392  45.085  55.814  1.00  0.00     0.156 A 
HETATM    9  C   UNL     1      29.911  42.527  53.357  1.00  0.00     0.034 A 
HETATM   10  C   UNL     1      28.804  42.600  52.505  1.00  0.00     0.032 A 
ENDROOT
BRANCH   1  11
HETATM   11  N   UNL     1      26.739  43.551  51.751  1.00  0.00    -0.323 N 
HETATM   12  C   UNL     1      25.432  43.920  51.981  1.00  0.00     0.251 C 
HETATM   13  O   UNL     1      24.945  44.406  52.991  1.00  0.00    -0.268 OA
HETATM   14  H   UNL     1      26.968  43.281  50.804  1.00  0.00     0.169 HD
BRANCH  12  15
HETATM   15  C   UNL     1      24.588  43.741  50.765  1.00  0.00     0.007 C 
HETATM   16  C   UNL     1      23.779  42.482  50.751  1.00  0.00     0.054 C 
HETATM   17  C   UNL     1      24.589  44.641  49.764  1.00  0.00     0.023 C 
BRANCH  17  18
HETATM   18  C   UNL     1      25.415  45.852  49.673  1.00  0.00    -0.035 A 
HETATM   19  C   UNL     1      26.804  45.780  49.492  1.00  0.00     0.013 A 
HETATM   20  C   UNL     1      27.564  46.945  49.358  1.00  0.00     0.024 A 
HETATM   21  C   UNL     1      26.936  48.187  49.390  1.00  0.00     0.034 A 
HETATM   22 CL   UNL     1      27.867  49.623  49.214  1.00  0.00    -0.084 Cl
HETATM   23  C   UNL     1      25.555  48.274  49.553  1.00  0.00     0.024 A 
HETATM   24  C   UNL     1      24.795  47.107  49.689  1.00  0.00     0.013 A 
ENDBRANCH  17  18
ENDBRANCH  12  15
ENDBRANCH   1  11
BRANCH   8  25
HETATM   25  C   UNL     1      28.688  46.166  56.518  1.00  0.00     0.270 C 
HETATM   26  N   UNL     1      28.841  46.139  57.877  1.00  0.00    -0.365 N 
HETATM   27  H   UNL     1      29.387  45.390  58.288  1.00  0.00     0.159 HD
HETATM   28  H   UNL     1      28.361  46.817  58.447  1.00  0.00     0.159 HD
HETATM   29  O   UNL     1      27.999  47.023  55.974  1.00  0.00    -0.266 OA
ENDBRANCH   8  25
TORSDOF 4
ENDMDL
MODEL 6
REMARK VINA RESULT:      -8.2      5.931      8.237
REMARK  4 active torsions:
REMARK  status: ('A' for Active; 'I' for Inactive)
REMARK    1  A    between atoms: C_2  and  C_3 
REMARK       I    between atoms: C_3  and  N_4 
REMARK    2  A    between atoms: N_4  and  C_5 
REMARK    3  A    between atoms: C_12  and  C_13 
REMARK       I    between atoms: C_13  and  N_14 
REMARK    4  A    between atoms: C_19  and  C_20 
ROOT
HETATM    1  C   UNL     1      25.595  46.850  50.254  1.00  0.00     0.036 A 
HETATM    2  C   UNL     1      25.808  45.615  49.627  1.00  0.00     0.046 A 
HETATM    3  C   UNL     1      25.925  44.448  50.413  1.00  0.00     0.030 A 
HETATM    4  C   UNL     1      25.801  44.553  51.793  1.00  0.00     0.063 A 
HETATM    5  N   UNL     1      25.937  43.278  52.268  1.00  0.00    -0.277 N 
HETATM    6  H   UNL     1      25.891  42.976  53.235  1.00  0.00     0.189 HD
HETATM    7  N   UNL     1      26.172  42.354  51.324  1.00  0.00    -0.168 NA
HETATM    8  C   UNL     1      26.175  43.063  50.171  1.00  0.00     0.156 A 
HETATM    9  C   UNL     1      25.586  45.766  52.449  1.00  0.00     0.034 A 
HETATM   10  C   UNL     1      25.501  46.913  51.651  1.00  0.00     0.032 A 
ENDROOT
BRANCH   1  11
HETATM   11  N   UNL     1      25.485  48.067  49.552  1.00  0.00    -0.323 N 
HETATM   12  C   UNL     1      24.354  48.590  48.968  1.00  0.00     0.251 C 
HETATM   13  O   UNL     1      23.210  48.159  49.002  1.00  0.00    -0.268 OA
HETATM   14  H   UNL     1      26.318  48.640  49.511  1.00  0.00     0.169 HD
BRANCH  12  15
HETATM   15  C   UNL     1      24.635  49.889  48.291  1.00  0.00     0.007 C 
HETATM   16  C   UNL     1      26.054  50.063  47.848  1.00  0.00     0.054 C 
HETATM   17  C   UNL     1      23.679  50.822  48.125  1.00  0.00     0.023 C 
BRANCH  17  18
HETATM   18  C   UNL     1      22.293  50.754  48.605  1.00  0.00    -0.035 A 
HETATM   19  C   UNL     1      21.965  51.025  49.940  1.00  0.00     0.013 A 
HETATM   20  C   UNL     1      20.633  51.003  50.364  1.00  0.00     0.024 A 
HETATM   21  C   UNL     1      19.622  50.723  49.448  1.00  0.00     0.034 A 
HETATM   22 CL   UNL     1      17.981  50.706  49.963  1.00  0.00    -0.084 Cl
HETATM   23  C   UNL     1      19.932  50.468  48.114  1.00  0.00     0.024 A 
HETATM   24  C   UNL     1      21.265  50.488  47.692  1.00  0.00     0.013 A 
ENDBRANCH  17  18
ENDBRANCH  12  15
ENDBRANCH   1  11
BRANCH   8  25
HETATM   25  C   UNL     1      26.431  42.409  48.880  1.00  0.00     0.270 C 
HETATM   26  N   UNL     1      25.336  42.341  48.062  1.00  0.00    -0.365 N 
HETATM   27  H   UNL     1      24.455  42.710  48.402  1.00  0.00     0.159 HD
HETATM   28  H   UNL     1      25.406  41.874  47.172  1.00  0.00     0.159 HD
HETATM   29  O   UNL     1      27.509  41.937  48.536  1.00  0.00    -0.266 OA
ENDBRANCH   8  25
TORSDOF 4
ENDMDL
MODEL 7
REMARK VINA RESULT:      -8.1      8.623     11.674
REMARK  4 active torsions:
REMARK  status: ('A' for Active; 'I' for Inactive)
REMARK    1  A    between atoms: C_2  and  C_3 
REMARK       I    between atoms: C_3  and  N_4 
REMARK    2  A    between atoms: N_4  and  C_5 
REMARK    3  A    between atoms: C_12  and  C_13 
REMARK       I    between atoms: C_13  and  N_14 
REMARK    4  A    between atoms: C_19  and  C_20 
ROOT
HETATM    1  C   UNL     1      22.353  49.229  49.010  1.00  0.00     0.036 A 
HETATM    2  C   UNL     1      23.413  48.459  49.506  1.00  0.00     0.046 A 
HETATM    3  C   UNL     1      24.735  48.756  49.107  1.00  0.00     0.030 A 
HETATM    4  C   UNL     1      24.951  49.827  48.249  1.00  0.00     0.063 A 
HETATM    5  N   UNL     1      26.305  49.878  48.066  1.00  0.00    -0.277 N 
HETATM    6  H   UNL     1      26.823  50.544  47.505  1.00  0.00     0.189 HD
HETATM    7  N   UNL     1      26.990  48.915  48.702  1.00  0.00    -0.168 NA
HETATM    8  C   UNL     1      26.032  48.208  49.346  1.00  0.00     0.156 A 
HETATM    9  C   UNL     1      23.919  50.617  47.739  1.00  0.00     0.034 A 
HETATM   10  C   UNL     1      22.616  50.284  48.126  1.00  0.00     0.032 A 
ENDROOT
BRANCH   1  11
HETATM   11  N   UNL     1      21.003  48.992  49.337  1.00  0.00    -0.323 N 
HETATM   12  C   UNL     1      20.120  49.878  49.913  1.00  0.00     0.251 C 
HETATM   13  O   UNL     1      20.292  51.058  50.182  1.00  0.00    -0.268 OA
HETATM   14  H   UNL     1      20.629  48.088  49.082  1.00  0.00     0.169 HD
BRANCH  12  15
HETATM   15  C   UNL     1      18.782  49.256  50.133  1.00  0.00     0.007 C 
HETATM   16  C   UNL     1      18.590  48.663  51.493  1.00  0.00     0.054 C 
HETATM   17  C   UNL     1      17.849  49.222  49.163  1.00  0.00     0.023 C 
BRANCH  17  18
HETATM   18  C   UNL     1      17.997  49.709  47.785  1.00  0.00    -0.035 A 
HETATM   19  C   UNL     1      18.387  48.855  46.744  1.00  0.00     0.013 A 
HETATM   20  C   UNL     1      18.474  49.328  45.432  1.00  0.00     0.024 A 
HETATM   21  C   UNL     1      18.156  50.655  45.153  1.00  0.00     0.034 A 
HETATM   22 CL   UNL     1      18.250  51.238  43.538  1.00  0.00    -0.084 Cl
HETATM   23  C   UNL     1      17.751  51.511  46.175  1.00  0.00     0.024 A 
HETATM   24  C   UNL     1      17.667  51.037  47.489  1.00  0.00     0.013 A 
ENDBRANCH  17  18
ENDBRANCH  12  15
ENDBRANCH   1  11
BRANCH   8  25
HETATM   25  C   UNL     1      26.373  47.027  50.150  1.00  0.00     0.270 C 
HETATM   26  N   UNL     1      26.131  47.175  51.489  1.00  0.00    -0.365 N 
HETATM   27  H   UNL     1      25.771  48.062  51.820  1.00  0.00     0.159 HD
HETATM   28  H   UNL     1      26.372  46.431  52.125  1.00  0.00     0.159 HD
HETATM   29  O   UNL     1      26.851  45.989  49.704  1.00  0.00    -0.266 OA
ENDBRANCH   8  25
TORSDOF 4
ENDMDL
MODEL 8
REMARK VINA RESULT:      -8.1      5.734      8.732
REMARK  4 active torsions:
REMARK  status: ('A' for Active; 'I' for Inactive)
REMARK    1  A    between atoms: C_2  and  C_3 
REMARK       I    between atoms: C_3  and  N_4 
REMARK    2  A    between atoms: N_4  and  C_5 
REMARK    3  A    between atoms: C_12  and  C_13 
REMARK       I    between atoms: C_13  and  N_14 
REMARK    4  A    between atoms: C_19  and  C_20 
ROOT
HETATM    1  C   UNL     1      25.760  47.222  50.124  1.00  0.00     0.036 A 
HETATM    2  C   UNL     1      24.470  47.524  49.670  1.00  0.00     0.046 A 
HETATM    3  C   UNL     1      24.268  48.656  48.850  1.00  0.00     0.030 A 
HETATM    4  C   UNL     1      25.366  49.428  48.492  1.00  0.00     0.063 A 
HETATM    5  N   UNL     1      24.868  50.420  47.693  1.00  0.00    -0.277 N 
HETATM    6  H   UNL     1      25.388  51.163  47.241  1.00  0.00     0.189 HD
HETATM    7  N   UNL     1      23.537  50.382  47.524  1.00  0.00    -0.168 NA
HETATM    8  C   UNL     1      23.150  49.300  48.239  1.00  0.00     0.156 A 
HETATM    9  C   UNL     1      26.665  49.155  48.924  1.00  0.00     0.034 A 
HETATM   10  C   UNL     1      26.835  48.045  49.759  1.00  0.00     0.032 A 
ENDROOT
BRANCH   1  11
HETATM   11  N   UNL     1      26.051  46.127  50.961  1.00  0.00    -0.323 N 
HETATM   12  C   UNL     1      26.775  45.002  50.636  1.00  0.00     0.251 C 
HETATM   13  O   UNL     1      27.375  44.755  49.600  1.00  0.00    -0.268 OA
HETATM   14  H   UNL     1      25.732  46.193  51.918  1.00  0.00     0.169 HD
BRANCH  12  15
HETATM   15  C   UNL     1      26.849  44.046  51.778  1.00  0.00     0.007 C 
HETATM   16  C   UNL     1      27.822  44.432  52.848  1.00  0.00     0.054 C 
HETATM   17  C   UNL     1      26.108  42.922  51.811  1.00  0.00     0.023 C 
BRANCH  17  18
HETATM   18  C   UNL     1      25.198  42.440  50.764  1.00  0.00    -0.035 A 
HETATM   19  C   UNL     1      23.906  42.964  50.617  1.00  0.00     0.013 A 
HETATM   20  C   UNL     1      23.074  42.526  49.583  1.00  0.00     0.024 A 
HETATM   21  C   UNL     1      23.538  41.572  48.681  1.00  0.00     0.034 A 
HETATM   22 CL   UNL     1      22.523  41.038  47.399  1.00  0.00    -0.084 Cl
HETATM   23  C   UNL     1      24.826  41.054  48.804  1.00  0.00     0.024 A 
HETATM   24  C   UNL     1      25.656  41.492  49.841  1.00  0.00     0.013 A 
ENDBRANCH  17  18
ENDBRANCH  12  15
ENDBRANCH   1  11
BRANCH   8  25
HETATM   25  C   UNL     1      21.733  48.922  48.335  1.00  0.00     0.270 C 
HETATM   26  N   UNL     1      21.149  49.247  49.529  1.00  0.00    -0.365 N 
HETATM   27  H   UNL     1      21.719  49.685  50.243  1.00  0.00     0.159 HD
HETATM   28  H   UNL     1      20.190  48.990  49.701  1.00  0.00     0.159 HD
HETATM   29  O   UNL     1      21.100  48.350  47.454  1.00  0.00    -0.266 OA
ENDBRANCH   8  25
TORSDOF 4
ENDMDL
MODEL 9
REMARK VINA RESULT:      -8.1      2.240      3.278
REMARK  4 active torsions:
REMARK  status: ('A' for Active; 'I' for Inactive)
REMARK    1  A    between atoms: C_2  and  C_3 
REMARK       I    between atoms: C_3  and  N_4 
REMARK    2  A    between atoms: N_4  and  C_5 
REMARK    3  A    between atoms: C_12  and  C_13 
REMARK       I    between atoms: C_13  and  N_14 
REMARK    4  A    between atoms: C_19  and  C_20 
ROOT
HETATM    1  C   UNL     1      27.119  41.903  51.116  1.00  0.00     0.036 A 
HETATM    2  C   UNL     1      27.309  40.959  50.098  1.00  0.00     0.046 A 
HETATM    3  C   UNL     1      28.255  39.926  50.276  1.00  0.00     0.030 A 
HETATM    4  C   UNL     1      28.958  39.859  51.472  1.00  0.00     0.063 A 
HETATM    5  N   UNL     1      29.766  38.762  51.358  1.00  0.00    -0.277 N 
HETATM    6  H   UNL     1      30.413  38.402  52.050  1.00  0.00     0.189 HD
HETATM    7  N   UNL     1      29.678  38.126  50.179  1.00  0.00    -0.168 NA
HETATM    8  C   UNL     1      28.752  38.838  49.495  1.00  0.00     0.156 A 
HETATM    9  C   UNL     1      28.792  40.780  52.508  1.00  0.00     0.034 A 
HETATM   10  C   UNL     1      27.869  41.811  52.297  1.00  0.00     0.032 A 
ENDROOT
BRANCH   1  11
HETATM   11  N   UNL     1      26.214  42.978  51.018  1.00  0.00    -0.323 N 
HETATM   12  C   UNL     1      26.465  44.233  50.510  1.00  0.00     0.251 C 
HETATM   13  O   UNL     1      27.481  44.647  49.972  1.00  0.00    -0.268 OA
HETATM   14  H   UNL     1      25.264  42.795  51.313  1.00  0.00     0.169 HD
BRANCH  12  15
HETATM   15  C   UNL     1      25.264  45.112  50.599  1.00  0.00     0.007 C 
HETATM   16  C   UNL     1      24.409  45.121  49.371  1.00  0.00     0.054 C 
HETATM   17  C   UNL     1      25.004  45.847  51.697  1.00  0.00     0.023 C 
BRANCH  17  18
HETATM   18  C   UNL     1      25.838  45.951  52.901  1.00  0.00    -0.035 A 
HETATM   19  C   UNL     1      26.103  44.836  53.708  1.00  0.00     0.013 A 
HETATM   20  C   UNL     1      26.940  44.947  54.822  1.00  0.00     0.024 A 
HETATM   21  C   UNL     1      27.527  46.173  55.125  1.00  0.00     0.034 A 
HETATM   22 CL   UNL     1      28.567  46.311  56.488  1.00  0.00    -0.084 Cl
HETATM   23  C   UNL     1      27.286  47.287  54.323  1.00  0.00     0.024 A 
HETATM   24  C   UNL     1      26.447  47.174  53.210  1.00  0.00     0.013 A 
ENDBRANCH  17  18
ENDBRANCH  12  15
ENDBRANCH   1  11
BRANCH   8  25
HETATM   25  C   UNL     1      28.381  38.477  48.120  1.00  0.00     0.270 C 
HETATM   26  N   UNL     1      28.302  37.128  47.900  1.00  0.00    -0.365 N 
HETATM   27  H   UNL     1      28.522  36.500  48.664  1.00  0.00     0.159 HD
HETATM   28  H   UNL     1      28.093  36.785  46.976  1.00  0.00     0.159 HD
HETATM   29  O   UNL     1      28.170  39.280  47.218  1.00  0.00    -0.266 OA
ENDBRANCH   8  25
TORSDOF 4
ENDMDL
MODEL 10
REMARK VINA RESULT:      -7.9      4.493      6.917
REMARK  4 active torsions:
REMARK  status: ('A' for Active; 'I' for Inactive)
REMARK    1  A    between atoms: C_2  and  C_3 
REMARK       I    between atoms: C_3  and  N_4 
REMARK    2  A    between atoms: N_4  and  C_5 
REMARK    3  A    between atoms: C_12  and  C_13 
REMARK       I    between atoms: C_13  and  N_14 
REMARK    4  A    between atoms: C_19  and  C_20 
ROOT
HETATM    1  C   UNL     1      25.091  45.950  49.952  1.00  0.00     0.036 A 
HETATM    2  C   UNL     1      23.880  46.500  49.512  1.00  0.00     0.046 A 
HETATM    3  C   UNL     1      23.820  47.870  49.174  1.00  0.00     0.030 A 
HETATM    4  C   UNL     1      24.977  48.634  49.264  1.00  0.00     0.063 A 
HETATM    5  N   UNL     1      24.616  49.889  48.859  1.00  0.00    -0.277 N 
HETATM    6  H   UNL     1      25.212  50.706  48.788  1.00  0.00     0.189 HD
HETATM    7  N   UNL     1      23.318  50.021  48.545  1.00  0.00    -0.168 NA
HETATM    8  C   UNL     1      22.810  48.782  48.741  1.00  0.00     0.156 A 
HETATM    9  C   UNL     1      26.201  48.118  49.696  1.00  0.00     0.034 A 
HETATM   10  C   UNL     1      26.228  46.765  50.052  1.00  0.00     0.032 A 
ENDROOT
BRANCH   1  11
HETATM   11  N   UNL     1      25.240  44.601  50.329  1.00  0.00    -0.323 N 
HETATM   12  C   UNL     1      26.338  43.796  50.123  1.00  0.00     0.251 C 
HETATM   13  O   UNL     1      27.425  44.098  49.652  1.00  0.00    -0.268 OA
HETATM   14  H   UNL     1      24.474  44.190  50.846  1.00  0.00     0.169 HD
BRANCH  12  15
HETATM   15  C   UNL     1      26.112  42.415  50.638  1.00  0.00     0.007 C 
HETATM   16  C   UNL     1      25.284  41.547  49.743  1.00  0.00     0.054 C 
HETATM   17  C   UNL     1      26.603  42.013  51.825  1.00  0.00     0.023 C 
BRANCH  17  18
HETATM   18  C   UNL     1      27.350  42.832  52.789  1.00  0.00    -0.035 A 
HETATM   19  C   UNL     1      28.747  42.770  52.876  1.00  0.00     0.013 A 
HETATM   20  C   UNL     1      29.441  43.594  53.766  1.00  0.00     0.024 A 
HETATM   21  C   UNL     1      28.740  44.496  54.562  1.00  0.00     0.034 A 
HETATM   22 CL   UNL     1      29.591  45.521  55.650  1.00  0.00    -0.084 Cl
HETATM   23  C   UNL     1      27.352  44.581  54.475  1.00  0.00     0.024 A 
HETATM   24  C   UNL     1      26.658  43.753  53.585  1.00  0.00     0.013 A 
ENDBRANCH  17  18
ENDBRANCH  12  15
ENDBRANCH   1  11
BRANCH   8  25
HETATM   25  C   UNL     1      21.382  48.505  48.529  1.00  0.00     0.270 C 
HETATM   26  N   UNL     1      20.607  48.693  49.641  1.00  0.00    -0.365 N 
HETATM   27  H   UNL     1      21.058  48.973  50.504  1.00  0.00     0.159 HD
HETATM   28  H   UNL     1      19.621  48.488  49.602  1.00  0.00     0.159 HD
HETATM   29  O   UNL     1      20.893  48.121  47.472  1.00  0.00    -0.266 OA
ENDBRANCH   8  25
TORSDOF 4
ENDMDL
