MODEL 1
REMARK VINA RESULT:      -9.3      0.000      0.000
REMARK  2 active torsions:
REMARK  status: ('A' for Active; 'I' for Inactive)
REMARK    1  A    between atoms: C_2  and  C_3 
REMARK    2  A    between atoms: C_6  and  C_7 
ROOT
HETATM    1  C   UNL     1      25.789  43.281  52.011  1.00  0.00     0.197 C 
HETATM    2  N   UNL     1      26.536  42.189  51.366  1.00  0.00    -0.345 N 
HETATM    3  C   UNL     1      27.800  41.938  51.693  1.00  0.00     0.113 C 
HETATM    4  N   UNL     1      28.469  40.959  51.100  1.00  0.00    -0.376 N 
HETATM    5  H   UNL     1      29.412  40.769  51.419  1.00  0.00     0.161 HD
HETATM    6  C   UNL     1      28.448  42.731  52.750  1.00  0.00     0.029 A 
HETATM    7  C   UNL     1      27.586  43.418  53.613  1.00  0.00     0.025 A 
HETATM    8  N   UNL     1      26.203  43.315  53.403  1.00  0.00    -0.267 NA
HETATM    9  C   UNL     1      29.835  42.825  52.940  1.00  0.00     0.019 A 
HETATM   10  C   UNL     1      30.346  43.551  54.021  1.00  0.00     0.025 A 
HETATM   11  C   UNL     1      29.477  44.168  54.916  1.00  0.00     0.035 A 
HETATM   12 CL   UNL     1      30.107  45.034  56.259  1.00  0.00    -0.084 Cl
HETATM   13  C   UNL     1      28.099  44.094  54.725  1.00  0.00     0.048 A 
HETATM   14  C   UNL     1      25.829  41.396  50.349  1.00  0.00     0.128 C 
HETATM   15  C   UNL     1      26.402  39.998  50.291  1.00  0.00     0.039 C 
HETATM   16  C   UNL     1      27.888  40.113  50.061  1.00  0.00     0.123 C 
HETATM   17  H   UNL     1      25.695  44.028  53.924  1.00  0.00     0.130 HD
ENDROOT
BRANCH   1  18
HETATM   18  C   UNL     1      25.960  44.624  51.317  1.00  0.00    -0.021 A 
HETATM   19  C   UNL     1      26.735  44.800  50.160  1.00  0.00     0.011 A 
HETATM   20  C   UNL     1      26.885  46.064  49.578  1.00  0.00     0.007 A 
HETATM   21  C   UNL     1      26.266  47.184  50.139  1.00  0.00    -0.059 A 
HETATM   22  C   UNL     1      25.472  47.018  51.277  1.00  0.00     0.007 A 
HETATM   23  C   UNL     1      25.320  45.756  51.858  1.00  0.00     0.011 A 
BRANCH  21  24
HETATM   24  C   UNL     1      26.433  48.547  49.514  1.00  0.00     0.034 C 
HETATM   25  C   UNL     1      27.889  48.853  49.201  1.00  0.00     0.010 C 
ENDBRANCH  21  24
ENDBRANCH   1  18
TORSDOF 2
ENDMDL
MODEL 2
REMARK VINA RESULT:      -8.1      2.544      5.824
REMARK  2 active torsions:
REMARK  status: ('A' for Active; 'I' for Inactive)
REMARK    1  A    between atoms: C_2  and  C_3 
REMARK    2  A    between atoms: C_6  and  C_7 
ROOT
HETATM    1  C   UNL     1      25.907  44.376  52.946  1.00  0.00     0.197 C 
HETATM    2  N   UNL     1      26.006  45.344  51.842  1.00  0.00    -0.345 N 
HETATM    3  C   UNL     1      26.281  44.945  50.604  1.00  0.00     0.113 C 
HETATM    4  N   UNL     1      26.379  45.825  49.616  1.00  0.00    -0.376 N 
HETATM    5  H   UNL     1      26.535  45.470  48.680  1.00  0.00     0.161 HD
HETATM    6  C   UNL     1      26.441  43.509  50.322  1.00  0.00     0.029 A 
HETATM    7  C   UNL     1      25.902  42.637  51.276  1.00  0.00     0.025 A 
HETATM    8  N   UNL     1      25.279  43.181  52.409  1.00  0.00    -0.267 NA
HETATM    9  C   UNL     1      27.071  42.983  49.185  1.00  0.00     0.019 A 
HETATM   10  C   UNL     1      27.107  41.601  48.979  1.00  0.00     0.025 A 
HETATM   11  C   UNL     1      26.502  40.747  49.897  1.00  0.00     0.035 A 
HETATM   12 CL   UNL     1      26.521  39.050  49.626  1.00  0.00    -0.084 Cl
HETATM   13  C   UNL     1      25.888  41.259  51.037  1.00  0.00     0.048 A 
HETATM   14  C   UNL     1      25.793  46.763  52.166  1.00  0.00     0.128 C 
HETATM   15  C   UNL     1      25.258  47.497  50.957  1.00  0.00     0.039 C 
HETATM   16  C   UNL     1      26.209  47.262  49.811  1.00  0.00     0.123 C 
HETATM   17  H   UNL     1      25.143  42.478  53.131  1.00  0.00     0.130 HD
ENDROOT
BRANCH   1  18
HETATM   18  C   UNL     1      27.240  44.085  53.617  1.00  0.00    -0.021 A 
HETATM   19  C   UNL     1      27.868  42.830  53.571  1.00  0.00     0.011 A 
HETATM   20  C   UNL     1      29.080  42.606  54.233  1.00  0.00     0.007 A 
HETATM   21  C   UNL     1      29.695  43.628  54.959  1.00  0.00    -0.059 A 
HETATM   22  C   UNL     1      29.093  44.890  54.993  1.00  0.00     0.007 A 
HETATM   23  C   UNL     1      27.883  45.115  54.331  1.00  0.00     0.011 A 
BRANCH  21  24
HETATM   24  C   UNL     1      31.000  43.383  55.676  1.00  0.00     0.034 C 
HETATM   25  C   UNL     1      31.083  44.157  56.982  1.00  0.00     0.010 C 
ENDBRANCH  21  24
ENDBRANCH   1  18
TORSDOF 2
ENDMDL
MODEL 3
REMARK VINA RESULT:      -7.8      7.456     10.496
REMARK  2 active torsions:
REMARK  status: ('A' for Active; 'I' for Inactive)
REMARK    1  A    between atoms: C_2  and  C_3 
REMARK    2  A    between atoms: C_6  and  C_7 
ROOT
HETATM    1  C   UNL     1      20.608  49.689  49.681  1.00  0.00     0.197 C 
HETATM    2  N   UNL     1      19.662  50.456  48.855  1.00  0.00    -0.345 N 
HETATM    3  C   UNL     1      19.111  49.921  47.769  1.00  0.00     0.113 C 
HETATM    4  N   UNL     1      18.268  50.623  47.024  1.00  0.00    -0.376 N 
HETATM    5  H   UNL     1      17.831  50.157  46.238  1.00  0.00     0.161 HD
HETATM    6  C   UNL     1      19.413  48.525  47.414  1.00  0.00     0.029 A 
HETATM    7  C   UNL     1      19.931  47.732  48.445  1.00  0.00     0.025 A 
HETATM    8  N   UNL     1      20.135  48.315  49.705  1.00  0.00    -0.267 NA
HETATM    9  C   UNL     1      19.207  47.961  46.146  1.00  0.00     0.019 A 
HETATM   10  C   UNL     1      19.461  46.603  45.934  1.00  0.00     0.025 A 
HETATM   11  C   UNL     1      19.905  45.807  46.987  1.00  0.00     0.035 A 
HETATM   12 CL   UNL     1      20.189  44.132  46.730  1.00  0.00    -0.084 Cl
HETATM   13  C   UNL     1      20.129  46.363  48.244  1.00  0.00     0.048 A 
HETATM   14  C   UNL     1      19.357  51.832  49.277  1.00  0.00     0.128 C 
HETATM   15  C   UNL     1      17.972  52.222  48.814  1.00  0.00     0.039 C 
HETATM   16  C   UNL     1      17.900  52.004  47.324  1.00  0.00     0.123 C 
HETATM   17  H   UNL     1      20.724  47.731  50.293  1.00  0.00     0.130 HD
ENDROOT
BRANCH   1  18
HETATM   18  C   UNL     1      22.050  49.803  49.214  1.00  0.00    -0.021 A 
HETATM   19  C   UNL     1      22.523  50.863  48.424  1.00  0.00     0.011 A 
HETATM   20  C   UNL     1      23.854  50.904  47.995  1.00  0.00     0.007 A 
HETATM   21  C   UNL     1      24.746  49.886  48.341  1.00  0.00    -0.059 A 
HETATM   22  C   UNL     1      24.294  48.837  49.147  1.00  0.00     0.007 A 
HETATM   23  C   UNL     1      22.966  48.796  49.578  1.00  0.00     0.011 A 
BRANCH  21  24
HETATM   24  C   UNL     1      26.179  49.929  47.872  1.00  0.00     0.034 C 
HETATM   25  C   UNL     1      27.118  49.242  48.851  1.00  0.00     0.010 C 
ENDBRANCH  21  24
ENDBRANCH   1  18
TORSDOF 2
ENDMDL
MODEL 4
REMARK VINA RESULT:      -7.7      1.067      1.196
REMARK  2 active torsions:
REMARK  status: ('A' for Active; 'I' for Inactive)
REMARK    1  A    between atoms: C_2  and  C_3 
REMARK    2  A    between atoms: C_6  and  C_7 
ROOT
HETATM    1  C   UNL     1      25.390  44.096  52.142  1.00  0.00     0.197 C 
HETATM    2  N   UNL     1      26.170  42.875  51.886  1.00  0.00    -0.345 N 
HETATM    3  C   UNL     1      27.313  42.647  52.526  1.00  0.00     0.113 C 
HETATM    4  N   UNL     1      28.016  41.548  52.282  1.00  0.00    -0.376 N 
HETATM    5  H   UNL     1      28.852  41.390  52.832  1.00  0.00     0.161 HD
HETATM    6  C   UNL     1      27.782  43.604  53.540  1.00  0.00     0.029 A 
HETATM    7  C   UNL     1      26.812  44.474  54.052  1.00  0.00     0.025 A 
HETATM    8  N   UNL     1      25.501  44.382  53.562  1.00  0.00    -0.267 NA
HETATM    9  C   UNL     1      29.100  43.684  54.014  1.00  0.00     0.019 A 
HETATM   10  C   UNL     1      29.425  44.585  55.033  1.00  0.00     0.025 A 
HETATM   11  C   UNL     1      28.435  45.393  55.587  1.00  0.00     0.035 A 
HETATM   12 CL   UNL     1      28.831  46.478  56.859  1.00  0.00    -0.084 Cl
HETATM   13  C   UNL     1      27.128  45.332  55.110  1.00  0.00     0.048 A 
HETATM   14  C   UNL     1      25.636  41.927  50.897  1.00  0.00     0.128 C 
HETATM   15  C   UNL     1      26.100  40.524  51.219  1.00  0.00     0.039 C 
HETATM   16  C   UNL     1      27.605  40.540  51.309  1.00  0.00     0.123 C 
HETATM   17  H   UNL     1      24.951  45.199  53.820  1.00  0.00     0.130 HD
ENDROOT
BRANCH   1  18
HETATM   18  C   UNL     1      25.806  45.274  51.274  1.00  0.00    -0.021 A 
HETATM   19  C   UNL     1      26.738  45.170  50.229  1.00  0.00     0.011 A 
HETATM   20  C   UNL     1      27.110  46.291  49.481  1.00  0.00     0.007 A 
HETATM   21  C   UNL     1      26.562  47.546  49.758  1.00  0.00    -0.059 A 
HETATM   22  C   UNL     1      25.615  47.660  50.780  1.00  0.00     0.007 A 
HETATM   23  C   UNL     1      25.242  46.540  51.527  1.00  0.00     0.011 A 
BRANCH  21  24
HETATM   24  C   UNL     1      26.968  48.756  48.953  1.00  0.00     0.034 C 
HETATM   25  C   UNL     1      28.217  49.418  49.514  1.00  0.00     0.010 C 
ENDBRANCH  21  24
ENDBRANCH   1  18
TORSDOF 2
ENDMDL
MODEL 5
REMARK VINA RESULT:      -7.6      8.321     11.036
REMARK  2 active torsions:
REMARK  status: ('A' for Active; 'I' for Inactive)
REMARK    1  A    between atoms: C_2  and  C_3 
REMARK    2  A    between atoms: C_6  and  C_7 
ROOT
HETATM    1  C   UNL     1      20.583  47.945  49.239  1.00  0.00     0.197 C 
HETATM    2  N   UNL     1      21.728  48.760  48.802  1.00  0.00    -0.345 N 
HETATM    3  C   UNL     1      21.600  50.068  48.600  1.00  0.00     0.113 C 
HETATM    4  N   UNL     1      22.634  50.793  48.196  1.00  0.00    -0.376 N 
HETATM    5  H   UNL     1      22.504  51.795  48.108  1.00  0.00     0.161 HD
HETATM    6  C   UNL     1      20.307  50.721  48.863  1.00  0.00     0.029 A 
HETATM    7  C   UNL     1      19.421  50.011  49.683  1.00  0.00     0.025 A 
HETATM    8  N   UNL     1      19.814  48.755  50.169  1.00  0.00    -0.267 NA
HETATM    9  C   UNL     1      19.930  51.976  48.364  1.00  0.00     0.019 A 
HETATM   10  C   UNL     1      18.705  52.538  48.733  1.00  0.00     0.025 A 
HETATM   11  C   UNL     1      17.864  51.856  49.609  1.00  0.00     0.035 A 
HETATM   12 CL   UNL     1      16.372  52.562  50.084  1.00  0.00    -0.084 Cl
HETATM   13  C   UNL     1      18.223  50.601  50.096  1.00  0.00     0.048 A 
HETATM   14  C   UNL     1      23.010  48.069  48.597  1.00  0.00     0.128 C 
HETATM   15  C   UNL     1      24.158  49.025  48.830  1.00  0.00     0.039 C 
HETATM   16  C   UNL     1      23.954  50.224  47.938  1.00  0.00     0.123 C 
HETATM   17  H   UNL     1      19.022  48.238  50.543  1.00  0.00     0.130 HD
ENDROOT
BRANCH   1  18
HETATM   18  C   UNL     1      19.740  47.418  48.088  1.00  0.00    -0.021 A 
HETATM   19  C   UNL     1      20.025  47.685  46.739  1.00  0.00     0.011 A 
HETATM   20  C   UNL     1      19.200  47.202  45.718  1.00  0.00     0.007 A 
HETATM   21  C   UNL     1      18.067  46.442  46.019  1.00  0.00    -0.059 A 
HETATM   22  C   UNL     1      17.785  46.149  47.356  1.00  0.00     0.007 A 
HETATM   23  C   UNL     1      18.610  46.629  48.376  1.00  0.00     0.011 A 
BRANCH  21  24
HETATM   24  C   UNL     1      17.174  45.926  44.917  1.00  0.00     0.034 C 
HETATM   25  C   UNL     1      16.871  44.445  45.078  1.00  0.00     0.010 C 
ENDBRANCH  21  24
ENDBRANCH   1  18
TORSDOF 2
ENDMDL
MODEL 6
REMARK VINA RESULT:      -7.2      9.190     12.139
REMARK  2 active torsions:
REMARK  status: ('A' for Active; 'I' for Inactive)
REMARK    1  A    between atoms: C_2  and  C_3 
REMARK    2  A    between atoms: C_6  and  C_7 
ROOT
HETATM    1  C   UNL     1      18.400  49.771  50.002  1.00  0.00     0.197 C 
HETATM    2  N   UNL     1      17.387  50.630  49.367  1.00  0.00    -0.345 N 
HETATM    3  C   UNL     1      16.742  50.235  48.273  1.00  0.00     0.113 C 
HETATM    4  N   UNL     1      15.839  51.019  47.701  1.00  0.00    -0.376 N 
HETATM    5  H   UNL     1      15.333  50.654  46.902  1.00  0.00     0.161 HD
HETATM    6  C   UNL     1      17.008  48.899  47.716  1.00  0.00     0.029 A 
HETATM    7  C   UNL     1      17.612  47.984  48.588  1.00  0.00     0.025 A 
HETATM    8  N   UNL     1      17.927  48.402  49.889  1.00  0.00    -0.267 NA
HETATM    9  C   UNL     1      16.690  48.500  46.409  1.00  0.00     0.019 A 
HETATM   10  C   UNL     1      16.921  47.183  46.002  1.00  0.00     0.025 A 
HETATM   11  C   UNL     1      17.454  46.262  46.901  1.00  0.00     0.035 A 
HETATM   12 CL   UNL     1      17.709  44.637  46.407  1.00  0.00    -0.084 Cl
HETATM   13  C   UNL     1      17.788  46.653  48.195  1.00  0.00     0.048 A 
HETATM   14  C   UNL     1      17.125  51.937  49.987  1.00  0.00     0.128 C 
HETATM   15  C   UNL     1      15.705  52.372  49.701  1.00  0.00     0.039 C 
HETATM   16  C   UNL     1      15.502  52.347  48.207  1.00  0.00     0.123 C 
HETATM   17  H   UNL     1      18.564  47.751  50.344  1.00  0.00     0.130 HD
ENDROOT
BRANCH   1  18
HETATM   18  C   UNL     1      19.796  49.957  49.429  1.00  0.00    -0.021 A 
HETATM   19  C   UNL     1      20.266  51.179  48.923  1.00  0.00     0.011 A 
HETATM   20  C   UNL     1      21.549  51.289  48.378  1.00  0.00     0.007 A 
HETATM   21  C   UNL     1      22.397  50.179  48.323  1.00  0.00    -0.059 A 
HETATM   22  C   UNL     1      21.951  48.962  48.846  1.00  0.00     0.007 A 
HETATM   23  C   UNL     1      20.669  48.852  49.391  1.00  0.00     0.011 A 
BRANCH  21  24
HETATM   24  C   UNL     1      23.779  50.297  47.730  1.00  0.00     0.034 C 
HETATM   25  C   UNL     1      24.838  49.686  48.633  1.00  0.00     0.010 C 
ENDBRANCH  21  24
ENDBRANCH   1  18
TORSDOF 2
ENDMDL
MODEL 7
REMARK VINA RESULT:      -7.0     11.578     14.808
REMARK  2 active torsions:
REMARK  status: ('A' for Active; 'I' for Inactive)
REMARK    1  A    between atoms: C_2  and  C_3 
REMARK    2  A    between atoms: C_6  and  C_7 
ROOT
HETATM    1  C   UNL     1      16.158  51.009  49.117  1.00  0.00     0.197 C 
HETATM    2  N   UNL     1      15.514  52.328  49.003  1.00  0.00    -0.345 N 
HETATM    3  C   UNL     1      15.246  52.858  47.813  1.00  0.00     0.113 C 
HETATM    4  N   UNL     1      14.675  54.051  47.719  1.00  0.00    -0.376 N 
HETATM    5  H   UNL     1      14.439  54.392  46.794  1.00  0.00     0.161 HD
HETATM    6  C   UNL     1      15.553  52.096  46.592  1.00  0.00     0.029 A 
HETATM    7  C   UNL     1      15.729  50.717  46.762  1.00  0.00     0.025 A 
HETATM    8  N   UNL     1      15.620  50.180  48.053  1.00  0.00    -0.267 NA
HETATM    9  C   UNL     1      15.663  52.653  45.310  1.00  0.00     0.019 A 
HETATM   10  C   UNL     1      15.888  51.828  44.204  1.00  0.00     0.025 A 
HETATM   11  C   UNL     1      15.988  50.450  44.375  1.00  0.00     0.035 A 
HETATM   12 CL   UNL     1      16.235  49.435  43.011  1.00  0.00    -0.084 Cl
HETATM   13  C   UNL     1      15.896  49.890  45.648  1.00  0.00     0.048 A 
HETATM   14  C   UNL     1      15.186  53.030  50.252  1.00  0.00     0.128 C 
HETATM   15  C   UNL     1      13.999  53.943  50.039  1.00  0.00     0.039 C 
HETATM   16  C   UNL     1      14.318  54.858  48.883  1.00  0.00     0.123 C 
HETATM   17  H   UNL     1      15.995  49.235  48.094  1.00  0.00     0.130 HD
ENDROOT
BRANCH   1  18
HETATM   18  C   UNL     1      17.678  51.074  49.096  1.00  0.00    -0.021 A 
HETATM   19  C   UNL     1      18.396  52.151  48.552  1.00  0.00     0.011 A 
HETATM   20  C   UNL     1      19.794  52.147  48.529  1.00  0.00     0.007 A 
HETATM   21  C   UNL     1      20.512  51.066  49.048  1.00  0.00    -0.059 A 
HETATM   22  C   UNL     1      19.809  49.998  49.614  1.00  0.00     0.007 A 
HETATM   23  C   UNL     1      18.413  50.002  49.639  1.00  0.00     0.011 A 
BRANCH  21  24
HETATM   24  C   UNL     1      22.020  51.060  49.018  1.00  0.00     0.034 C 
HETATM   25  C   UNL     1      22.560  50.530  47.699  1.00  0.00     0.010 C 
ENDBRANCH  21  24
ENDBRANCH   1  18
TORSDOF 2
ENDMDL
MODEL 8
REMARK VINA RESULT:      -7.0     15.702     17.754
REMARK  2 active torsions:
REMARK  status: ('A' for Active; 'I' for Inactive)
REMARK    1  A    between atoms: C_2  and  C_3 
REMARK    2  A    between atoms: C_6  and  C_7 
ROOT
HETATM    1  C   UNL     1      36.624  46.390  64.473  1.00  0.00     0.197 C 
HETATM    2  N   UNL     1      37.892  47.103  64.697  1.00  0.00    -0.345 N 
HETATM    3  C   UNL     1      39.060  46.479  64.575  1.00  0.00     0.113 C 
HETATM    4  N   UNL     1      40.197  47.126  64.788  1.00  0.00    -0.376 N 
HETATM    5  H   UNL     1      41.064  46.625  64.630  1.00  0.00     0.161 HD
HETATM    6  C   UNL     1      39.088  45.066  64.162  1.00  0.00     0.029 A 
HETATM    7  C   UNL     1      37.928  44.588  63.540  1.00  0.00     0.025 A 
HETATM    8  N   UNL     1      36.845  45.464  63.375  1.00  0.00    -0.267 NA
HETATM    9  C   UNL     1      40.180  44.204  64.341  1.00  0.00     0.019 A 
HETATM   10  C   UNL     1      40.130  42.897  63.847  1.00  0.00     0.025 A 
HETATM   11  C   UNL     1      38.999  42.456  63.165  1.00  0.00     0.035 A 
HETATM   12 CL   UNL     1      38.951  40.859  62.534  1.00  0.00    -0.084 Cl
HETATM   13  C   UNL     1      37.903  43.300  62.998  1.00  0.00     0.048 A 
HETATM   14  C   UNL     1      37.812  48.525  65.063  1.00  0.00     0.128 C 
HETATM   15  C   UNL     1      39.056  49.250  64.603  1.00  0.00     0.039 C 
HETATM   16  C   UNL     1      40.252  48.533  65.176  1.00  0.00     0.123 C 
HETATM   17  H   UNL     1      35.993  44.960  63.139  1.00  0.00     0.130 HD
ENDROOT
BRANCH   1  18
HETATM   18  C   UNL     1      36.088  45.702  65.719  1.00  0.00    -0.021 A 
HETATM   19  C   UNL     1      35.467  44.442  65.697  1.00  0.00     0.011 A 
HETATM   20  C   UNL     1      34.964  43.867  66.868  1.00  0.00     0.007 A 
HETATM   21  C   UNL     1      35.064  44.536  68.091  1.00  0.00    -0.059 A 
HETATM   22  C   UNL     1      35.701  45.779  68.131  1.00  0.00     0.007 A 
HETATM   23  C   UNL     1      36.207  46.354  66.962  1.00  0.00     0.011 A 
BRANCH  21  24
HETATM   24  C   UNL     1      34.515  43.916  69.353  1.00  0.00     0.034 C 
HETATM   25  C   UNL     1      33.273  43.082  69.081  1.00  0.00     0.010 C 
ENDBRANCH  21  24
ENDBRANCH   1  18
TORSDOF 2
ENDMDL
MODEL 9
REMARK VINA RESULT:      -6.9      3.082      5.865
REMARK  2 active torsions:
REMARK  status: ('A' for Active; 'I' for Inactive)
REMARK    1  A    between atoms: C_2  and  C_3 
REMARK    2  A    between atoms: C_6  and  C_7 
ROOT
HETATM    1  C   UNL     1      26.547  41.062  50.958  1.00  0.00     0.197 C 
HETATM    2  N   UNL     1      27.643  41.780  51.629  1.00  0.00    -0.345 N 
HETATM    3  C   UNL     1      27.748  43.103  51.543  1.00  0.00     0.113 C 
HETATM    4  N   UNL     1      28.745  43.741  52.142  1.00  0.00    -0.376 N 
HETATM    5  H   UNL     1      28.754  44.753  52.095  1.00  0.00     0.161 HD
HETATM    6  C   UNL     1      26.727  43.866  50.808  1.00  0.00     0.029 A 
HETATM    7  C   UNL     1      25.510  43.208  50.593  1.00  0.00     0.025 A 
HETATM    8  N   UNL     1      25.362  41.896  51.067  1.00  0.00    -0.267 NA
HETATM    9  C   UNL     1      26.895  45.177  50.337  1.00  0.00     0.019 A 
HETATM   10  C   UNL     1      25.835  45.839  49.711  1.00  0.00     0.025 A 
HETATM   11  C   UNL     1      24.605  45.200  49.569  1.00  0.00     0.035 A 
HETATM   12 CL   UNL     1      23.295  46.026  48.826  1.00  0.00    -0.084 Cl
HETATM   13  C   UNL     1      24.435  43.893  50.019  1.00  0.00     0.048 A 
HETATM   14  C   UNL     1      28.612  40.976  52.389  1.00  0.00     0.128 C 
HETATM   15  C   UNL     1      29.204  41.800  53.510  1.00  0.00     0.039 C 
HETATM   16  C   UNL     1      29.782  43.057  52.909  1.00  0.00     0.123 C 
HETATM   17  H   UNL     1      24.550  41.442  50.655  1.00  0.00     0.130 HD
ENDROOT
BRANCH   1  18
HETATM   18  C   UNL     1      26.863  40.680  49.520  1.00  0.00    -0.021 A 
HETATM   19  C   UNL     1      28.149  40.775  48.963  1.00  0.00     0.011 A 
HETATM   20  C   UNL     1      28.380  40.441  47.624  1.00  0.00     0.007 A 
HETATM   21  C   UNL     1      27.334  40.006  46.808  1.00  0.00    -0.059 A 
HETATM   22  C   UNL     1      26.054  39.884  47.356  1.00  0.00     0.007 A 
HETATM   23  C   UNL     1      25.822  40.216  48.694  1.00  0.00     0.011 A 
BRANCH  21  24
HETATM   24  C   UNL     1      27.584  39.651  45.362  1.00  0.00     0.034 C 
HETATM   25  C   UNL     1      28.324  40.756  44.627  1.00  0.00     0.010 C 
ENDBRANCH  21  24
ENDBRANCH   1  18
TORSDOF 2
ENDMDL
MODEL 10
REMARK VINA RESULT:      -6.4     13.274     15.577
REMARK  2 active torsions:
REMARK  status: ('A' for Active; 'I' for Inactive)
REMARK    1  A    between atoms: C_2  and  C_3 
REMARK    2  A    between atoms: C_6  and  C_7 
ROOT
HETATM    1  C   UNL     1      35.709  50.667  41.923  1.00  0.00     0.197 C 
HETATM    2  N   UNL     1      36.410  51.237  40.761  1.00  0.00    -0.345 N 
HETATM    3  C   UNL     1      37.108  52.363  40.868  1.00  0.00     0.113 C 
HETATM    4  N   UNL     1      37.728  52.876  39.814  1.00  0.00    -0.376 N 
HETATM    5  H   UNL     1      38.293  53.706  39.954  1.00  0.00     0.161 HD
HETATM    6  C   UNL     1      37.223  53.025  42.178  1.00  0.00     0.029 A 
HETATM    7  C   UNL     1      36.937  52.227  43.292  1.00  0.00     0.025 A 
HETATM    8  N   UNL     1      36.554  50.893  43.083  1.00  0.00    -0.267 NA
HETATM    9  C   UNL     1      37.603  54.362  42.366  1.00  0.00     0.019 A 
HETATM   10  C   UNL     1      37.751  54.873  43.659  1.00  0.00     0.025 A 
HETATM   11  C   UNL     1      37.535  54.049  44.760  1.00  0.00     0.035 A 
HETATM   12 CL   UNL     1      37.746  54.671  46.348  1.00  0.00    -0.084 Cl
HETATM   13  C   UNL     1      37.142  52.724  44.582  1.00  0.00     0.048 A 
HETATM   14  C   UNL     1      36.301  50.515  39.485  1.00  0.00     0.128 C 
HETATM   15  C   UNL     1      37.525  50.774  38.635  1.00  0.00     0.039 C 
HETATM   16  C   UNL     1      37.681  52.267  38.488  1.00  0.00     0.123 C 
HETATM   17  H   UNL     1      36.147  50.489  43.923  1.00  0.00     0.130 HD
ENDROOT
BRANCH   1  18
HETATM   18  C   UNL     1      34.302  51.212  42.109  1.00  0.00    -0.021 A 
HETATM   19  C   UNL     1      33.697  51.373  43.367  1.00  0.00     0.011 A 
HETATM   20  C   UNL     1      32.388  51.850  43.481  1.00  0.00     0.007 A 
HETATM   21  C   UNL     1      31.647  52.178  42.343  1.00  0.00    -0.059 A 
HETATM   22  C   UNL     1      32.245  52.045  41.086  1.00  0.00     0.007 A 
HETATM   23  C   UNL     1      33.553  51.570  40.971  1.00  0.00     0.011 A 
BRANCH  21  24
HETATM   24  C   UNL     1      30.232  52.687  42.468  1.00  0.00     0.034 C 
HETATM   25  C   UNL     1      29.256  51.859  41.649  1.00  0.00     0.010 C 
ENDBRANCH  21  24
ENDBRANCH   1  18
TORSDOF 2
ENDMDL
