MODEL 1
REMARK VINA RESULT:     -10.3      0.000      0.000
REMARK  3 active torsions:
REMARK  status: ('A' for Active; 'I' for Inactive)
REMARK    1  A    between atoms: C_10  and  C_11 
REMARK    2  A    between atoms: C_13  and  C_14 
REMARK    3  A    between atoms: C_22  and  O_23 
ROOT
HETATM    1  C   UNL     1      25.018  40.769  48.781  1.00  0.00     0.001 A 
HETATM    2  C   UNL     1      26.117  40.776  49.647  1.00  0.00     0.015 A 
HETATM    3  C   UNL     1      26.208  41.738  50.657  1.00  0.00     0.013 A 
HETATM    4  C   UNL     1      25.188  42.692  50.787  1.00  0.00     0.046 A 
HETATM    5  C   UNL     1      25.273  43.704  51.876  1.00  0.00     0.271 A 
HETATM    6  O   UNL     1      24.350  44.481  52.095  1.00  0.00    -0.266 OA
HETATM    7  N   UNL     1      26.415  43.742  52.643  1.00  0.00    -0.257 N 
HETATM    8  N   UNL     1      27.391  42.817  52.504  1.00  0.00    -0.229 N 
HETATM    9  C   UNL     1      27.320  41.808  51.586  1.00  0.00     0.122 A 
HETATM   10  C   UNL     1      28.555  42.715  53.234  1.00  0.00     0.162 A 
HETATM   11  N   UNL     1      29.192  41.611  52.870  1.00  0.00    -0.202 NA
HETATM   12  C   UNL     1      28.450  41.075  51.858  1.00  0.00     0.194 A 
HETATM   13  C   UNL     1      24.087  42.683  49.924  1.00  0.00     0.018 A 
HETATM   14  C   UNL     1      24.006  41.721  48.918  1.00  0.00     0.001 A 
HETATM   15  H   UNL     1      26.396  44.293  53.489  1.00  0.00     0.191 HD
ENDROOT
BRANCH  10  16
HETATM   16  C   UNL     1      29.018  43.642  54.271  1.00  0.00     0.013 A 
HETATM   17  C   UNL     1      29.973  43.202  55.202  1.00  0.00     0.031 A 
HETATM   18  C   UNL     1      30.466  44.057  56.200  1.00  0.00     0.048 A 
HETATM   19  C   UNL     1      29.982  45.373  56.263  1.00  0.00     0.016 A 
HETATM   20  C   UNL     1      29.049  45.827  55.333  1.00  0.00     0.002 A 
HETATM   21  C   UNL     1      28.577  44.970  54.337  1.00  0.00     0.015 A 
BRANCH  18  22
HETATM   22  C   UNL     1      31.485  43.578  57.204  1.00  0.00     0.417 C 
HETATM   23  F   UNL     1      32.758  43.555  56.721  1.00  0.00    -0.166 F 
HETATM   24  F   UNL     1      31.526  44.356  58.322  1.00  0.00    -0.166 F 
HETATM   25  F   UNL     1      31.226  42.314  57.638  1.00  0.00    -0.166 F 
ENDBRANCH  18  22
ENDBRANCH  10  16
BRANCH  12  26
HETATM   26  O   UNL     1      28.804  39.958  51.221  1.00  0.00    -0.343 OA
HETATM   27  H   UNL     1      28.621  39.229  51.839  1.00  0.00     0.219 HD
ENDBRANCH  12  26
TORSDOF 3
ENDMDL
MODEL 2
REMARK VINA RESULT:      -9.8      4.423      7.406
REMARK  3 active torsions:
REMARK  status: ('A' for Active; 'I' for Inactive)
REMARK    1  A    between atoms: C_10  and  C_11 
REMARK    2  A    between atoms: C_13  and  C_14 
REMARK    3  A    between atoms: C_22  and  O_23 
ROOT
HETATM    1  C   UNL     1      31.558  43.848  57.054  1.00  0.00     0.001 A 
HETATM    2  C   UNL     1      30.993  43.484  55.827  1.00  0.00     0.015 A 
HETATM    3  C   UNL     1      29.884  44.176  55.332  1.00  0.00     0.013 A 
HETATM    4  C   UNL     1      29.347  45.234  56.082  1.00  0.00     0.046 A 
HETATM    5  C   UNL     1      28.179  45.985  55.546  1.00  0.00     0.271 A 
HETATM    6  O   UNL     1      27.752  46.986  56.113  1.00  0.00    -0.266 OA
HETATM    7  N   UNL     1      27.590  45.535  54.386  1.00  0.00    -0.257 N 
HETATM    8  N   UNL     1      28.117  44.513  53.676  1.00  0.00    -0.229 N 
HETATM    9  C   UNL     1      29.245  43.850  54.072  1.00  0.00     0.122 A 
HETATM   10  C   UNL     1      27.656  43.998  52.485  1.00  0.00     0.162 A 
HETATM   11  N   UNL     1      28.512  43.080  52.056  1.00  0.00    -0.202 NA
HETATM   12  C   UNL     1      29.462  42.980  53.030  1.00  0.00     0.194 A 
HETATM   13  C   UNL     1      29.914  45.600  57.307  1.00  0.00     0.018 A 
HETATM   14  C   UNL     1      31.019  44.903  57.793  1.00  0.00     0.001 A 
HETATM   15  H   UNL     1      26.928  46.143  53.927  1.00  0.00     0.191 HD
ENDROOT
BRANCH  10  16
HETATM   16  C   UNL     1      26.442  44.404  51.770  1.00  0.00     0.013 A 
HETATM   17  C   UNL     1      26.348  45.714  51.275  1.00  0.00     0.031 A 
HETATM   18  C   UNL     1      25.217  46.145  50.564  1.00  0.00     0.048 A 
HETATM   19  C   UNL     1      24.163  45.242  50.357  1.00  0.00     0.016 A 
HETATM   20  C   UNL     1      24.253  43.933  50.827  1.00  0.00     0.002 A 
HETATM   21  C   UNL     1      25.390  43.514  51.522  1.00  0.00     0.015 A 
BRANCH  18  22
HETATM   22  C   UNL     1      25.116  47.557  50.041  1.00  0.00     0.417 C 
HETATM   23  F   UNL     1      24.887  47.628  48.701  1.00  0.00    -0.166 F 
HETATM   24  F   UNL     1      24.109  48.263  50.628  1.00  0.00    -0.166 F 
HETATM   25  F   UNL     1      26.252  48.272  50.264  1.00  0.00    -0.166 F 
ENDBRANCH  18  22
ENDBRANCH  10  16
BRANCH  12  26
HETATM   26  O   UNL     1      30.483  42.125  52.953  1.00  0.00    -0.343 OA
HETATM   27  H   UNL     1      30.683  42.033  52.005  1.00  0.00     0.219 HD
ENDBRANCH  12  26
TORSDOF 3
ENDMDL
MODEL 3
REMARK VINA RESULT:      -9.8      5.167      8.261
REMARK  3 active torsions:
REMARK  status: ('A' for Active; 'I' for Inactive)
REMARK    1  A    between atoms: C_10  and  C_11 
REMARK    2  A    between atoms: C_13  and  C_14 
REMARK    3  A    between atoms: C_22  and  O_23 
ROOT
HETATM    1  C   UNL     1      30.640  45.063  56.920  1.00  0.00     0.001 A 
HETATM    2  C   UNL     1      29.533  45.739  56.396  1.00  0.00     0.015 A 
HETATM    3  C   UNL     1      28.870  45.235  55.274  1.00  0.00     0.013 A 
HETATM    4  C   UNL     1      29.330  44.048  54.683  1.00  0.00     0.046 A 
HETATM    5  C   UNL     1      28.611  43.499  53.500  1.00  0.00     0.271 A 
HETATM    6  O   UNL     1      28.910  42.408  53.026  1.00  0.00    -0.266 OA
HETATM    7  N   UNL     1      27.591  44.243  52.954  1.00  0.00    -0.257 N 
HETATM    8  N   UNL     1      27.161  45.386  53.533  1.00  0.00    -0.229 N 
HETATM    9  C   UNL     1      27.721  45.886  54.674  1.00  0.00     0.122 A 
HETATM   10  C   UNL     1      26.127  46.196  53.116  1.00  0.00     0.162 A 
HETATM   11  N   UNL     1      25.947  47.156  54.013  1.00  0.00    -0.202 NA
HETATM   12  C   UNL     1      26.927  46.975  54.945  1.00  0.00     0.194 A 
HETATM   13  C   UNL     1      30.434  43.370  55.209  1.00  0.00     0.018 A 
HETATM   14  C   UNL     1      31.090  43.882  56.328  1.00  0.00     0.001 A 
HETATM   15  H   UNL     1      26.988  43.793  52.279  1.00  0.00     0.191 HD
ENDROOT
BRANCH  10  16
HETATM   16  C   UNL     1      25.320  46.026  51.904  1.00  0.00     0.013 A 
HETATM   17  C   UNL     1      25.001  47.155  51.133  1.00  0.00     0.031 A 
HETATM   18  C   UNL     1      24.250  47.042  49.952  1.00  0.00     0.048 A 
HETATM   19  C   UNL     1      23.810  45.773  49.548  1.00  0.00     0.016 A 
HETATM   20  C   UNL     1      24.137  44.642  50.295  1.00  0.00     0.002 A 
HETATM   21  C   UNL     1      24.896  44.767  51.461  1.00  0.00     0.015 A 
BRANCH  18  22
HETATM   22  C   UNL     1      23.901  48.260  49.131  1.00  0.00     0.417 C 
HETATM   23  F   UNL     1      24.987  48.916  48.639  1.00  0.00    -0.166 F 
HETATM   24  F   UNL     1      23.127  47.959  48.051  1.00  0.00    -0.166 F 
HETATM   25  F   UNL     1      23.201  49.181  49.847  1.00  0.00    -0.166 F 
ENDBRANCH  18  22
ENDBRANCH  10  16
BRANCH  12  26
HETATM   26  O   UNL     1      27.076  47.781  55.998  1.00  0.00    -0.343 OA
HETATM   27  H   UNL     1      28.018  47.736  56.238  1.00  0.00     0.219 HD
ENDBRANCH  12  26
TORSDOF 3
ENDMDL
MODEL 4
REMARK VINA RESULT:      -9.8      4.588      7.895
REMARK  3 active torsions:
REMARK  status: ('A' for Active; 'I' for Inactive)
REMARK    1  A    between atoms: C_10  and  C_11 
REMARK    2  A    between atoms: C_13  and  C_14 
REMARK    3  A    between atoms: C_22  and  O_23 
ROOT
HETATM    1  C   UNL     1      30.635  44.918  56.932  1.00  0.00     0.001 A 
HETATM    2  C   UNL     1      29.549  45.633  56.416  1.00  0.00     0.015 A 
HETATM    3  C   UNL     1      28.914  45.199  55.249  1.00  0.00     0.013 A 
HETATM    4  C   UNL     1      29.379  44.042  54.607  1.00  0.00     0.046 A 
HETATM    5  C   UNL     1      28.689  43.565  53.376  1.00  0.00     0.271 A 
HETATM    6  O   UNL     1      28.990  42.499  52.850  1.00  0.00    -0.266 OA
HETATM    7  N   UNL     1      27.691  44.350  52.844  1.00  0.00    -0.257 N 
HETATM    8  N   UNL     1      27.255  45.464  53.473  1.00  0.00    -0.229 N 
HETATM    9  C   UNL     1      27.787  45.894  54.655  1.00  0.00     0.122 A 
HETATM   10  C   UNL     1      26.241  46.306  53.074  1.00  0.00     0.162 A 
HETATM   11  N   UNL     1      26.045  47.217  54.017  1.00  0.00    -0.202 NA
HETATM   12  C   UNL     1      26.997  46.975  54.964  1.00  0.00     0.194 A 
HETATM   13  C   UNL     1      30.462  43.324  55.125  1.00  0.00     0.018 A 
HETATM   14  C   UNL     1      31.091  43.766  56.288  1.00  0.00     0.001 A 
HETATM   15  H   UNL     1      27.103  43.944  52.129  1.00  0.00     0.191 HD
ENDROOT
BRANCH  10  16
HETATM   16  C   UNL     1      25.466  46.212  51.832  1.00  0.00     0.013 A 
HETATM   17  C   UNL     1      24.767  45.027  51.552  1.00  0.00     0.031 A 
HETATM   18  C   UNL     1      23.993  44.896  50.388  1.00  0.00     0.048 A 
HETATM   19  C   UNL     1      23.929  45.974  49.493  1.00  0.00     0.016 A 
HETATM   20  C   UNL     1      24.603  47.162  49.770  1.00  0.00     0.002 A 
HETATM   21  C   UNL     1      25.359  47.284  50.937  1.00  0.00     0.015 A 
BRANCH  18  22
HETATM   22  C   UNL     1      23.251  43.617  50.086  1.00  0.00     0.417 C 
HETATM   23  F   UNL     1      23.428  43.171  48.812  1.00  0.00    -0.166 F 
HETATM   24  F   UNL     1      23.628  42.588  50.896  1.00  0.00    -0.166 F 
HETATM   25  F   UNL     1      21.907  43.749  50.252  1.00  0.00    -0.166 F 
ENDBRANCH  18  22
ENDBRANCH  10  16
BRANCH  12  26
HETATM   26  O   UNL     1      27.123  47.720  56.064  1.00  0.00    -0.343 OA
HETATM   27  H   UNL     1      26.240  47.743  56.473  1.00  0.00     0.219 HD
ENDBRANCH  12  26
TORSDOF 3
ENDMDL
MODEL 5
REMARK VINA RESULT:      -9.7      4.431      7.514
REMARK  3 active torsions:
REMARK  status: ('A' for Active; 'I' for Inactive)
REMARK    1  A    between atoms: C_10  and  C_11 
REMARK    2  A    between atoms: C_13  and  C_14 
REMARK    3  A    between atoms: C_22  and  O_23 
ROOT
HETATM    1  C   UNL     1      31.538  43.735  57.158  1.00  0.00     0.001 A 
HETATM    2  C   UNL     1      30.982  43.442  55.909  1.00  0.00     0.015 A 
HETATM    3  C   UNL     1      29.913  44.199  55.421  1.00  0.00     0.013 A 
HETATM    4  C   UNL     1      29.409  45.251  56.200  1.00  0.00     0.046 A 
HETATM    5  C   UNL     1      28.284  46.073  55.673  1.00  0.00     0.271 A 
HETATM    6  O   UNL     1      27.891  47.069  56.269  1.00  0.00    -0.266 OA
HETATM    7  N   UNL     1      27.699  45.691  54.487  1.00  0.00    -0.257 N 
HETATM    8  N   UNL     1      28.194  44.673  53.749  1.00  0.00    -0.229 N 
HETATM    9  C   UNL     1      29.284  43.948  54.138  1.00  0.00     0.122 A 
HETATM   10  C   UNL     1      27.733  44.223  52.532  1.00  0.00     0.162 A 
HETATM   11  N   UNL     1      28.556  43.284  52.083  1.00  0.00    -0.202 NA
HETATM   12  C   UNL     1      29.482  43.107  53.069  1.00  0.00     0.194 A 
HETATM   13  C   UNL     1      29.968  45.548  57.448  1.00  0.00     0.018 A 
HETATM   14  C   UNL     1      31.032  44.785  57.926  1.00  0.00     0.001 A 
HETATM   15  H   UNL     1      27.071  46.344  54.040  1.00  0.00     0.191 HD
ENDROOT
BRANCH  10  16
HETATM   16  C   UNL     1      26.551  44.708  51.812  1.00  0.00     0.013 A 
HETATM   17  C   UNL     1      25.720  43.782  51.163  1.00  0.00     0.031 A 
HETATM   18  C   UNL     1      24.564  44.194  50.479  1.00  0.00     0.048 A 
HETATM   19  C   UNL     1      24.248  45.561  50.447  1.00  0.00     0.016 A 
HETATM   20  C   UNL     1      25.056  46.488  51.104  1.00  0.00     0.002 A 
HETATM   21  C   UNL     1      26.195  46.063  51.791  1.00  0.00     0.015 A 
BRANCH  18  22
HETATM   22  C   UNL     1      23.678  43.197  49.774  1.00  0.00     0.417 C 
HETATM   23  F   UNL     1      24.142  41.918  49.832  1.00  0.00    -0.166 F 
HETATM   24  F   UNL     1      22.418  43.158  50.290  1.00  0.00    -0.166 F 
HETATM   25  F   UNL     1      23.532  43.482  48.452  1.00  0.00    -0.166 F 
ENDBRANCH  18  22
ENDBRANCH  10  16
BRANCH  12  26
HETATM   26  O   UNL     1      30.467  42.211  52.978  1.00  0.00    -0.343 OA
HETATM   27  H   UNL     1      31.247  42.703  52.668  1.00  0.00     0.219 HD
ENDBRANCH  12  26
TORSDOF 3
ENDMDL
MODEL 6
REMARK VINA RESULT:      -9.6      2.056      2.631
REMARK  3 active torsions:
REMARK  status: ('A' for Active; 'I' for Inactive)
REMARK    1  A    between atoms: C_10  and  C_11 
REMARK    2  A    between atoms: C_13  and  C_14 
REMARK    3  A    between atoms: C_22  and  O_23 
ROOT
HETATM    1  C   UNL     1      24.959  40.550  48.520  1.00  0.00     0.001 A 
HETATM    2  C   UNL     1      26.060  40.563  49.383  1.00  0.00     0.015 A 
HETATM    3  C   UNL     1      26.155  41.533  50.385  1.00  0.00     0.013 A 
HETATM    4  C   UNL     1      25.136  42.489  50.511  1.00  0.00     0.046 A 
HETATM    5  C   UNL     1      25.226  43.509  51.591  1.00  0.00     0.271 A 
HETATM    6  O   UNL     1      24.304  44.289  51.807  1.00  0.00    -0.266 OA
HETATM    7  N   UNL     1      26.370  43.552  52.354  1.00  0.00    -0.257 N 
HETATM    8  N   UNL     1      27.345  42.625  52.220  1.00  0.00    -0.229 N 
HETATM    9  C   UNL     1      27.270  41.609  51.310  1.00  0.00     0.122 A 
HETATM   10  C   UNL     1      28.511  42.527  52.947  1.00  0.00     0.162 A 
HETATM   11  N   UNL     1      29.146  41.419  52.590  1.00  0.00    -0.202 NA
HETATM   12  C   UNL     1      28.400  40.876  51.584  1.00  0.00     0.194 A 
HETATM   13  C   UNL     1      24.033  42.474  49.651  1.00  0.00     0.018 A 
HETATM   14  C   UNL     1      23.948  41.504  48.653  1.00  0.00     0.001 A 
HETATM   15  H   UNL     1      26.355  44.110  53.196  1.00  0.00     0.191 HD
ENDROOT
BRANCH  10  16
HETATM   16  C   UNL     1      28.979  43.461  53.976  1.00  0.00     0.013 A 
HETATM   17  C   UNL     1      28.257  44.643  54.204  1.00  0.00     0.031 A 
HETATM   18  C   UNL     1      28.650  45.559  55.193  1.00  0.00     0.048 A 
HETATM   19  C   UNL     1      29.793  45.279  55.958  1.00  0.00     0.016 A 
HETATM   20  C   UNL     1      30.507  44.099  55.754  1.00  0.00     0.002 A 
HETATM   21  C   UNL     1      30.096  43.191  54.775  1.00  0.00     0.015 A 
BRANCH  18  22
HETATM   22  C   UNL     1      27.877  46.833  55.428  1.00  0.00     0.417 C 
HETATM   23  F   UNL     1      27.807  47.195  56.739  1.00  0.00    -0.166 F 
HETATM   24  F   UNL     1      28.416  47.901  54.776  1.00  0.00    -0.166 F 
HETATM   25  F   UNL     1      26.590  46.742  54.995  1.00  0.00    -0.166 F 
ENDBRANCH  18  22
ENDBRANCH  10  16
BRANCH  12  26
HETATM   26  O   UNL     1      28.751  39.753  50.955  1.00  0.00    -0.343 OA
HETATM   27  H   UNL     1      29.323  39.268  51.575  1.00  0.00     0.219 HD
ENDBRANCH  12  26
TORSDOF 3
ENDMDL
MODEL 7
REMARK VINA RESULT:      -9.2      1.800      3.430
REMARK  3 active torsions:
REMARK  status: ('A' for Active; 'I' for Inactive)
REMARK    1  A    between atoms: C_10  and  C_11 
REMARK    2  A    between atoms: C_13  and  C_14 
REMARK    3  A    between atoms: C_22  and  O_23 
ROOT
HETATM    1  C   UNL     1      24.814  44.175  49.383  1.00  0.00     0.001 A 
HETATM    2  C   UNL     1      25.147  44.997  50.465  1.00  0.00     0.015 A 
HETATM    3  C   UNL     1      26.139  44.602  51.367  1.00  0.00     0.013 A 
HETATM    4  C   UNL     1      26.792  43.375  51.172  1.00  0.00     0.046 A 
HETATM    5  C   UNL     1      27.864  42.963  52.119  1.00  0.00     0.271 A 
HETATM    6  O   UNL     1      28.535  41.956  51.920  1.00  0.00    -0.266 OA
HETATM    7  N   UNL     1      28.093  43.748  53.225  1.00  0.00    -0.257 N 
HETATM    8  N   UNL     1      27.455  44.927  53.401  1.00  0.00    -0.229 N 
HETATM    9  C   UNL     1      26.532  45.400  52.512  1.00  0.00     0.122 A 
HETATM   10  C   UNL     1      27.625  45.823  54.433  1.00  0.00     0.162 A 
HETATM   11  N   UNL     1      26.900  46.905  54.183  1.00  0.00    -0.202 NA
HETATM   12  C   UNL     1      26.225  46.636  53.029  1.00  0.00     0.194 A 
HETATM   13  C   UNL     1      26.462  42.555  50.087  1.00  0.00     0.018 A 
HETATM   14  C   UNL     1      25.469  42.957  49.195  1.00  0.00     0.001 A 
HETATM   15  H   UNL     1      28.933  43.576  53.760  1.00  0.00     0.191 HD
ENDROOT
BRANCH  10  16
HETATM   16  C   UNL     1      28.486  45.649  55.607  1.00  0.00     0.013 A 
HETATM   17  C   UNL     1      29.490  44.669  55.578  1.00  0.00     0.031 A 
HETATM   18  C   UNL     1      30.354  44.478  56.668  1.00  0.00     0.048 A 
HETATM   19  C   UNL     1      30.198  45.285  57.805  1.00  0.00     0.016 A 
HETATM   20  C   UNL     1      29.216  46.275  57.839  1.00  0.00     0.002 A 
HETATM   21  C   UNL     1      28.372  46.462  56.742  1.00  0.00     0.015 A 
BRANCH  18  22
HETATM   22  C   UNL     1      31.427  43.417  56.637  1.00  0.00     0.417 C 
HETATM   23  F   UNL     1      31.661  42.915  55.393  1.00  0.00    -0.166 F 
HETATM   24  F   UNL     1      32.629  43.874  57.086  1.00  0.00    -0.166 F 
HETATM   25  F   UNL     1      31.117  42.348  57.419  1.00  0.00    -0.166 F 
ENDBRANCH  18  22
ENDBRANCH  10  16
BRANCH  12  26
HETATM   26  O   UNL     1      25.368  47.499  52.480  1.00  0.00    -0.343 OA
HETATM   27  H   UNL     1      25.455  47.385  51.517  1.00  0.00     0.219 HD
ENDBRANCH  12  26
TORSDOF 3
ENDMDL
MODEL 8
REMARK VINA RESULT:      -9.2      6.343      8.691
REMARK  3 active torsions:
REMARK  status: ('A' for Active; 'I' for Inactive)
REMARK    1  A    between atoms: C_10  and  C_11 
REMARK    2  A    between atoms: C_13  and  C_14 
REMARK    3  A    between atoms: C_22  and  O_23 
ROOT
HETATM    1  C   UNL     1      28.624  44.076  54.082  1.00  0.00     0.001 A 
HETATM    2  C   UNL     1      28.028  44.144  52.819  1.00  0.00     0.015 A 
HETATM    3  C   UNL     1      27.073  45.128  52.545  1.00  0.00     0.013 A 
HETATM    4  C   UNL     1      26.723  46.040  53.552  1.00  0.00     0.046 A 
HETATM    5  C   UNL     1      25.723  47.102  53.256  1.00  0.00     0.271 A 
HETATM    6  O   UNL     1      25.474  47.986  54.069  1.00  0.00    -0.266 OA
HETATM    7  N   UNL     1      25.085  47.075  52.037  1.00  0.00    -0.257 N 
HETATM    8  N   UNL     1      25.431  46.188  51.077  1.00  0.00    -0.229 N 
HETATM    9  C   UNL     1      26.411  45.254  51.261  1.00  0.00     0.122 A 
HETATM   10  C   UNL     1      24.907  46.085  49.808  1.00  0.00     0.162 A 
HETATM   11  N   UNL     1      25.590  45.166  49.137  1.00  0.00    -0.202 NA
HETATM   12  C   UNL     1      26.486  44.652  50.028  1.00  0.00     0.194 A 
HETATM   13  C   UNL     1      27.323  45.975  54.815  1.00  0.00     0.018 A 
HETATM   14  C   UNL     1      28.272  44.989  55.078  1.00  0.00     0.001 A 
HETATM   15  H   UNL     1      24.553  47.890  51.765  1.00  0.00     0.191 HD
ENDROOT
BRANCH  10  16
HETATM   16  C   UNL     1      23.802  46.873  49.252  1.00  0.00     0.013 A 
HETATM   17  C   UNL     1      23.944  48.265  49.142  1.00  0.00     0.031 A 
HETATM   18  C   UNL     1      22.924  49.060  48.596  1.00  0.00     0.048 A 
HETATM   19  C   UNL     1      21.743  48.442  48.162  1.00  0.00     0.016 A 
HETATM   20  C   UNL     1      21.597  47.058  48.248  1.00  0.00     0.002 A 
HETATM   21  C   UNL     1      22.625  46.277  48.781  1.00  0.00     0.015 A 
BRANCH  18  22
HETATM   22  C   UNL     1      23.078  50.558  48.488  1.00  0.00     0.417 C 
HETATM   23  F   UNL     1      23.814  50.955  47.414  1.00  0.00    -0.166 F 
HETATM   24  F   UNL     1      21.881  51.200  48.376  1.00  0.00    -0.166 F 
HETATM   25  F   UNL     1      23.689  51.094  49.579  1.00  0.00    -0.166 F 
ENDBRANCH  18  22
ENDBRANCH  10  16
BRANCH  12  26
HETATM   26  O   UNL     1      27.336  43.674  49.709  1.00  0.00    -0.343 OA
HETATM   27  H   UNL     1      26.784  42.908  49.472  1.00  0.00     0.219 HD
ENDBRANCH  12  26
TORSDOF 3
ENDMDL
MODEL 9
REMARK VINA RESULT:      -9.1      2.528      4.148
REMARK  3 active torsions:
REMARK  status: ('A' for Active; 'I' for Inactive)
REMARK    1  A    between atoms: C_10  and  C_11 
REMARK    2  A    between atoms: C_13  and  C_14 
REMARK    3  A    between atoms: C_22  and  O_23 
ROOT
HETATM    1  C   UNL     1      22.262  44.881  48.041  1.00  0.00     0.001 A 
HETATM    2  C   UNL     1      23.029  45.665  48.910  1.00  0.00     0.015 A 
HETATM    3  C   UNL     1      23.936  45.062  49.785  1.00  0.00     0.013 A 
HETATM    4  C   UNL     1      24.063  43.664  49.781  1.00  0.00     0.046 A 
HETATM    5  C   UNL     1      25.044  43.021  50.698  1.00  0.00     0.271 A 
HETATM    6  O   UNL     1      25.268  41.816  50.646  1.00  0.00    -0.266 OA
HETATM    7  N   UNL     1      25.706  43.816  51.606  1.00  0.00    -0.257 N 
HETATM    8  N   UNL     1      25.571  45.161  51.599  1.00  0.00    -0.229 N 
HETATM    9  C   UNL     1      24.758  45.811  50.715  1.00  0.00     0.122 A 
HETATM   10  C   UNL     1      26.207  46.068  52.417  1.00  0.00     0.162 A 
HETATM   11  N   UNL     1      25.894  47.294  52.021  1.00  0.00    -0.202 NA
HETATM   12  C   UNL     1      25.001  47.134  51.003  1.00  0.00     0.194 A 
HETATM   13  C   UNL     1      23.299  42.880  48.911  1.00  0.00     0.018 A 
HETATM   14  C   UNL     1      22.396  43.492  48.043  1.00  0.00     0.001 A 
HETATM   15  H   UNL     1      26.497  43.418  52.092  1.00  0.00     0.191 HD
ENDROOT
BRANCH  10  16
HETATM   16  C   UNL     1      27.114  45.757  53.527  1.00  0.00     0.013 A 
HETATM   17  C   UNL     1      27.939  44.625  53.438  1.00  0.00     0.031 A 
HETATM   18  C   UNL     1      28.839  44.297  54.464  1.00  0.00     0.048 A 
HETATM   19  C   UNL     1      28.904  45.121  55.597  1.00  0.00     0.016 A 
HETATM   20  C   UNL     1      28.104  46.259  55.689  1.00  0.00     0.002 A 
HETATM   21  C   UNL     1      27.221  46.580  54.656  1.00  0.00     0.015 A 
BRANCH  18  22
HETATM   22  C   UNL     1      29.718  43.073  54.368  1.00  0.00     0.417 C 
HETATM   23  F   UNL     1      30.515  42.887  55.456  1.00  0.00    -0.166 F 
HETATM   24  F   UNL     1      29.001  41.922  54.232  1.00  0.00    -0.166 F 
HETATM   25  F   UNL     1      30.554  43.121  53.295  1.00  0.00    -0.166 F 
ENDBRANCH  18  22
ENDBRANCH  10  16
BRANCH  12  26
HETATM   26  O   UNL     1      24.441  48.165  50.368  1.00  0.00    -0.343 OA
HETATM   27  H   UNL     1      24.007  47.790  49.581  1.00  0.00     0.219 HD
ENDBRANCH  12  26
TORSDOF 3
ENDMDL
MODEL 10
REMARK VINA RESULT:      -8.9      2.596      4.132
REMARK  3 active torsions:
REMARK  status: ('A' for Active; 'I' for Inactive)
REMARK    1  A    between atoms: C_10  and  C_11 
REMARK    2  A    between atoms: C_13  and  C_14 
REMARK    3  A    between atoms: C_22  and  O_23 
ROOT
HETATM    1  C   UNL     1      26.373  38.841  47.400  1.00  0.00     0.001 A 
HETATM    2  C   UNL     1      26.446  40.078  48.050  1.00  0.00     0.015 A 
HETATM    3  C   UNL     1      27.279  40.239  49.160  1.00  0.00     0.013 A 
HETATM    4  C   UNL     1      28.036  39.147  49.612  1.00  0.00     0.046 A 
HETATM    5  C   UNL     1      28.940  39.322  50.782  1.00  0.00     0.271 A 
HETATM    6  O   UNL     1      29.701  38.429  51.137  1.00  0.00    -0.266 OA
HETATM    7  N   UNL     1      28.909  40.522  51.455  1.00  0.00    -0.257 N 
HETATM    8  N   UNL     1      28.174  41.565  51.009  1.00  0.00    -0.229 N 
HETATM    9  C   UNL     1      27.401  41.489  49.885  1.00  0.00     0.122 A 
HETATM   10  C   UNL     1      28.091  42.825  51.559  1.00  0.00     0.162 A 
HETATM   11  N   UNL     1      27.356  43.591  50.765  1.00  0.00    -0.202 NA
HETATM   12  C   UNL     1      26.923  42.773  49.763  1.00  0.00     0.194 A 
HETATM   13  C   UNL     1      27.965  37.911  48.960  1.00  0.00     0.018 A 
HETATM   14  C   UNL     1      27.130  37.760  47.855  1.00  0.00     0.001 A 
HETATM   15  H   UNL     1      29.646  40.708  52.121  1.00  0.00     0.191 HD
ENDROOT
BRANCH  10  16
HETATM   16  C   UNL     1      28.731  43.280  52.798  1.00  0.00     0.013 A 
HETATM   17  C   UNL     1      28.224  44.415  53.450  1.00  0.00     0.031 A 
HETATM   18  C   UNL     1      28.787  44.878  54.650  1.00  0.00     0.048 A 
HETATM   19  C   UNL     1      29.879  44.187  55.196  1.00  0.00     0.016 A 
HETATM   20  C   UNL     1      30.378  43.047  54.569  1.00  0.00     0.002 A 
HETATM   21  C   UNL     1      29.801  42.590  53.382  1.00  0.00     0.015 A 
BRANCH  18  22
HETATM   22  C   UNL     1      28.246  46.105  55.343  1.00  0.00     0.417 C 
HETATM   23  F   UNL     1      28.516  46.142  56.676  1.00  0.00    -0.166 F 
HETATM   24  F   UNL     1      28.749  47.262  54.829  1.00  0.00    -0.166 F 
HETATM   25  F   UNL     1      26.893  46.205  55.232  1.00  0.00    -0.166 F 
ENDBRANCH  18  22
ENDBRANCH  10  16
BRANCH  12  26
HETATM   26  O   UNL     1      26.127  43.198  48.780  1.00  0.00    -0.343 OA
HETATM   27  H   UNL     1      25.386  42.568  48.746  1.00  0.00     0.219 HD
ENDBRANCH  12  26
TORSDOF 3
ENDMDL
