MODEL 1
REMARK VINA RESULT:      -9.3      0.000      0.000
REMARK  3 active torsions:
REMARK  status: ('A' for Active; 'I' for Inactive)
REMARK    1  A    between atoms: C_6  and  C_7 
REMARK       I    between atoms: C_7  and  N_8 
REMARK    2  A    between atoms: N_8  and  C_9 
REMARK    3  A    between atoms: C_14  and  C_15 
ROOT
HETATM    1  C   UNL     1      26.140  45.545  51.722  1.00  0.00     0.037 A 
HETATM    2  C   UNL     1      26.584  45.952  52.987  1.00  0.00     0.061 A 
HETATM    3  C   UNL     1      27.636  45.229  53.558  1.00  0.00     0.065 A 
HETATM    4  C   UNL     1      28.244  44.141  52.945  1.00  0.00     0.086 A 
HETATM    5  N   UNL     1      29.242  43.622  53.733  1.00  0.00    -0.226 NA
HETATM    6  C   UNL     1      29.259  44.378  54.812  1.00  0.00     0.163 A 
HETATM    7  N   UNL     1      28.306  45.359  54.747  1.00  0.00    -0.337 N 
HETATM    8  H   UNL     1      28.139  46.054  55.462  1.00  0.00     0.167 HD
HETATM    9  C   UNL     1      27.792  43.737  51.682  1.00  0.00     0.036 A 
HETATM   10  C   UNL     1      26.741  44.450  51.083  1.00  0.00     0.032 A 
ENDROOT
BRANCH   1  11
HETATM   11  N   UNL     1      25.088  46.185  51.038  1.00  0.00    -0.321 N 
HETATM   12  C   UNL     1      25.182  47.246  50.157  1.00  0.00     0.280 C 
HETATM   13  O   UNL     1      26.180  47.810  49.741  1.00  0.00    -0.265 OA
HETATM   14  H   UNL     1      24.156  45.797  51.147  1.00  0.00     0.169 HD
BRANCH  12  15
HETATM   15  C   UNL     1      23.823  47.688  49.643  1.00  0.00     0.193 A 
HETATM   16  C   UNL     1      22.843  46.691  49.051  1.00  0.00     0.280 A 
HETATM   17  N   UNL     1      21.630  47.231  48.702  1.00  0.00    -0.324 N 
HETATM   18  O   UNL     1      23.135  45.522  48.862  1.00  0.00    -0.265 OA
HETATM   19  C   UNL     1      21.354  48.571  48.825  1.00  0.00     0.033 A 
HETATM   20  H   UNL     1      20.952  46.588  48.312  1.00  0.00     0.169 HD
HETATM   21  C   UNL     1      19.985  49.007  48.386  1.00  0.00     0.070 C 
HETATM   22  C   UNL     1      22.308  49.398  49.310  1.00  0.00     0.054 A 
HETATM   23  N   UNL     1      23.558  48.969  49.715  1.00  0.00    -0.241 NA
HETATM   24  C   UNL     1      22.097  50.881  49.493  1.00  0.00     0.072 C 
ENDBRANCH  12  15
ENDBRANCH   1  11
BRANCH   6  25
HETATM   25  C   UNL     1      30.138  44.234  55.927  1.00  0.00     0.120 A 
HETATM   26  O   UNL     1      30.112  45.080  57.008  1.00  0.00    -0.319 OA
HETATM   27  C   UNL     1      31.071  44.669  57.875  1.00  0.00     0.142 A 
HETATM   28  C   UNL     1      31.724  43.565  57.383  1.00  0.00     0.027 A 
HETATM   29  C   UNL     1      31.126  43.286  56.131  1.00  0.00     0.043 A 
ENDBRANCH   6  25
TORSDOF 3
ENDMDL
MODEL 2
REMARK VINA RESULT:      -8.9      1.687      2.330
REMARK  3 active torsions:
REMARK  status: ('A' for Active; 'I' for Inactive)
REMARK    1  A    between atoms: C_6  and  C_7 
REMARK       I    between atoms: C_7  and  N_8 
REMARK    2  A    between atoms: N_8  and  C_9 
REMARK    3  A    between atoms: C_14  and  C_15 
ROOT
HETATM    1  C   UNL     1      24.618  46.125  50.155  1.00  0.00     0.037 A 
HETATM    2  C   UNL     1      25.147  46.330  51.435  1.00  0.00     0.061 A 
HETATM    3  C   UNL     1      26.211  45.509  51.826  1.00  0.00     0.065 A 
HETATM    4  C   UNL     1      26.750  44.514  51.021  1.00  0.00     0.086 A 
HETATM    5  N   UNL     1      27.778  43.864  51.659  1.00  0.00    -0.226 NA
HETATM    6  C   UNL     1      27.881  44.450  52.835  1.00  0.00     0.163 A 
HETATM    7  N   UNL     1      26.953  45.448  52.976  1.00  0.00    -0.337 N 
HETATM    8  H   UNL     1      26.849  46.031  53.795  1.00  0.00     0.167 HD
HETATM    9  C   UNL     1      26.213  44.312  49.743  1.00  0.00     0.036 A 
HETATM   10  C   UNL     1      25.149  45.127  49.324  1.00  0.00     0.032 A 
ENDROOT
BRANCH   1  11
HETATM   11  N   UNL     1      23.546  46.880  49.640  1.00  0.00    -0.321 N 
HETATM   12  C   UNL     1      23.522  48.238  49.383  1.00  0.00     0.280 C 
HETATM   13  O   UNL     1      24.424  49.053  49.486  1.00  0.00    -0.265 OA
HETATM   14  H   UNL     1      22.709  46.375  49.365  1.00  0.00     0.169 HD
BRANCH  12  15
HETATM   15  C   UNL     1      22.173  48.701  48.862  1.00  0.00     0.193 A 
HETATM   16  C   UNL     1      21.506  48.014  47.683  1.00  0.00     0.280 A 
HETATM   17  N   UNL     1      20.258  48.498  47.380  1.00  0.00    -0.324 N 
HETATM   18  O   UNL     1      22.062  47.141  47.038  1.00  0.00    -0.265 OA
HETATM   19  C   UNL     1      19.689  49.552  48.053  1.00  0.00     0.033 A 
HETATM   20  H   UNL     1      19.785  48.053  46.603  1.00  0.00     0.169 HD
HETATM   21  C   UNL     1      18.323  49.971  47.592  1.00  0.00     0.070 C 
HETATM   22  C   UNL     1      20.379  50.142  49.055  1.00  0.00     0.054 A 
HETATM   23  N   UNL     1      21.633  49.731  49.466  1.00  0.00    -0.241 NA
HETATM   24  C   UNL     1      19.837  51.298  49.860  1.00  0.00     0.072 C 
ENDBRANCH  12  15
ENDBRANCH   1  11
BRANCH   6  25
HETATM   25  C   UNL     1      28.820  44.124  53.858  1.00  0.00     0.120 A 
HETATM   26  O   UNL     1      29.150  44.994  54.870  1.00  0.00    -0.319 OA
HETATM   27  C   UNL     1      30.065  44.378  55.659  1.00  0.00     0.142 A 
HETATM   28  C   UNL     1      30.339  43.118  55.186  1.00  0.00     0.027 A 
HETATM   29  C   UNL     1      29.542  42.955  54.029  1.00  0.00     0.043 A 
ENDBRANCH   6  25
TORSDOF 3
ENDMDL
MODEL 3
REMARK VINA RESULT:      -8.8      4.505      5.541
REMARK  3 active torsions:
REMARK  status: ('A' for Active; 'I' for Inactive)
REMARK    1  A    between atoms: C_6  and  C_7 
REMARK       I    between atoms: C_7  and  N_8 
REMARK    2  A    between atoms: N_8  and  C_9 
REMARK    3  A    between atoms: C_14  and  C_15 
ROOT
HETATM    1  C   UNL     1      23.978  47.156  49.675  1.00  0.00     0.037 A 
HETATM    2  C   UNL     1      23.861  45.770  49.516  1.00  0.00     0.061 A 
HETATM    3  C   UNL     1      25.042  45.021  49.545  1.00  0.00     0.065 A 
HETATM    4  C   UNL     1      26.303  45.579  49.711  1.00  0.00     0.086 A 
HETATM    5  N   UNL     1      27.278  44.612  49.695  1.00  0.00    -0.226 NA
HETATM    6  C   UNL     1      26.635  43.474  49.529  1.00  0.00     0.163 A 
HETATM    7  N   UNL     1      25.283  43.676  49.434  1.00  0.00    -0.337 N 
HETATM    8  H   UNL     1      24.596  42.947  49.305  1.00  0.00     0.167 HD
HETATM    9  C   UNL     1      26.413  46.967  49.865  1.00  0.00     0.036 A 
HETATM   10  C   UNL     1      25.242  47.742  49.847  1.00  0.00     0.032 A 
ENDROOT
BRANCH   1  11
HETATM   11  N   UNL     1      22.870  48.025  49.664  1.00  0.00    -0.321 N 
HETATM   12  C   UNL     1      22.153  48.459  48.565  1.00  0.00     0.280 C 
HETATM   13  O   UNL     1      22.283  48.144  47.393  1.00  0.00    -0.265 OA
HETATM   14  H   UNL     1      22.505  48.329  50.562  1.00  0.00     0.169 HD
BRANCH  12  15
HETATM   15  C   UNL     1      21.042  49.420  48.945  1.00  0.00     0.193 A 
HETATM   16  C   UNL     1      21.319  50.649  49.793  1.00  0.00     0.280 A 
HETATM   17  N   UNL     1      20.228  51.459  49.988  1.00  0.00    -0.324 N 
HETATM   18  O   UNL     1      22.411  50.863  50.294  1.00  0.00    -0.265 OA
HETATM   19  C   UNL     1      18.981  51.149  49.503  1.00  0.00     0.033 A 
HETATM   20  H   UNL     1      20.385  52.291  50.543  1.00  0.00     0.169 HD
HETATM   21  C   UNL     1      17.888  52.132  49.814  1.00  0.00     0.070 C 
HETATM   22  C   UNL     1      18.812  50.003  48.805  1.00  0.00     0.054 A 
HETATM   23  N   UNL     1      19.837  49.120  48.526  1.00  0.00    -0.241 NA
HETATM   24  C   UNL     1      17.485  49.582  48.223  1.00  0.00     0.072 C 
ENDBRANCH  12  15
ENDBRANCH   1  11
BRANCH   6  25
HETATM   25  C   UNL     1      27.224  42.177  49.456  1.00  0.00     0.120 A 
HETATM   26  O   UNL     1      27.697  41.640  48.283  1.00  0.00    -0.319 OA
HETATM   27  C   UNL     1      28.182  40.405  48.563  1.00  0.00     0.142 A 
HETATM   28  C   UNL     1      28.040  40.123  49.899  1.00  0.00     0.027 A 
HETATM   29  C   UNL     1      27.424  41.260  50.473  1.00  0.00     0.043 A 
ENDBRANCH   6  25
TORSDOF 3
ENDMDL
MODEL 4
REMARK VINA RESULT:      -8.6      3.955      9.520
REMARK  3 active torsions:
REMARK  status: ('A' for Active; 'I' for Inactive)
REMARK    1  A    between atoms: C_6  and  C_7 
REMARK       I    between atoms: C_7  and  N_8 
REMARK    2  A    between atoms: N_8  and  C_9 
REMARK    3  A    between atoms: C_14  and  C_15 
ROOT
HETATM    1  C   UNL     1      26.086  45.199  49.654  1.00  0.00     0.037 A 
HETATM    2  C   UNL     1      24.710  45.392  49.480  1.00  0.00     0.061 A 
HETATM    3  C   UNL     1      24.248  46.712  49.447  1.00  0.00     0.065 A 
HETATM    4  C   UNL     1      25.074  47.820  49.585  1.00  0.00     0.086 A 
HETATM    5  N   UNL     1      24.354  48.987  49.518  1.00  0.00    -0.226 NA
HETATM    6  C   UNL     1      23.104  48.612  49.334  1.00  0.00     0.163 A 
HETATM    7  N   UNL     1      22.996  47.247  49.285  1.00  0.00    -0.337 N 
HETATM    8  H   UNL     1      22.134  46.738  49.151  1.00  0.00     0.167 HD
HETATM    9  C   UNL     1      26.449  47.620  49.763  1.00  0.00     0.036 A 
HETATM   10  C   UNL     1      26.940  46.304  49.794  1.00  0.00     0.032 A 
ENDROOT
BRANCH   1  11
HETATM   11  N   UNL     1      26.679  43.924  49.708  1.00  0.00    -0.321 N 
HETATM   12  C   UNL     1      26.489  42.947  50.668  1.00  0.00     0.280 C 
HETATM   13  O   UNL     1      25.734  42.953  51.626  1.00  0.00    -0.265 OA
HETATM   14  H   UNL     1      27.272  43.651  48.929  1.00  0.00     0.169 HD
BRANCH  12  15
HETATM   15  C   UNL     1      27.330  41.711  50.406  1.00  0.00     0.193 A 
HETATM   16  C   UNL     1      28.083  41.019  51.528  1.00  0.00     0.280 A 
HETATM   17  N   UNL     1      28.736  39.873  51.148  1.00  0.00    -0.324 N 
HETATM   18  O   UNL     1      28.136  41.477  52.658  1.00  0.00    -0.265 OA
HETATM   19  C   UNL     1      28.751  39.427  49.849  1.00  0.00     0.033 A 
HETATM   20  H   UNL     1      29.240  39.385  51.878  1.00  0.00     0.169 HD
HETATM   21  C   UNL     1      29.523  38.164  49.592  1.00  0.00     0.070 C 
HETATM   22  C   UNL     1      28.100  40.139  48.901  1.00  0.00     0.054 A 
HETATM   23  N   UNL     1      27.390  41.294  49.165  1.00  0.00    -0.241 NA
HETATM   24  C   UNL     1      28.050  39.725  47.450  1.00  0.00     0.072 C 
ENDBRANCH  12  15
ENDBRANCH   1  11
BRANCH   6  25
HETATM   25  C   UNL     1      21.977  49.477  49.195  1.00  0.00     0.120 A 
HETATM   26  O   UNL     1      20.683  49.041  49.344  1.00  0.00    -0.319 OA
HETATM   27  C   UNL     1      19.866  50.106  49.143  1.00  0.00     0.142 A 
HETATM   28  C   UNL     1      20.602  51.232  48.868  1.00  0.00     0.027 A 
HETATM   29  C   UNL     1      21.958  50.829  48.899  1.00  0.00     0.043 A 
ENDBRANCH   6  25
TORSDOF 3
ENDMDL
MODEL 5
REMARK VINA RESULT:      -8.5      2.018      3.226
REMARK  3 active torsions:
REMARK  status: ('A' for Active; 'I' for Inactive)
REMARK    1  A    between atoms: C_6  and  C_7 
REMARK       I    between atoms: C_7  and  N_8 
REMARK    2  A    between atoms: N_8  and  C_9 
REMARK    3  A    between atoms: C_14  and  C_15 
ROOT
HETATM    1  C   UNL     1      25.926  45.808  52.132  1.00  0.00     0.037 A 
HETATM    2  C   UNL     1      26.877  44.832  52.458  1.00  0.00     0.061 A 
HETATM    3  C   UNL     1      27.657  45.054  53.598  1.00  0.00     0.065 A 
HETATM    4  C   UNL     1      27.540  46.181  54.402  1.00  0.00     0.086 A 
HETATM    5  N   UNL     1      28.431  46.138  55.446  1.00  0.00    -0.226 NA
HETATM    6  C   UNL     1      29.083  45.002  55.298  1.00  0.00     0.163 A 
HETATM    7  N   UNL     1      28.646  44.318  54.195  1.00  0.00    -0.337 N 
HETATM    8  H   UNL     1      29.003  43.423  53.889  1.00  0.00     0.167 HD
HETATM    9  C   UNL     1      26.591  47.155  54.068  1.00  0.00     0.036 A 
HETATM   10  C   UNL     1      25.790  46.954  52.932  1.00  0.00     0.032 A 
ENDROOT
BRANCH   1  11
HETATM   11  N   UNL     1      25.080  45.709  51.011  1.00  0.00    -0.321 N 
HETATM   12  C   UNL     1      24.120  44.744  50.765  1.00  0.00     0.280 C 
HETATM   13  O   UNL     1      23.762  43.822  51.479  1.00  0.00    -0.265 OA
HETATM   14  H   UNL     1      25.125  46.455  50.324  1.00  0.00     0.169 HD
BRANCH  12  15
HETATM   15  C   UNL     1      23.429  44.949  49.430  1.00  0.00     0.193 A 
HETATM   16  C   UNL     1      23.130  46.341  48.902  1.00  0.00     0.280 A 
HETATM   17  N   UNL     1      22.571  46.362  47.649  1.00  0.00    -0.324 N 
HETATM   18  O   UNL     1      23.331  47.346  49.564  1.00  0.00    -0.265 OA
HETATM   19  C   UNL     1      22.257  45.216  46.960  1.00  0.00     0.033 A 
HETATM   20  H   UNL     1      22.369  47.278  47.267  1.00  0.00     0.169 HD
HETATM   21  C   UNL     1      21.637  45.408  45.605  1.00  0.00     0.070 C 
HETATM   22  C   UNL     1      22.506  44.015  47.530  1.00  0.00     0.054 A 
HETATM   23  N   UNL     1      23.085  43.866  48.776  1.00  0.00    -0.241 NA
HETATM   24  C   UNL     1      22.206  42.702  46.850  1.00  0.00     0.072 C 
ENDBRANCH  12  15
ENDBRANCH   1  11
BRANCH   6  25
HETATM   25  C   UNL     1      30.114  44.506  56.151  1.00  0.00     0.120 A 
HETATM   26  O   UNL     1      30.444  45.103  57.344  1.00  0.00    -0.319 OA
HETATM   27  C   UNL     1      31.457  44.388  57.894  1.00  0.00     0.142 A 
HETATM   28  C   UNL     1      31.794  43.330  57.086  1.00  0.00     0.027 A 
HETATM   29  C   UNL     1      30.933  43.406  55.966  1.00  0.00     0.043 A 
ENDBRANCH   6  25
TORSDOF 3
ENDMDL
MODEL 6
REMARK VINA RESULT:      -8.5      5.717      9.510
REMARK  3 active torsions:
REMARK  status: ('A' for Active; 'I' for Inactive)
REMARK    1  A    between atoms: C_6  and  C_7 
REMARK       I    between atoms: C_7  and  N_8 
REMARK    2  A    between atoms: N_8  and  C_9 
REMARK    3  A    between atoms: C_14  and  C_15 
ROOT
HETATM    1  C   UNL     1      19.661  51.070  48.268  1.00  0.00     0.037 A 
HETATM    2  C   UNL     1      20.884  51.439  48.843  1.00  0.00     0.061 A 
HETATM    3  C   UNL     1      21.967  50.573  48.656  1.00  0.00     0.065 A 
HETATM    4  C   UNL     1      21.884  49.381  47.948  1.00  0.00     0.086 A 
HETATM    5  N   UNL     1      23.094  48.732  47.928  1.00  0.00    -0.226 NA
HETATM    6  C   UNL     1      23.915  49.510  48.605  1.00  0.00     0.163 A 
HETATM    7  N   UNL     1      23.274  50.631  49.062  1.00  0.00    -0.337 N 
HETATM    8  H   UNL     1      23.707  51.366  49.603  1.00  0.00     0.167 HD
HETATM    9  C   UNL     1      20.657  49.015  47.379  1.00  0.00     0.036 A 
HETATM   10  C   UNL     1      19.556  49.871  47.546  1.00  0.00     0.032 A 
ENDROOT
BRANCH   1  11
HETATM   11  N   UNL     1      18.495  51.850  48.383  1.00  0.00    -0.321 N 
HETATM   12  C   UNL     1      17.516  51.760  49.354  1.00  0.00     0.280 C 
HETATM   13  O   UNL     1      17.479  51.042  50.339  1.00  0.00    -0.265 OA
HETATM   14  H   UNL     1      18.373  52.609  47.718  1.00  0.00     0.169 HD
BRANCH  12  15
HETATM   15  C   UNL     1      16.387  52.749  49.126  1.00  0.00     0.193 A 
HETATM   16  C   UNL     1      15.636  52.797  47.808  1.00  0.00     0.280 A 
HETATM   17  N   UNL     1      14.595  53.691  47.783  1.00  0.00    -0.324 N 
HETATM   18  O   UNL     1      15.968  52.127  46.844  1.00  0.00    -0.265 OA
HETATM   19  C   UNL     1      14.299  54.512  48.844  1.00  0.00     0.033 A 
HETATM   20  H   UNL     1      14.069  53.738  46.918  1.00  0.00     0.169 HD
HETATM   21  C   UNL     1      13.137  55.445  48.654  1.00  0.00     0.070 C 
HETATM   22  C   UNL     1      15.057  54.443  49.961  1.00  0.00     0.054 A 
HETATM   23  N   UNL     1      16.117  53.569  50.113  1.00  0.00    -0.241 NA
HETATM   24  C   UNL     1      14.806  55.294  51.182  1.00  0.00     0.072 C 
ENDBRANCH  12  15
ENDBRANCH   1  11
BRANCH   6  25
HETATM   25  C   UNL     1      25.298  49.261  48.854  1.00  0.00     0.120 A 
HETATM   26  O   UNL     1      25.734  48.364  49.798  1.00  0.00    -0.319 OA
HETATM   27  C   UNL     1      27.091  48.375  49.779  1.00  0.00     0.142 A 
HETATM   28  C   UNL     1      27.552  49.260  48.837  1.00  0.00     0.027 A 
HETATM   29  C   UNL     1      26.401  49.831  48.243  1.00  0.00     0.043 A 
ENDBRANCH   6  25
TORSDOF 3
ENDMDL
MODEL 7
REMARK VINA RESULT:      -8.4      2.584      9.712
REMARK  3 active torsions:
REMARK  status: ('A' for Active; 'I' for Inactive)
REMARK    1  A    between atoms: C_6  and  C_7 
REMARK       I    between atoms: C_7  and  N_8 
REMARK    2  A    between atoms: N_8  and  C_9 
REMARK    3  A    between atoms: C_14  and  C_15 
ROOT
HETATM    1  C   UNL     1      25.342  46.591  50.001  1.00  0.00     0.037 A 
HETATM    2  C   UNL     1      23.949  46.708  49.930  1.00  0.00     0.061 A 
HETATM    3  C   UNL     1      23.432  47.913  49.441  1.00  0.00     0.065 A 
HETATM    4  C   UNL     1      24.223  48.981  49.039  1.00  0.00     0.086 A 
HETATM    5  N   UNL     1      23.452  50.034  48.609  1.00  0.00    -0.226 NA
HETATM    6  C   UNL     1      22.206  49.624  48.735  1.00  0.00     0.163 A 
HETATM    7  N   UNL     1      22.149  48.349  49.234  1.00  0.00    -0.337 N 
HETATM    8  H   UNL     1      21.299  47.833  49.412  1.00  0.00     0.167 HD
HETATM    9  C   UNL     1      25.616  48.859  49.117  1.00  0.00     0.036 A 
HETATM   10  C   UNL     1      26.161  47.657  49.598  1.00  0.00     0.032 A 
ENDROOT
BRANCH   1  11
HETATM   11  N   UNL     1      25.990  45.434  50.476  1.00  0.00    -0.321 N 
HETATM   12  C   UNL     1      26.395  45.168  51.771  1.00  0.00     0.280 C 
HETATM   13  O   UNL     1      26.229  45.838  52.777  1.00  0.00    -0.265 OA
HETATM   14  H   UNL     1      26.130  44.673  49.817  1.00  0.00     0.169 HD
BRANCH  12  15
HETATM   15  C   UNL     1      27.093  43.826  51.891  1.00  0.00     0.193 A 
HETATM   16  C   UNL     1      26.445  42.552  51.378  1.00  0.00     0.280 A 
HETATM   17  N   UNL     1      27.232  41.433  51.490  1.00  0.00    -0.324 N 
HETATM   18  O   UNL     1      25.304  42.529  50.948  1.00  0.00    -0.265 OA
HETATM   19  C   UNL     1      28.477  41.460  52.071  1.00  0.00     0.033 A 
HETATM   20  H   UNL     1      26.830  40.570  51.147  1.00  0.00     0.169 HD
HETATM   21  C   UNL     1      29.207  40.148  52.131  1.00  0.00     0.070 C 
HETATM   22  C   UNL     1      28.953  42.630  52.554  1.00  0.00     0.054 A 
HETATM   23  N   UNL     1      28.264  43.825  52.480  1.00  0.00    -0.241 NA
HETATM   24  C   UNL     1      30.311  42.762  53.200  1.00  0.00     0.072 C 
ENDBRANCH  12  15
ENDBRANCH   1  11
BRANCH   6  25
HETATM   25  C   UNL     1      21.036  50.372  48.405  1.00  0.00     0.120 A 
HETATM   26  O   UNL     1      20.115  49.942  47.481  1.00  0.00    -0.319 OA
HETATM   27  C   UNL     1      19.140  50.883  47.406  1.00  0.00     0.142 A 
HETATM   28  C   UNL     1      19.404  51.919  48.266  1.00  0.00     0.027 A 
HETATM   29  C   UNL     1      20.622  51.593  48.907  1.00  0.00     0.043 A 
ENDBRANCH   6  25
TORSDOF 3
ENDMDL
MODEL 8
REMARK VINA RESULT:      -8.3      1.939      9.725
REMARK  3 active torsions:
REMARK  status: ('A' for Active; 'I' for Inactive)
REMARK    1  A    between atoms: C_6  and  C_7 
REMARK       I    between atoms: C_7  and  N_8 
REMARK    2  A    between atoms: N_8  and  C_9 
REMARK    3  A    between atoms: C_14  and  C_15 
ROOT
HETATM    1  C   UNL     1      25.718  45.831  51.345  1.00  0.00     0.037 A 
HETATM    2  C   UNL     1      25.051  47.061  51.270  1.00  0.00     0.061 A 
HETATM    3  C   UNL     1      24.109  47.216  50.248  1.00  0.00     0.065 A 
HETATM    4  C   UNL     1      23.815  46.229  49.316  1.00  0.00     0.086 A 
HETATM    5  N   UNL     1      22.857  46.655  48.428  1.00  0.00    -0.226 NA
HETATM    6  C   UNL     1      22.556  47.881  48.807  1.00  0.00     0.163 A 
HETATM    7  N   UNL     1      23.289  48.258  49.901  1.00  0.00    -0.337 N 
HETATM    8  H   UNL     1      23.223  49.155  50.362  1.00  0.00     0.167 HD
HETATM    9  C   UNL     1      24.488  45.003  49.394  1.00  0.00     0.036 A 
HETATM   10  C   UNL     1      25.435  44.819  50.415  1.00  0.00     0.032 A 
ENDROOT
BRANCH   1  11
HETATM   11  N   UNL     1      26.690  45.546  52.322  1.00  0.00    -0.321 N 
HETATM   12  C   UNL     1      26.554  45.637  53.695  1.00  0.00     0.280 C 
HETATM   13  O   UNL     1      25.563  45.921  54.349  1.00  0.00    -0.265 OA
HETATM   14  H   UNL     1      27.579  45.172  52.003  1.00  0.00     0.169 HD
BRANCH  12  15
HETATM   15  C   UNL     1      27.835  45.279  54.425  1.00  0.00     0.193 A 
HETATM   16  C   UNL     1      28.295  46.064  55.641  1.00  0.00     0.280 A 
HETATM   17  N   UNL     1      29.430  45.572  56.235  1.00  0.00    -0.324 N 
HETATM   18  O   UNL     1      27.723  47.073  56.020  1.00  0.00    -0.265 OA
HETATM   19  C   UNL     1      30.120  44.495  55.734  1.00  0.00     0.033 A 
HETATM   20  H   UNL     1      29.756  46.071  57.054  1.00  0.00     0.169 HD
HETATM   21  C   UNL     1      31.352  44.088  56.492  1.00  0.00     0.070 C 
HETATM   22  C   UNL     1      29.670  43.890  54.611  1.00  0.00     0.054 A 
HETATM   23  N   UNL     1      28.529  44.280  53.938  1.00  0.00    -0.241 NA
HETATM   24  C   UNL     1      30.352  42.695  53.990  1.00  0.00     0.072 C 
ENDBRANCH  12  15
ENDBRANCH   1  11
BRANCH   6  25
HETATM   25  C   UNL     1      21.597  48.740  48.191  1.00  0.00     0.120 A 
HETATM   26  O   UNL     1      20.346  48.313  47.819  1.00  0.00    -0.319 OA
HETATM   27  C   UNL     1      19.699  49.369  47.265  1.00  0.00     0.142 A 
HETATM   28  C   UNL     1      20.503  50.482  47.271  1.00  0.00     0.027 A 
HETATM   29  C   UNL     1      21.723  50.079  47.864  1.00  0.00     0.043 A 
ENDBRANCH   6  25
TORSDOF 3
ENDMDL
MODEL 9
REMARK VINA RESULT:      -8.2      2.421      9.643
REMARK  3 active torsions:
REMARK  status: ('A' for Active; 'I' for Inactive)
REMARK    1  A    between atoms: C_6  and  C_7 
REMARK       I    between atoms: C_7  and  N_8 
REMARK    2  A    between atoms: N_8  and  C_9 
REMARK    3  A    between atoms: C_14  and  C_15 
ROOT
HETATM    1  C   UNL     1      26.058  45.671  51.782  1.00  0.00     0.037 A 
HETATM    2  C   UNL     1      25.029  44.838  51.327  1.00  0.00     0.061 A 
HETATM    3  C   UNL     1      24.147  45.369  50.379  1.00  0.00     0.065 A 
HETATM    4  C   UNL     1      24.240  46.663  49.884  1.00  0.00     0.086 A 
HETATM    5  N   UNL     1      23.244  46.916  48.972  1.00  0.00    -0.226 NA
HETATM    6  C   UNL     1      22.551  45.798  48.897  1.00  0.00     0.163 A 
HETATM    7  N   UNL     1      23.063  44.839  49.730  1.00  0.00    -0.337 N 
HETATM    8  H   UNL     1      22.693  43.904  49.835  1.00  0.00     0.167 HD
HETATM    9  C   UNL     1      25.269  47.493  50.346  1.00  0.00     0.036 A 
HETATM   10  C   UNL     1      26.172  46.982  51.293  1.00  0.00     0.032 A 
ENDROOT
BRANCH   1  11
HETATM   11  N   UNL     1      27.010  45.262  52.735  1.00  0.00    -0.321 N 
HETATM   12  C   UNL     1      27.041  45.575  54.081  1.00  0.00     0.280 C 
HETATM   13  O   UNL     1      26.233  46.213  54.737  1.00  0.00    -0.265 OA
HETATM   14  H   UNL     1      27.730  44.613  52.429  1.00  0.00     0.169 HD
BRANCH  12  15
HETATM   15  C   UNL     1      28.245  44.976  54.785  1.00  0.00     0.193 A 
HETATM   16  C   UNL     1      28.841  43.654  54.336  1.00  0.00     0.280 A 
HETATM   17  N   UNL     1      29.971  43.282  55.021  1.00  0.00    -0.324 N 
HETATM   18  O   UNL     1      28.325  42.965  53.471  1.00  0.00    -0.265 OA
HETATM   19  C   UNL     1      30.481  44.019  56.062  1.00  0.00     0.033 A 
HETATM   20  H   UNL     1      30.397  42.408  54.737  1.00  0.00     0.169 HD
HETATM   21  C   UNL     1      31.715  43.470  56.719  1.00  0.00     0.070 C 
HETATM   22  C   UNL     1      29.851  45.157  56.433  1.00  0.00     0.054 A 
HETATM   23  N   UNL     1      28.720  45.644  55.807  1.00  0.00    -0.241 NA
HETATM   24  C   UNL     1      30.339  46.039  57.557  1.00  0.00     0.072 C 
ENDBRANCH  12  15
ENDBRANCH   1  11
BRANCH   6  25
HETATM   25  C   UNL     1      21.412  45.567  48.069  1.00  0.00     0.120 A 
HETATM   26  O   UNL     1      20.311  44.867  48.497  1.00  0.00    -0.319 OA
HETATM   27  C   UNL     1      19.424  44.829  47.471  1.00  0.00     0.142 A 
HETATM   28  C   UNL     1      19.922  45.496  46.379  1.00  0.00     0.027 A 
HETATM   29  C   UNL     1      21.200  45.969  46.761  1.00  0.00     0.043 A 
ENDBRANCH   6  25
TORSDOF 3
ENDMDL
MODEL 10
REMARK VINA RESULT:      -7.9     11.903     12.950
REMARK  3 active torsions:
REMARK  status: ('A' for Active; 'I' for Inactive)
REMARK    1  A    between atoms: C_6  and  C_7 
REMARK       I    between atoms: C_7  and  N_8 
REMARK    2  A    between atoms: N_8  and  C_9 
REMARK    3  A    between atoms: C_14  and  C_15 
ROOT
HETATM    1  C   UNL     1      32.397  50.580  41.854  1.00  0.00     0.037 A 
HETATM    2  C   UNL     1      32.769  51.181  43.063  1.00  0.00     0.061 A 
HETATM    3  C   UNL     1      34.107  51.562  43.203  1.00  0.00     0.065 A 
HETATM    4  C   UNL     1      35.069  51.368  42.220  1.00  0.00     0.086 A 
HETATM    5  N   UNL     1      36.296  51.833  42.628  1.00  0.00    -0.226 NA
HETATM    6  C   UNL     1      36.097  52.313  43.839  1.00  0.00     0.163 A 
HETATM    7  N   UNL     1      34.791  52.170  44.224  1.00  0.00    -0.337 N 
HETATM    8  H   UNL     1      34.412  52.467  45.112  1.00  0.00     0.167 HD
HETATM    9  C   UNL     1      34.692  50.763  41.014  1.00  0.00     0.036 A 
HETATM   10  C   UNL     1      33.352  50.376  40.845  1.00  0.00     0.032 A 
ENDROOT
BRANCH   1  11
HETATM   11  N   UNL     1      31.084  50.148  41.585  1.00  0.00    -0.321 N 
HETATM   12  C   UNL     1      30.379  49.150  42.230  1.00  0.00     0.280 C 
HETATM   13  O   UNL     1      30.711  48.479  43.194  1.00  0.00    -0.265 OA
HETATM   14  H   UNL     1      30.560  50.657  40.879  1.00  0.00     0.169 HD
BRANCH  12  15
HETATM   15  C   UNL     1      28.997  48.945  41.636  1.00  0.00     0.193 A 
HETATM   16  C   UNL     1      28.055  50.114  41.414  1.00  0.00     0.280 A 
HETATM   17  N   UNL     1      26.874  49.779  40.799  1.00  0.00    -0.324 N 
HETATM   18  O   UNL     1      28.314  51.243  41.795  1.00  0.00    -0.265 OA
HETATM   19  C   UNL     1      26.553  48.484  40.469  1.00  0.00     0.033 A 
HETATM   20  H   UNL     1      26.228  50.540  40.630  1.00  0.00     0.169 HD
HETATM   21  C   UNL     1      25.217  48.280  39.815  1.00  0.00     0.070 C 
HETATM   22  C   UNL     1      27.430  47.495  40.756  1.00  0.00     0.054 A 
HETATM   23  N   UNL     1      28.658  47.711  41.352  1.00  0.00    -0.241 NA
HETATM   24  C   UNL     1      27.174  46.045  40.424  1.00  0.00     0.072 C 
ENDBRANCH  12  15
ENDBRANCH   1  11
BRANCH   6  25
HETATM   25  C   UNL     1      37.083  52.916  44.677  1.00  0.00     0.120 A 
HETATM   26  O   UNL     1      37.849  52.197  45.562  1.00  0.00    -0.319 OA
HETATM   27  C   UNL     1      38.671  53.068  46.196  1.00  0.00     0.142 A 
HETATM   28  C   UNL     1      38.462  54.347  45.741  1.00  0.00     0.027 A 
HETATM   29  C   UNL     1      37.441  54.251  44.767  1.00  0.00     0.043 A 
ENDBRANCH   6  25
TORSDOF 3
ENDMDL
