MODEL 1
REMARK VINA RESULT:      -9.3      0.000      0.000
REMARK  8 active torsions:
REMARK  status: ('A' for Active; 'I' for Inactive)
REMARK    1  A    between atoms: O_2  and  C_3 
REMARK    2  A    between atoms: C_5  and  N_6 
REMARK    3  A    between atoms: N_6  and  C_7 
REMARK    4  A    between atoms: C_9  and  N_10 
REMARK    5  A    between atoms: C_12  and  C_13 
REMARK    6  A    between atoms: C_13  and  N_14 
REMARK    7  A    between atoms: N_18  and  C_19 
REMARK    8  A    between atoms: C_29  and  O_30 
ROOT
HETATM    1  C   UNL     1      26.417  45.162  52.052  1.00  0.00     0.731 A 
HETATM    2  N   UNL     1      26.746  44.197  51.202  1.00  0.00    -0.031 NA
HETATM    3  C   UNL     1      26.632  44.462  49.916  1.00  0.00     0.219 A 
HETATM    4  N   UNL     1      26.284  45.638  49.422  1.00  0.00    -0.200 NA
HETATM    5  C   UNL     1      26.002  46.566  50.334  1.00  0.00     0.174 A 
HETATM    6  N   UNL     1      26.061  46.383  51.653  1.00  0.00    -0.045 NA
ENDROOT
BRANCH   5   7
HETATM    7  C   UNL     1      25.908  47.996  49.840  1.00  0.00     0.316 C 
BRANCH   7   8
HETATM    8  N   UNL     1      24.725  48.288  48.888  1.00  0.00    -0.061 N 
HETATM    9  H   UNL     1      25.019  47.912  47.978  1.00  0.00     0.280 HD
HETATM   10  C   UNL     1      23.453  47.555  49.305  1.00  0.00     0.255 C 
HETATM   11  C   UNL     1      22.321  47.821  48.281  1.00  0.00     0.152 C 
HETATM   12  N   UNL     1      22.114  49.266  48.006  1.00  0.00    -0.364 N 
HETATM   13  C   UNL     1      23.348  50.022  47.677  1.00  0.00     0.152 C 
HETATM   14  C   UNL     1      24.469  49.783  48.720  1.00  0.00     0.255 C 
BRANCH  12  15
HETATM   15  C   UNL     1      21.096  49.952  48.643  1.00  0.00     0.102 A 
HETATM   16  N   UNL     1      20.430  49.309  49.621  1.00  0.00    -0.352 N 
HETATM   17  H   UNL     1      20.746  48.373  49.861  1.00  0.00     0.166 HD
HETATM   18  C   UNL     1      19.437  49.855  50.341  1.00  0.00     0.089 A 
HETATM   19  C   UNL     1      19.044  51.161  50.098  1.00  0.00     0.017 A 
HETATM   20  C   UNL     1      19.706  51.882  49.115  1.00  0.00     0.005 A 
HETATM   21  C   UNL     1      20.739  51.283  48.392  1.00  0.00     0.048 A 
ENDBRANCH  12  15
ENDBRANCH   7   8
ENDBRANCH   5   7
BRANCH   3  22
HETATM   22  N   UNL     1      26.958  43.464  49.024  1.00  0.00    -0.270 NA
HETATM   23  H   UNL     1      27.542  43.848  48.287  1.00  0.00     0.127 HD
HETATM   24  H   UNL     1      27.355  42.661  49.493  1.00  0.00     0.127 HD
ENDBRANCH   3  22
BRANCH   1  25
HETATM   25  N   UNL     1      26.461  44.956  53.425  1.00  0.00    -0.185 N 
HETATM   26  H   UNL     1      25.823  44.225  53.721  1.00  0.00     0.184 HD
BRANCH  25  27
HETATM   27  C   UNL     1      27.519  45.148  54.340  1.00  0.00     0.085 A 
HETATM   28  C   UNL     1      28.569  44.229  54.467  1.00  0.00     0.069 A 
HETATM   29  C   UNL     1      29.622  44.449  55.359  1.00  0.00     0.070 A 
HETATM   30  C   UNL     1      29.618  45.596  56.148  1.00  0.00     0.039 A 
HETATM   31  C   UNL     1      28.574  46.522  56.043  1.00  0.00     0.042 A 
HETATM   32  C   UNL     1      27.526  46.305  55.146  1.00  0.00     0.095 A 
BRANCH  29  33
HETATM   33  O   UNL     1      30.586  43.478  55.349  1.00  0.00    -0.356 OA
HETATM   34  C   UNL     1      31.418  43.386  56.500  1.00  0.00     0.210 C 
ENDBRANCH  29  33
BRANCH  32  35
HETATM   35  O   UNL     1      26.454  47.150  54.962  1.00  0.00    -0.354 OA
HETATM   36  C   UNL     1      26.521  48.410  55.627  1.00  0.00     0.210 C 
ENDBRANCH  32  35
ENDBRANCH  25  27
ENDBRANCH   1  25
TORSDOF 8
ENDMDL
MODEL 2
REMARK VINA RESULT:      -9.1      3.251      9.643
REMARK  8 active torsions:
REMARK  status: ('A' for Active; 'I' for Inactive)
REMARK    1  A    between atoms: O_2  and  C_3 
REMARK    2  A    between atoms: C_5  and  N_6 
REMARK    3  A    between atoms: N_6  and  C_7 
REMARK    4  A    between atoms: C_9  and  N_10 
REMARK    5  A    between atoms: C_12  and  C_13 
REMARK    6  A    between atoms: C_13  and  N_14 
REMARK    7  A    between atoms: N_18  and  C_19 
REMARK    8  A    between atoms: C_29  and  O_30 
ROOT
HETATM    1  C   UNL     1      22.796  46.504  48.715  1.00  0.00     0.731 A 
HETATM    2  N   UNL     1      22.309  45.273  48.611  1.00  0.00    -0.031 NA
HETATM    3  C   UNL     1      22.908  44.327  49.308  1.00  0.00     0.219 A 
HETATM    4  N   UNL     1      23.904  44.536  50.151  1.00  0.00    -0.200 NA
HETATM    5  C   UNL     1      24.315  45.800  50.228  1.00  0.00     0.174 A 
HETATM    6  N   UNL     1      23.792  46.816  49.543  1.00  0.00    -0.045 NA
ENDROOT
BRANCH   5   7
HETATM    7  C   UNL     1      25.223  46.149  51.392  1.00  0.00     0.316 C 
BRANCH   7   8
HETATM    8  N   UNL     1      25.787  44.938  52.173  1.00  0.00    -0.061 N 
HETATM    9  H   UNL     1      25.132  44.170  51.979  1.00  0.00     0.280 HD
HETATM   10  C   UNL     1      27.164  44.515  51.668  1.00  0.00     0.255 C 
HETATM   11  C   UNL     1      27.651  43.258  52.430  1.00  0.00     0.152 C 
HETATM   12  N   UNL     1      27.578  43.408  53.906  1.00  0.00    -0.364 N 
HETATM   13  C   UNL     1      26.274  43.898  54.419  1.00  0.00     0.152 C 
HETATM   14  C   UNL     1      25.802  45.175  53.680  1.00  0.00     0.255 C 
BRANCH  12  15
HETATM   15  C   UNL     1      28.712  43.741  54.624  1.00  0.00     0.102 A 
HETATM   16  N   UNL     1      28.739  44.949  55.219  1.00  0.00    -0.352 N 
HETATM   17  H   UNL     1      27.905  45.525  55.140  1.00  0.00     0.166 HD
HETATM   18  C   UNL     1      29.760  45.397  55.967  1.00  0.00     0.089 A 
HETATM   19  C   UNL     1      30.874  44.597  56.167  1.00  0.00     0.017 A 
HETATM   20  C   UNL     1      30.896  43.334  55.595  1.00  0.00     0.005 A 
HETATM   21  C   UNL     1      29.813  42.899  54.831  1.00  0.00     0.048 A 
ENDBRANCH  12  15
ENDBRANCH   7   8
ENDBRANCH   5   7
BRANCH   3  22
HETATM   22  N   UNL     1      22.421  43.043  49.198  1.00  0.00    -0.270 NA
HETATM   23  H   UNL     1      22.492  42.738  48.231  1.00  0.00     0.127 HD
HETATM   24  H   UNL     1      22.857  42.421  49.864  1.00  0.00     0.127 HD
ENDBRANCH   3  22
BRANCH   1  25
HETATM   25  N   UNL     1      22.258  47.553  47.981  1.00  0.00    -0.185 N 
HETATM   26  H   UNL     1      21.867  47.239  47.099  1.00  0.00     0.184 HD
BRANCH  25  27
HETATM   27  C   UNL     1      21.692  48.771  48.416  1.00  0.00     0.085 A 
HETATM   28  C   UNL     1      20.527  48.816  49.191  1.00  0.00     0.069 A 
HETATM   29  C   UNL     1      19.996  50.029  49.635  1.00  0.00     0.070 A 
HETATM   30  C   UNL     1      20.629  51.219  49.284  1.00  0.00     0.039 A 
HETATM   31  C   UNL     1      21.790  51.196  48.502  1.00  0.00     0.042 A 
HETATM   32  C   UNL     1      22.323  49.982  48.065  1.00  0.00     0.095 A 
BRANCH  29  33
HETATM   33  O   UNL     1      18.873  49.909  50.407  1.00  0.00    -0.356 OA
HETATM   34  C   UNL     1      18.607  48.626  50.962  1.00  0.00     0.210 C 
ENDBRANCH  29  33
BRANCH  32  35
HETATM   35  O   UNL     1      23.457  49.848  47.296  1.00  0.00    -0.354 OA
HETATM   36  C   UNL     1      24.698  50.116  47.945  1.00  0.00     0.210 C 
ENDBRANCH  32  35
ENDBRANCH  25  27
ENDBRANCH   1  25
TORSDOF 8
ENDMDL
MODEL 3
REMARK VINA RESULT:      -8.9      2.621      4.140
REMARK  8 active torsions:
REMARK  status: ('A' for Active; 'I' for Inactive)
REMARK    1  A    between atoms: O_2  and  C_3 
REMARK    2  A    between atoms: C_5  and  N_6 
REMARK    3  A    between atoms: N_6  and  C_7 
REMARK    4  A    between atoms: C_9  and  N_10 
REMARK    5  A    between atoms: C_12  and  C_13 
REMARK    6  A    between atoms: C_13  and  N_14 
REMARK    7  A    between atoms: N_18  and  C_19 
REMARK    8  A    between atoms: C_29  and  O_30 
ROOT
HETATM    1  C   UNL     1      27.761  41.589  52.297  1.00  0.00     0.731 A 
HETATM    2  N   UNL     1      28.517  40.603  51.828  1.00  0.00    -0.031 NA
HETATM    3  C   UNL     1      28.427  40.335  50.540  1.00  0.00     0.219 A 
HETATM    4  N   UNL     1      27.697  41.025  49.682  1.00  0.00    -0.200 NA
HETATM    5  C   UNL     1      26.993  42.019  50.219  1.00  0.00     0.174 A 
HETATM    6  N   UNL     1      26.997  42.347  51.510  1.00  0.00    -0.045 NA
ENDROOT
BRANCH   5   7
HETATM    7  C   UNL     1      26.396  43.026  49.255  1.00  0.00     0.316 C 
BRANCH   7   8
HETATM    8  N   UNL     1      25.749  44.267  49.915  1.00  0.00    -0.061 N 
HETATM    9  H   UNL     1      25.367  43.924  50.805  1.00  0.00     0.280 HD
HETATM   10  C   UNL     1      26.774  45.351  50.235  1.00  0.00     0.255 C 
HETATM   11  C   UNL     1      26.091  46.538  50.959  1.00  0.00     0.152 C 
HETATM   12  N   UNL     1      24.892  47.043  50.242  1.00  0.00    -0.364 N 
HETATM   13  C   UNL     1      23.915  45.998  49.845  1.00  0.00     0.152 C 
HETATM   14  C   UNL     1      24.594  44.828  49.091  1.00  0.00     0.255 C 
BRANCH  12  15
HETATM   15  C   UNL     1      24.989  48.165  49.438  1.00  0.00     0.102 A 
HETATM   16  N   UNL     1      26.222  48.641  49.181  1.00  0.00    -0.352 N 
HETATM   17  H   UNL     1      27.010  48.120  49.559  1.00  0.00     0.166 HD
HETATM   18  C   UNL     1      26.471  49.704  48.400  1.00  0.00     0.089 A 
HETATM   19  C   UNL     1      25.423  50.381  47.798  1.00  0.00     0.017 A 
HETATM   20  C   UNL     1      24.130  49.926  48.010  1.00  0.00     0.005 A 
HETATM   21  C   UNL     1      23.910  48.812  48.822  1.00  0.00     0.048 A 
ENDBRANCH  12  15
ENDBRANCH   7   8
ENDBRANCH   5   7
BRANCH   3  22
HETATM   22  N   UNL     1      29.197  39.305  50.045  1.00  0.00    -0.270 NA
HETATM   23  H   UNL     1      30.063  39.682  49.669  1.00  0.00     0.127 HD
HETATM   24  H   UNL     1      29.325  38.573  50.730  1.00  0.00     0.127 HD
ENDBRANCH   3  22
BRANCH   1  25
HETATM   25  N   UNL     1      27.755  41.909  53.648  1.00  0.00    -0.185 N 
HETATM   26  H   UNL     1      27.734  41.082  54.236  1.00  0.00     0.184 HD
BRANCH  25  27
HETATM   27  C   UNL     1      28.290  43.030  54.319  1.00  0.00     0.085 A 
HETATM   28  C   UNL     1      29.593  43.039  54.834  1.00  0.00     0.069 A 
HETATM   29  C   UNL     1      30.115  44.167  55.472  1.00  0.00     0.070 A 
HETATM   30  C   UNL     1      29.317  45.299  55.613  1.00  0.00     0.039 A 
HETATM   31  C   UNL     1      28.009  45.308  55.115  1.00  0.00     0.042 A 
HETATM   32  C   UNL     1      27.491  44.182  54.471  1.00  0.00     0.095 A 
BRANCH  29  33
HETATM   33  O   UNL     1      31.409  44.032  55.893  1.00  0.00    -0.356 OA
HETATM   34  C   UNL     1      31.621  43.304  57.098  1.00  0.00     0.210 C 
ENDBRANCH  29  33
BRANCH  32  35
HETATM   35  O   UNL     1      26.223  44.086  53.944  1.00  0.00    -0.354 OA
HETATM   36  C   UNL     1      25.314  45.130  54.287  1.00  0.00     0.210 C 
ENDBRANCH  32  35
ENDBRANCH  25  27
ENDBRANCH   1  25
TORSDOF 8
ENDMDL
MODEL 4
REMARK VINA RESULT:      -8.9      3.084      9.895
REMARK  8 active torsions:
REMARK  status: ('A' for Active; 'I' for Inactive)
REMARK    1  A    between atoms: O_2  and  C_3 
REMARK    2  A    between atoms: C_5  and  N_6 
REMARK    3  A    between atoms: N_6  and  C_7 
REMARK    4  A    between atoms: C_9  and  N_10 
REMARK    5  A    between atoms: C_12  and  C_13 
REMARK    6  A    between atoms: C_13  and  N_14 
REMARK    7  A    between atoms: N_18  and  C_19 
REMARK    8  A    between atoms: C_29  and  O_30 
ROOT
HETATM    1  C   UNL     1      24.207  48.223  49.554  1.00  0.00     0.731 A 
HETATM    2  N   UNL     1      24.908  49.205  48.999  1.00  0.00    -0.031 NA
HETATM    3  C   UNL     1      26.204  49.015  48.856  1.00  0.00     0.219 A 
HETATM    4  N   UNL     1      26.833  47.892  49.158  1.00  0.00    -0.200 NA
HETATM    5  C   UNL     1      26.061  46.941  49.677  1.00  0.00     0.174 A 
HETATM    6  N   UNL     1      24.749  47.051  49.886  1.00  0.00    -0.045 NA
ENDROOT
BRANCH   5   7
HETATM    7  C   UNL     1      26.654  45.547  49.745  1.00  0.00     0.316 C 
BRANCH   7   8
HETATM    8  N   UNL     1      26.542  44.849  51.121  1.00  0.00    -0.061 N 
HETATM    9  H   UNL     1      25.582  44.485  51.155  1.00  0.00     0.280 HD
HETATM   10  C   UNL     1      27.495  43.665  51.248  1.00  0.00     0.255 C 
HETATM   11  C   UNL     1      27.292  42.958  52.611  1.00  0.00     0.152 C 
HETATM   12  N   UNL     1      27.346  43.892  53.765  1.00  0.00    -0.364 N 
HETATM   13  C   UNL     1      26.490  45.097  53.632  1.00  0.00     0.152 C 
HETATM   14  C   UNL     1      26.717  45.824  52.282  1.00  0.00     0.255 C 
BRANCH  12  15
HETATM   15  C   UNL     1      28.510  44.015  54.502  1.00  0.00     0.102 A 
HETATM   16  N   UNL     1      28.661  45.128  55.245  1.00  0.00    -0.352 N 
HETATM   17  H   UNL     1      27.890  45.790  55.253  1.00  0.00     0.166 HD
HETATM   18  C   UNL     1      29.724  45.372  56.027  1.00  0.00     0.089 A 
HETATM   19  C   UNL     1      30.751  44.446  56.107  1.00  0.00     0.017 A 
HETATM   20  C   UNL     1      30.645  43.270  55.379  1.00  0.00     0.005 A 
HETATM   21  C   UNL     1      29.521  43.047  54.582  1.00  0.00     0.048 A 
ENDBRANCH  12  15
ENDBRANCH   7   8
ENDBRANCH   5   7
BRANCH   3  22
HETATM   22  N   UNL     1      26.943  50.033  48.294  1.00  0.00    -0.270 NA
HETATM   23  H   UNL     1      27.933  49.817  48.378  1.00  0.00     0.127 HD
HETATM   24  H   UNL     1      26.640  50.236  47.351  1.00  0.00     0.127 HD
ENDBRANCH   3  22
BRANCH   1  25
HETATM   25  N   UNL     1      22.845  48.355  49.788  1.00  0.00    -0.185 N 
HETATM   26  H   UNL     1      22.637  48.471  50.774  1.00  0.00     0.184 HD
BRANCH  25  27
HETATM   27  C   UNL     1      21.827  48.875  48.959  1.00  0.00     0.085 A 
HETATM   28  C   UNL     1      21.406  50.208  49.045  1.00  0.00     0.069 A 
HETATM   29  C   UNL     1      20.415  50.712  48.199  1.00  0.00     0.070 A 
HETATM   30  C   UNL     1      19.823  49.867  47.263  1.00  0.00     0.039 A 
HETATM   31  C   UNL     1      20.222  48.530  47.168  1.00  0.00     0.042 A 
HETATM   32  C   UNL     1      21.218  48.029  48.010  1.00  0.00     0.095 A 
BRANCH  29  33
HETATM   33  O   UNL     1      20.133  52.038  48.382  1.00  0.00    -0.356 OA
HETATM   34  C   UNL     1      18.851  52.357  48.913  1.00  0.00     0.210 C 
ENDBRANCH  29  33
BRANCH  32  35
HETATM   35  O   UNL     1      21.685  46.733  47.999  1.00  0.00    -0.354 OA
HETATM   36  C   UNL     1      20.791  45.742  47.496  1.00  0.00     0.210 C 
ENDBRANCH  32  35
ENDBRANCH  25  27
ENDBRANCH   1  25
TORSDOF 8
ENDMDL
MODEL 5
REMARK VINA RESULT:      -8.8      1.438      2.437
REMARK  8 active torsions:
REMARK  status: ('A' for Active; 'I' for Inactive)
REMARK    1  A    between atoms: O_2  and  C_3 
REMARK    2  A    between atoms: C_5  and  N_6 
REMARK    3  A    between atoms: N_6  and  C_7 
REMARK    4  A    between atoms: C_9  and  N_10 
REMARK    5  A    between atoms: C_12  and  C_13 
REMARK    6  A    between atoms: C_13  and  N_14 
REMARK    7  A    between atoms: N_18  and  C_19 
REMARK    8  A    between atoms: C_29  and  O_30 
ROOT
HETATM    1  C   UNL     1      26.643  44.223  51.970  1.00  0.00     0.731 A 
HETATM    2  N   UNL     1      26.822  43.413  50.933  1.00  0.00    -0.031 NA
HETATM    3  C   UNL     1      26.538  43.891  49.738  1.00  0.00     0.219 A 
HETATM    4  N   UNL     1      26.160  45.135  49.502  1.00  0.00    -0.200 NA
HETATM    5  C   UNL     1      26.035  45.898  50.586  1.00  0.00     0.174 A 
HETATM    6  N   UNL     1      26.272  45.496  51.833  1.00  0.00    -0.045 NA
ENDROOT
BRANCH   5   7
HETATM    7  C   UNL     1      25.916  47.392  50.354  1.00  0.00     0.316 C 
BRANCH   7   8
HETATM    8  N   UNL     1      24.904  47.811  49.261  1.00  0.00    -0.061 N 
HETATM    9  H   UNL     1      25.257  47.383  48.397  1.00  0.00     0.280 HD
HETATM   10  C   UNL     1      23.508  47.253  49.522  1.00  0.00     0.255 C 
HETATM   11  C   UNL     1      22.553  47.638  48.365  1.00  0.00     0.152 C 
HETATM   12  N   UNL     1      22.567  49.091  48.059  1.00  0.00    -0.364 N 
HETATM   13  C   UNL     1      23.918  49.679  47.882  1.00  0.00     0.152 C 
HETATM   14  C   UNL     1      24.864  49.323  49.056  1.00  0.00     0.255 C 
BRANCH  12  15
HETATM   15  C   UNL     1      21.574  49.913  48.563  1.00  0.00     0.102 A 
HETATM   16  N   UNL     1      21.233  49.756  49.856  1.00  0.00    -0.352 N 
HETATM   17  H   UNL     1      21.757  49.072  50.395  1.00  0.00     0.166 HD
HETATM   18  C   UNL     1      20.307  50.497  50.485  1.00  0.00     0.089 A 
HETATM   19  C   UNL     1      19.639  51.498  49.800  1.00  0.00     0.017 A 
HETATM   20  C   UNL     1      19.960  51.721  48.469  1.00  0.00     0.005 A 
HETATM   21  C   UNL     1      20.935  50.936  47.850  1.00  0.00     0.048 A 
ENDBRANCH  12  15
ENDBRANCH   7   8
ENDBRANCH   5   7
BRANCH   3  22
HETATM   22  N   UNL     1      26.707  43.056  48.656  1.00  0.00    -0.270 NA
HETATM   23  H   UNL     1      27.639  43.185  48.273  1.00  0.00     0.127 HD
HETATM   24  H   UNL     1      26.480  42.098  48.887  1.00  0.00     0.127 HD
ENDBRANCH   3  22
BRANCH   1  25
HETATM   25  N   UNL     1      26.873  43.788  53.269  1.00  0.00    -0.185 N 
HETATM   26  H   UNL     1      26.220  43.063  53.549  1.00  0.00     0.184 HD
BRANCH  25  27
HETATM   27  C   UNL     1      28.068  43.752  54.018  1.00  0.00     0.085 A 
HETATM   28  C   UNL     1      28.562  44.880  54.688  1.00  0.00     0.069 A 
HETATM   29  C   UNL     1      29.734  44.818  55.446  1.00  0.00     0.070 A 
HETATM   30  C   UNL     1      30.433  43.617  55.524  1.00  0.00     0.039 A 
HETATM   31  C   UNL     1      29.962  42.481  54.855  1.00  0.00     0.042 A 
HETATM   32  C   UNL     1      28.787  42.542  54.103  1.00  0.00     0.095 A 
BRANCH  29  33
HETATM   33  O   UNL     1      30.072  45.991  56.064  1.00  0.00    -0.356 OA
HETATM   34  C   UNL     1      29.795  46.089  57.457  1.00  0.00     0.210 C 
ENDBRANCH  29  33
BRANCH  32  35
HETATM   35  O   UNL     1      28.236  41.487  53.410  1.00  0.00    -0.354 OA
HETATM   36  C   UNL     1      28.992  40.992  52.306  1.00  0.00     0.210 C 
ENDBRANCH  32  35
ENDBRANCH  25  27
ENDBRANCH   1  25
TORSDOF 8
ENDMDL
MODEL 6
REMARK VINA RESULT:      -8.8      2.044      3.448
REMARK  8 active torsions:
REMARK  status: ('A' for Active; 'I' for Inactive)
REMARK    1  A    between atoms: O_2  and  C_3 
REMARK    2  A    between atoms: C_5  and  N_6 
REMARK    3  A    between atoms: N_6  and  C_7 
REMARK    4  A    between atoms: C_9  and  N_10 
REMARK    5  A    between atoms: C_12  and  C_13 
REMARK    6  A    between atoms: C_13  and  N_14 
REMARK    7  A    between atoms: N_18  and  C_19 
REMARK    8  A    between atoms: C_29  and  O_30 
ROOT
HETATM    1  C   UNL     1      25.304  47.530  50.828  1.00  0.00     0.731 A 
HETATM    2  N   UNL     1      26.496  47.985  50.461  1.00  0.00    -0.031 NA
HETATM    3  C   UNL     1      26.560  48.672  49.338  1.00  0.00     0.219 A 
HETATM    4  N   UNL     1      25.513  48.997  48.599  1.00  0.00    -0.200 NA
HETATM    5  C   UNL     1      24.347  48.535  49.048  1.00  0.00     0.174 A 
HETATM    6  N   UNL     1      24.188  47.810  50.154  1.00  0.00    -0.045 NA
ENDROOT
BRANCH   5   7
HETATM    7  C   UNL     1      23.098  49.132  48.430  1.00  0.00     0.316 C 
BRANCH   7   8
HETATM    8  N   UNL     1      21.908  49.320  49.401  1.00  0.00    -0.061 N 
HETATM    9  H   UNL     1      22.212  48.881  50.279  1.00  0.00     0.280 HD
HETATM   10  C   UNL     1      21.624  50.792  49.688  1.00  0.00     0.255 C 
HETATM   11  C   UNL     1      20.476  50.924  50.719  1.00  0.00     0.152 C 
HETATM   12  N   UNL     1      19.267  50.145  50.346  1.00  0.00    -0.364 N 
HETATM   13  C   UNL     1      19.524  48.730  49.981  1.00  0.00     0.152 C 
HETATM   14  C   UNL     1      20.650  48.599  48.924  1.00  0.00     0.255 C 
BRANCH  12  15
HETATM   15  C   UNL     1      18.198  50.778  49.736  1.00  0.00     0.102 A 
HETATM   16  N   UNL     1      17.353  50.016  49.017  1.00  0.00    -0.352 N 
HETATM   17  H   UNL     1      17.528  49.014  49.002  1.00  0.00     0.166 HD
HETATM   18  C   UNL     1      16.262  50.485  48.391  1.00  0.00     0.089 A 
HETATM   19  C   UNL     1      15.948  51.832  48.467  1.00  0.00     0.017 A 
HETATM   20  C   UNL     1      16.771  52.666  49.210  1.00  0.00     0.005 A 
HETATM   21  C   UNL     1      17.892  52.140  49.854  1.00  0.00     0.048 A 
ENDBRANCH  12  15
ENDBRANCH   7   8
ENDBRANCH   5   7
BRANCH   3  22
HETATM   22  N   UNL     1      27.794  49.137  48.939  1.00  0.00    -0.270 NA
HETATM   23  H   UNL     1      27.735  49.473  47.982  1.00  0.00     0.127 HD
HETATM   24  H   UNL     1      28.166  49.811  49.594  1.00  0.00     0.127 HD
ENDBRANCH   3  22
BRANCH   1  25
HETATM   25  N   UNL     1      25.151  46.757  51.972  1.00  0.00    -0.185 N 
HETATM   26  H   UNL     1      24.223  46.350  52.035  1.00  0.00     0.184 HD
BRANCH  25  27
HETATM   27  C   UNL     1      26.108  46.030  52.712  1.00  0.00     0.085 A 
HETATM   28  C   UNL     1      26.764  44.910  52.185  1.00  0.00     0.069 A 
HETATM   29  C   UNL     1      27.728  44.219  52.923  1.00  0.00     0.070 A 
HETATM   30  C   UNL     1      28.029  44.642  54.215  1.00  0.00     0.039 A 
HETATM   31  C   UNL     1      27.378  45.752  54.764  1.00  0.00     0.042 A 
HETATM   32  C   UNL     1      26.420  46.447  54.022  1.00  0.00     0.095 A 
BRANCH  29  33
HETATM   33  O   UNL     1      28.301  43.166  52.263  1.00  0.00    -0.356 OA
HETATM   34  C   UNL     1      27.710  41.886  52.457  1.00  0.00     0.210 C 
ENDBRANCH  29  33
BRANCH  32  35
HETATM   35  O   UNL     1      25.724  47.550  54.465  1.00  0.00    -0.354 OA
HETATM   36  C   UNL     1      26.387  48.375  55.421  1.00  0.00     0.210 C 
ENDBRANCH  32  35
ENDBRANCH  25  27
ENDBRANCH   1  25
TORSDOF 8
ENDMDL
MODEL 7
REMARK VINA RESULT:      -8.7      3.216      9.603
REMARK  8 active torsions:
REMARK  status: ('A' for Active; 'I' for Inactive)
REMARK    1  A    between atoms: O_2  and  C_3 
REMARK    2  A    between atoms: C_5  and  N_6 
REMARK    3  A    between atoms: N_6  and  C_7 
REMARK    4  A    between atoms: C_9  and  N_10 
REMARK    5  A    between atoms: C_12  and  C_13 
REMARK    6  A    between atoms: C_13  and  N_14 
REMARK    7  A    between atoms: N_18  and  C_19 
REMARK    8  A    between atoms: C_29  and  O_30 
ROOT
HETATM    1  C   UNL     1      24.214  48.086  49.574  1.00  0.00     0.731 A 
HETATM    2  N   UNL     1      24.995  49.068  49.138  1.00  0.00    -0.031 NA
HETATM    3  C   UNL     1      26.289  48.827  49.076  1.00  0.00     0.219 A 
HETATM    4  N   UNL     1      26.846  47.659  49.347  1.00  0.00    -0.200 NA
HETATM    5  C   UNL     1      25.998  46.713  49.745  1.00  0.00     0.174 A 
HETATM    6  N   UNL     1      24.681  46.871  49.866  1.00  0.00    -0.045 NA
ENDROOT
BRANCH   5   7
HETATM    7  C   UNL     1      26.526  45.292  49.763  1.00  0.00     0.316 C 
BRANCH   7   8
HETATM    8  N   UNL     1      26.482  44.590  51.141  1.00  0.00    -0.061 N 
HETATM    9  H   UNL     1      25.548  44.165  51.191  1.00  0.00     0.280 HD
HETATM   10  C   UNL     1      27.512  43.469  51.251  1.00  0.00     0.255 C 
HETATM   11  C   UNL     1      27.379  42.752  52.617  1.00  0.00     0.152 C 
HETATM   12  N   UNL     1      27.392  43.690  53.769  1.00  0.00    -0.364 N 
HETATM   13  C   UNL     1      26.458  44.837  53.652  1.00  0.00     0.152 C 
HETATM   14  C   UNL     1      26.615  45.576  52.299  1.00  0.00     0.255 C 
BRANCH  12  15
HETATM   15  C   UNL     1      28.559  43.888  54.486  1.00  0.00     0.102 A 
HETATM   16  N   UNL     1      28.681  45.041  55.170  1.00  0.00    -0.352 N 
HETATM   17  H   UNL     1      27.888  45.678  55.152  1.00  0.00     0.166 HD
HETATM   18  C   UNL     1      29.743  45.360  55.926  1.00  0.00     0.089 A 
HETATM   19  C   UNL     1      30.800  44.473  56.042  1.00  0.00     0.017 A 
HETATM   20  C   UNL     1      30.725  43.258  55.376  1.00  0.00     0.005 A 
HETATM   21  C   UNL     1      29.601  42.958  54.605  1.00  0.00     0.048 A 
ENDBRANCH  12  15
ENDBRANCH   7   8
ENDBRANCH   5   7
BRANCH   3  22
HETATM   22  N   UNL     1      27.110  49.842  48.637  1.00  0.00    -0.270 NA
HETATM   23  H   UNL     1      26.805  50.722  49.045  1.00  0.00     0.127 HD
HETATM   24  H   UNL     1      28.086  49.627  48.795  1.00  0.00     0.127 HD
ENDBRANCH   3  22
BRANCH   1  25
HETATM   25  N   UNL     1      22.845  48.266  49.718  1.00  0.00    -0.185 N 
HETATM   26  H   UNL     1      22.619  48.846  50.519  1.00  0.00     0.184 HD
BRANCH  25  27
HETATM   27  C   UNL     1      21.822  48.273  48.745  1.00  0.00     0.085 A 
HETATM   28  C   UNL     1      21.503  47.136  47.991  1.00  0.00     0.069 A 
HETATM   29  C   UNL     1      20.470  47.154  47.051  1.00  0.00     0.070 A 
HETATM   30  C   UNL     1      19.754  48.331  46.848  1.00  0.00     0.039 A 
HETATM   31  C   UNL     1      20.063  49.481  47.584  1.00  0.00     0.042 A 
HETATM   32  C   UNL     1      21.091  49.459  48.528  1.00  0.00     0.095 A 
BRANCH  29  33
HETATM   33  O   UNL     1      20.259  45.960  46.417  1.00  0.00    -0.356 OA
HETATM   34  C   UNL     1      20.136  44.806  47.241  1.00  0.00     0.210 C 
ENDBRANCH  29  33
BRANCH  32  35
HETATM   35  O   UNL     1      21.475  50.530  49.305  1.00  0.00    -0.354 OA
HETATM   36  C   UNL     1      20.476  51.081  50.161  1.00  0.00     0.210 C 
ENDBRANCH  32  35
ENDBRANCH  25  27
ENDBRANCH   1  25
TORSDOF 8
ENDMDL
MODEL 8
REMARK VINA RESULT:      -8.7      2.134      4.057
REMARK  8 active torsions:
REMARK  status: ('A' for Active; 'I' for Inactive)
REMARK    1  A    between atoms: O_2  and  C_3 
REMARK    2  A    between atoms: C_5  and  N_6 
REMARK    3  A    between atoms: N_6  and  C_7 
REMARK    4  A    between atoms: C_9  and  N_10 
REMARK    5  A    between atoms: C_12  and  C_13 
REMARK    6  A    between atoms: C_13  and  N_14 
REMARK    7  A    between atoms: N_18  and  C_19 
REMARK    8  A    between atoms: C_29  and  O_30 
ROOT
HETATM    1  C   UNL     1      25.409  47.647  50.434  1.00  0.00     0.731 A 
HETATM    2  N   UNL     1      26.616  48.109  50.129  1.00  0.00    -0.031 NA
HETATM    3  C   UNL     1      26.700  48.967  49.132  1.00  0.00     0.219 A 
HETATM    4  N   UNL     1      25.662  49.448  48.471  1.00  0.00    -0.200 NA
HETATM    5  C   UNL     1      24.482  48.966  48.854  1.00  0.00     0.174 A 
HETATM    6  N   UNL     1      24.301  48.077  49.830  1.00  0.00    -0.045 NA
ENDROOT
BRANCH   5   7
HETATM    7  C   UNL     1      23.253  49.704  48.359  1.00  0.00     0.316 C 
BRANCH   7   8
HETATM    8  N   UNL     1      22.025  49.643  49.297  1.00  0.00    -0.061 N 
HETATM    9  H   UNL     1      22.348  49.124  50.122  1.00  0.00     0.280 HD
HETATM   10  C   UNL     1      21.584  51.029  49.762  1.00  0.00     0.255 C 
HETATM   11  C   UNL     1      20.401  50.909  50.754  1.00  0.00     0.152 C 
HETATM   12  N   UNL     1      19.289  50.072  50.235  1.00  0.00    -0.364 N 
HETATM   13  C   UNL     1      19.700  48.750  49.700  1.00  0.00     0.152 C 
HETATM   14  C   UNL     1      20.861  48.872  48.681  1.00  0.00     0.255 C 
BRANCH  12  15
HETATM   15  C   UNL     1      18.178  50.672  49.670  1.00  0.00     0.102 A 
HETATM   16  N   UNL     1      17.351  49.893  48.946  1.00  0.00    -0.352 N 
HETATM   17  H   UNL     1      17.572  48.902  48.895  1.00  0.00     0.166 HD
HETATM   18  C   UNL     1      16.225  50.331  48.360  1.00  0.00     0.089 A 
HETATM   19  C   UNL     1      15.851  51.658  48.487  1.00  0.00     0.017 A 
HETATM   20  C   UNL     1      16.652  52.506  49.237  1.00  0.00     0.005 A 
HETATM   21  C   UNL     1      17.811  52.014  49.838  1.00  0.00     0.048 A 
ENDBRANCH  12  15
ENDBRANCH   7   8
ENDBRANCH   5   7
BRANCH   3  22
HETATM   22  N   UNL     1      27.949  49.442  48.798  1.00  0.00    -0.270 NA
HETATM   23  H   UNL     1      28.540  48.665  48.513  1.00  0.00     0.127 HD
HETATM   24  H   UNL     1      27.893  50.191  48.122  1.00  0.00     0.127 HD
ENDBRANCH   3  22
BRANCH   1  25
HETATM   25  N   UNL     1      25.232  46.705  51.439  1.00  0.00    -0.185 N 
HETATM   26  H   UNL     1      24.617  45.952  51.151  1.00  0.00     0.184 HD
BRANCH  25  27
HETATM   27  C   UNL     1      26.096  46.321  52.487  1.00  0.00     0.085 A 
HETATM   28  C   UNL     1      26.402  47.177  53.552  1.00  0.00     0.069 A 
HETATM   29  C   UNL     1      27.238  46.770  54.595  1.00  0.00     0.070 A 
HETATM   30  C   UNL     1      27.793  45.493  54.564  1.00  0.00     0.039 A 
HETATM   31  C   UNL     1      27.508  44.625  53.504  1.00  0.00     0.042 A 
HETATM   32  C   UNL     1      26.665  45.031  52.466  1.00  0.00     0.095 A 
BRANCH  29  33
HETATM   33  O   UNL     1      27.418  47.706  55.576  1.00  0.00    -0.356 OA
HETATM   34  C   UNL     1      26.370  48.650  55.766  1.00  0.00     0.210 C 
ENDBRANCH  29  33
BRANCH  32  35
HETATM   35  O   UNL     1      26.319  44.258  51.380  1.00  0.00    -0.354 OA
HETATM   36  C   UNL     1      27.364  43.480  50.799  1.00  0.00     0.210 C 
ENDBRANCH  32  35
ENDBRANCH  25  27
ENDBRANCH   1  25
TORSDOF 8
ENDMDL
MODEL 9
REMARK VINA RESULT:      -8.7      1.587      2.055
REMARK  8 active torsions:
REMARK  status: ('A' for Active; 'I' for Inactive)
REMARK    1  A    between atoms: O_2  and  C_3 
REMARK    2  A    between atoms: C_5  and  N_6 
REMARK    3  A    between atoms: N_6  and  C_7 
REMARK    4  A    between atoms: C_9  and  N_10 
REMARK    5  A    between atoms: C_12  and  C_13 
REMARK    6  A    between atoms: C_13  and  N_14 
REMARK    7  A    between atoms: N_18  and  C_19 
REMARK    8  A    between atoms: C_29  and  O_30 
ROOT
HETATM    1  C   UNL     1      25.754  43.333  51.966  1.00  0.00     0.731 A 
HETATM    2  N   UNL     1      26.660  43.082  51.028  1.00  0.00    -0.031 NA
HETATM    3  C   UNL     1      26.238  43.032  49.780  1.00  0.00     0.219 A 
HETATM    4  N   UNL     1      24.998  43.285  49.399  1.00  0.00    -0.200 NA
HETATM    5  C   UNL     1      24.154  43.562  50.391  1.00  0.00     0.174 A 
HETATM    6  N   UNL     1      24.481  43.608  51.682  1.00  0.00    -0.045 NA
ENDROOT
BRANCH   5   7
HETATM    7  C   UNL     1      22.818  44.162  49.998  1.00  0.00     0.316 C 
BRANCH   7   8
HETATM    8  N   UNL     1      22.898  45.400  49.073  1.00  0.00    -0.061 N 
HETATM    9  H   UNL     1      23.551  45.130  48.327  1.00  0.00     0.280 HD
HETATM   10  C   UNL     1      21.556  45.725  48.424  1.00  0.00     0.255 C 
HETATM   11  C   UNL     1      21.706  46.923  47.455  1.00  0.00     0.152 C 
HETATM   12  N   UNL     1      22.365  48.098  48.080  1.00  0.00    -0.364 N 
HETATM   13  C   UNL     1      23.633  47.797  48.790  1.00  0.00     0.152 C 
HETATM   14  C   UNL     1      23.475  46.620  49.786  1.00  0.00     0.255 C 
BRANCH  12  15
HETATM   15  C   UNL     1      21.600  49.148  48.556  1.00  0.00     0.102 A 
HETATM   16  N   UNL     1      20.762  48.893  49.579  1.00  0.00    -0.352 N 
HETATM   17  H   UNL     1      20.774  47.953  49.967  1.00  0.00     0.166 HD
HETATM   18  C   UNL     1      19.978  49.816  50.158  1.00  0.00     0.089 A 
HETATM   19  C   UNL     1      20.005  51.126  49.709  1.00  0.00     0.017 A 
HETATM   20  C   UNL     1      20.863  51.455  48.670  1.00  0.00     0.005 A 
HETATM   21  C   UNL     1      21.669  50.470  48.097  1.00  0.00     0.048 A 
ENDBRANCH  12  15
ENDBRANCH   7   8
ENDBRANCH   5   7
BRANCH   3  22
HETATM   22  N   UNL     1      27.166  42.759  48.799  1.00  0.00    -0.270 NA
HETATM   23  H   UNL     1      27.060  43.426  48.040  1.00  0.00     0.127 HD
HETATM   24  H   UNL     1      28.102  42.704  49.178  1.00  0.00     0.127 HD
ENDBRANCH   3  22
BRANCH   1  25
HETATM   25  N   UNL     1      26.101  43.357  53.311  1.00  0.00    -0.185 N 
HETATM   26  H   UNL     1      25.836  42.501  53.788  1.00  0.00     0.184 HD
BRANCH  25  27
HETATM   27  C   UNL     1      27.150  44.035  53.967  1.00  0.00     0.085 A 
HETATM   28  C   UNL     1      28.383  43.423  54.230  1.00  0.00     0.069 A 
HETATM   29  C   UNL     1      29.420  44.118  54.856  1.00  0.00     0.070 A 
HETATM   30  C   UNL     1      29.218  45.441  55.243  1.00  0.00     0.039 A 
HETATM   31  C   UNL     1      27.991  46.068  54.998  1.00  0.00     0.042 A 
HETATM   32  C   UNL     1      26.957  45.374  54.365  1.00  0.00     0.095 A 
BRANCH  29  33
HETATM   33  O   UNL     1      30.571  43.396  55.017  1.00  0.00    -0.356 OA
HETATM   34  C   UNL     1      31.102  43.317  56.336  1.00  0.00     0.210 C 
ENDBRANCH  29  33
BRANCH  32  35
HETATM   35  O   UNL     1      25.716  45.895  54.076  1.00  0.00    -0.354 OA
HETATM   36  C   UNL     1      25.685  46.984  53.156  1.00  0.00     0.210 C 
ENDBRANCH  32  35
ENDBRANCH  25  27
ENDBRANCH   1  25
TORSDOF 8
ENDMDL
MODEL 10
REMARK VINA RESULT:      -8.6      3.391      9.871
REMARK  8 active torsions:
REMARK  status: ('A' for Active; 'I' for Inactive)
REMARK    1  A    between atoms: O_2  and  C_3 
REMARK    2  A    between atoms: C_5  and  N_6 
REMARK    3  A    between atoms: N_6  and  C_7 
REMARK    4  A    between atoms: C_9  and  N_10 
REMARK    5  A    between atoms: C_12  and  C_13 
REMARK    6  A    between atoms: C_13  and  N_14 
REMARK    7  A    between atoms: N_18  and  C_19 
REMARK    8  A    between atoms: C_29  and  O_30 
ROOT
HETATM    1  C   UNL     1      22.630  47.629  48.822  1.00  0.00     0.731 A 
HETATM    2  N   UNL     1      22.675  48.709  48.052  1.00  0.00    -0.031 NA
HETATM    3  C   UNL     1      23.775  49.435  48.094  1.00  0.00     0.219 A 
HETATM    4  N   UNL     1      24.853  49.119  48.790  1.00  0.00    -0.200 NA
HETATM    5  C   UNL     1      24.746  48.005  49.511  1.00  0.00     0.174 A 
HETATM    6  N   UNL     1      23.667  47.224  49.555  1.00  0.00    -0.045 NA
ENDROOT
BRANCH   5   7
HETATM    7  C   UNL     1      26.034  47.432  50.070  1.00  0.00     0.316 C 
BRANCH   7   8
HETATM    8  N   UNL     1      25.864  46.492  51.287  1.00  0.00    -0.061 N 
HETATM    9  H   UNL     1      24.853  46.318  51.347  1.00  0.00     0.280 HD
HETATM   10  C   UNL     1      26.556  45.147  51.080  1.00  0.00     0.255 C 
HETATM   11  C   UNL     1      26.295  44.218  52.291  1.00  0.00     0.152 C 
HETATM   12  N   UNL     1      26.612  44.858  53.593  1.00  0.00    -0.364 N 
HETATM   13  C   UNL     1      26.019  46.204  53.788  1.00  0.00     0.152 C 
HETATM   14  C   UNL     1      26.309  47.145  52.592  1.00  0.00     0.255 C 
BRANCH  12  15
HETATM   15  C   UNL     1      27.820  44.596  54.216  1.00  0.00     0.102 A 
HETATM   16  N   UNL     1      28.258  45.490  55.123  1.00  0.00    -0.352 N 
HETATM   17  H   UNL     1      27.653  46.281  55.326  1.00  0.00     0.166 HD
HETATM   18  C   UNL     1      29.397  45.356  55.822  1.00  0.00     0.089 A 
HETATM   19  C   UNL     1      30.199  44.243  55.631  1.00  0.00     0.017 A 
HETATM   20  C   UNL     1      29.790  43.277  54.723  1.00  0.00     0.005 A 
HETATM   21  C   UNL     1      28.596  43.446  54.021  1.00  0.00     0.048 A 
ENDBRANCH  12  15
ENDBRANCH   7   8
ENDBRANCH   5   7
BRANCH   3  22
HETATM   22  N   UNL     1      23.828  50.566  47.309  1.00  0.00    -0.270 NA
HETATM   23  H   UNL     1      24.664  50.536  46.731  1.00  0.00     0.127 HD
HETATM   24  H   UNL     1      22.969  50.700  46.792  1.00  0.00     0.127 HD
ENDBRANCH   3  22
BRANCH   1  25
HETATM   25  N   UNL     1      21.493  46.833  48.877  1.00  0.00    -0.185 N 
HETATM   26  H   UNL     1      21.686  45.920  49.277  1.00  0.00     0.184 HD
BRANCH  25  27
HETATM   27  C   UNL     1      20.134  47.195  48.998  1.00  0.00     0.085 A 
HETATM   28  C   UNL     1      19.727  48.333  49.706  1.00  0.00     0.069 A 
HETATM   29  C   UNL     1      18.380  48.691  49.793  1.00  0.00     0.070 A 
HETATM   30  C   UNL     1      17.421  47.890  49.177  1.00  0.00     0.039 A 
HETATM   31  C   UNL     1      17.806  46.744  48.473  1.00  0.00     0.042 A 
HETATM   32  C   UNL     1      19.154  46.391  48.381  1.00  0.00     0.095 A 
BRANCH  29  33
HETATM   33  O   UNL     1      18.142  49.842  50.492  1.00  0.00    -0.356 OA
HETATM   34  C   UNL     1      18.686  51.044  49.957  1.00  0.00     0.210 C 
ENDBRANCH  29  33
BRANCH  32  35
HETATM   35  O   UNL     1      19.640  45.289  47.713  1.00  0.00    -0.354 OA
HETATM   36  C   UNL     1      18.807  44.753  46.687  1.00  0.00     0.210 C 
ENDBRANCH  32  35
ENDBRANCH  25  27
ENDBRANCH   1  25
TORSDOF 8
ENDMDL
