MODEL 1
REMARK VINA RESULT:      -9.1      0.000      0.000
REMARK  3 active torsions:
REMARK  status: ('A' for Active; 'I' for Inactive)
REMARK    1  A    between atoms: C_5  and  N_6 
REMARK       I    between atoms: N_6  and  C_7 
REMARK    2  A    between atoms: C_7  and  C_8 
REMARK    3  A    between atoms: C_9  and  C_10 
ROOT
HETATM    1  C   UNL     1      25.336  44.699  52.007  1.00  0.00     0.062 A 
HETATM    2  C   UNL     1      24.749  43.638  51.078  1.00  0.00     0.199 A 
HETATM    3  N   UNL     1      24.018  44.247  49.969  1.00  0.00    -0.092 N 
HETATM    4  C   UNL     1      23.849  45.590  49.795  1.00  0.00     0.735 A 
HETATM    5  N   UNL     1      24.431  46.442  50.660  1.00  0.00    -0.191 N 
HETATM    6  N   UNL     1      23.256  43.568  49.096  1.00  0.00     0.012 NA
HETATM    7  N   UNL     1      22.708  44.508  48.333  1.00  0.00     0.033 NA
HETATM    8  N   UNL     1      23.065  45.773  48.761  1.00  0.00     0.030 NA
HETATM    9  C   UNL     1      25.167  46.024  51.763  1.00  0.00     0.037 A 
HETATM   10  C   UNL     1      25.716  47.130  52.636  1.00  0.00     0.070 C 
HETATM   11  H   UNL     1      24.312  47.443  50.524  1.00  0.00     0.184 HD
ENDROOT
BRANCH   1  12
HETATM   12  C   UNL     1      26.212  44.244  53.127  1.00  0.00     0.256 C 
HETATM   13  N   UNL     1      27.552  44.494  52.927  1.00  0.00    -0.323 N 
HETATM   14  H   UNL     1      27.843  44.929  52.063  1.00  0.00     0.169 HD
HETATM   15  O   UNL     1      25.697  43.735  54.114  1.00  0.00    -0.267 OA
BRANCH  13  16
HETATM   16  C   UNL     1      28.608  44.221  53.827  1.00  0.00     0.035 A 
HETATM   17  C   UNL     1      29.459  43.121  53.724  1.00  0.00     0.030 A 
HETATM   18  C   UNL     1      30.483  42.923  54.657  1.00  0.00     0.009 A 
HETATM   19  C   UNL     1      30.674  43.823  55.710  1.00  0.00    -0.062 A 
HETATM   20  C   UNL     1      31.744  43.578  56.731  1.00  0.00     0.048 C 
HETATM   21  C   UNL     1      29.812  44.917  55.824  1.00  0.00     0.009 A 
HETATM   22  C   UNL     1      28.796  45.119  54.885  1.00  0.00     0.030 A 
ENDBRANCH  13  16
ENDBRANCH   1  12
BRANCH   2  23
HETATM   23  C   UNL     1      25.754  42.633  50.549  1.00  0.00    -0.011 A 
HETATM   24  C   UNL     1      26.670  43.018  49.571  1.00  0.00     0.125 A 
HETATM   25  N   UNL     1      27.590  42.196  49.021  1.00  0.00    -0.272 NA
HETATM   26  C   UNL     1      27.622  40.927  49.479  1.00  0.00     0.116 A 
HETATM   27  C   UNL     1      26.779  40.446  50.465  1.00  0.00     0.020 A 
HETATM   28  C   UNL     1      25.835  41.314  51.011  1.00  0.00     0.012 A 
ENDBRANCH   2  23
TORSDOF 3
ENDMDL
MODEL 2
REMARK VINA RESULT:      -8.9      1.171      1.542
REMARK  3 active torsions:
REMARK  status: ('A' for Active; 'I' for Inactive)
REMARK    1  A    between atoms: C_5  and  N_6 
REMARK       I    between atoms: N_6  and  C_7 
REMARK    2  A    between atoms: C_7  and  C_8 
REMARK    3  A    between atoms: C_9  and  C_10 
ROOT
HETATM    1  C   UNL     1      26.012  44.413  51.478  1.00  0.00     0.062 A 
HETATM    2  C   UNL     1      25.343  43.093  51.096  1.00  0.00     0.199 A 
HETATM    3  N   UNL     1      24.098  43.319  50.367  1.00  0.00    -0.092 N 
HETATM    4  C   UNL     1      23.574  44.548  50.087  1.00  0.00     0.735 A 
HETATM    5  N   UNL     1      24.258  45.651  50.447  1.00  0.00    -0.191 N 
HETATM    6  N   UNL     1      23.213  42.358  50.057  1.00  0.00     0.012 NA
HETATM    7  N   UNL     1      22.199  43.009  49.496  1.00  0.00     0.033 NA
HETATM    8  N   UNL     1      22.409  44.375  49.513  1.00  0.00     0.030 NA
HETATM    9  C   UNL     1      25.464  45.608  51.139  1.00  0.00     0.037 A 
HETATM   10  C   UNL     1      26.065  46.951  51.481  1.00  0.00     0.070 C 
HETATM   11  H   UNL     1      23.871  46.566  50.229  1.00  0.00     0.184 HD
ENDROOT
BRANCH   1  12
HETATM   12  C   UNL     1      27.356  44.357  52.126  1.00  0.00     0.256 C 
HETATM   13  N   UNL     1      27.314  44.331  53.503  1.00  0.00    -0.323 N 
HETATM   14  H   UNL     1      26.416  44.373  53.964  1.00  0.00     0.169 HD
HETATM   15  O   UNL     1      28.354  44.306  51.418  1.00  0.00    -0.267 OA
BRANCH  13  16
HETATM   16  C   UNL     1      28.417  44.231  54.382  1.00  0.00     0.035 A 
HETATM   17  C   UNL     1      28.835  45.255  55.232  1.00  0.00     0.030 A 
HETATM   18  C   UNL     1      29.938  45.075  56.074  1.00  0.00     0.009 A 
HETATM   19  C   UNL     1      30.641  43.866  56.082  1.00  0.00    -0.062 A 
HETATM   20  C   UNL     1      31.849  43.699  56.954  1.00  0.00     0.048 C 
HETATM   21  C   UNL     1      30.234  42.846  55.219  1.00  0.00     0.009 A 
HETATM   22  C   UNL     1      29.125  43.023  54.386  1.00  0.00     0.030 A 
ENDBRANCH  13  16
ENDBRANCH   1  12
BRANCH   2  23
HETATM   23  C   UNL     1      26.230  42.133  50.326  1.00  0.00    -0.011 A 
HETATM   24  C   UNL     1      26.664  42.467  49.043  1.00  0.00     0.125 A 
HETATM   25  N   UNL     1      27.436  41.676  48.269  1.00  0.00    -0.272 NA
HETATM   26  C   UNL     1      27.821  40.496  48.799  1.00  0.00     0.116 A 
HETATM   27  C   UNL     1      27.472  40.076  50.070  1.00  0.00     0.020 A 
HETATM   28  C   UNL     1      26.669  40.909  50.846  1.00  0.00     0.012 A 
ENDBRANCH   2  23
TORSDOF 3
ENDMDL
MODEL 3
REMARK VINA RESULT:      -8.1      2.851      6.902
REMARK  3 active torsions:
REMARK  status: ('A' for Active; 'I' for Inactive)
REMARK    1  A    between atoms: C_5  and  N_6 
REMARK       I    between atoms: N_6  and  C_7 
REMARK    2  A    between atoms: C_7  and  C_8 
REMARK    3  A    between atoms: C_9  and  C_10 
ROOT
HETATM    1  C   UNL     1      26.591  44.884  52.044  1.00  0.00     0.062 A 
HETATM    2  C   UNL     1      25.723  46.121  52.277  1.00  0.00     0.199 A 
HETATM    3  N   UNL     1      26.133  46.839  53.480  1.00  0.00    -0.092 N 
HETATM    4  C   UNL     1      27.140  46.447  54.314  1.00  0.00     0.735 A 
HETATM    5  N   UNL     1      27.861  45.353  54.004  1.00  0.00    -0.191 N 
HETATM    6  N   UNL     1      25.452  47.859  54.027  1.00  0.00     0.012 NA
HETATM    7  N   UNL     1      26.115  48.141  55.143  1.00  0.00     0.033 NA
HETATM    8  N   UNL     1      27.166  47.266  55.337  1.00  0.00     0.030 NA
HETATM    9  C   UNL     1      27.605  44.562  52.888  1.00  0.00     0.037 A 
HETATM   10  C   UNL     1      28.502  43.358  52.725  1.00  0.00     0.070 C 
HETATM   11  H   UNL     1      28.617  45.066  54.621  1.00  0.00     0.184 HD
ENDROOT
BRANCH   1  12
HETATM   12  C   UNL     1      26.377  44.102  50.790  1.00  0.00     0.256 C 
HETATM   13  N   UNL     1      25.333  43.206  50.860  1.00  0.00    -0.323 N 
HETATM   14  H   UNL     1      24.818  43.123  51.725  1.00  0.00     0.169 HD
HETATM   15  O   UNL     1      27.092  44.328  49.822  1.00  0.00    -0.267 OA
BRANCH  13  16
HETATM   16  C   UNL     1      24.867  42.367  49.821  1.00  0.00     0.035 A 
HETATM   17  C   UNL     1      25.635  41.376  49.212  1.00  0.00     0.030 A 
HETATM   18  C   UNL     1      25.097  40.586  48.189  1.00  0.00     0.009 A 
HETATM   19  C   UNL     1      23.779  40.774  47.760  1.00  0.00    -0.062 A 
HETATM   20  C   UNL     1      23.226  39.954  46.633  1.00  0.00     0.048 C 
HETATM   21  C   UNL     1      23.014  41.778  48.358  1.00  0.00     0.009 A 
HETATM   22  C   UNL     1      23.549  42.559  49.387  1.00  0.00     0.030 A 
ENDBRANCH  13  16
ENDBRANCH   1  12
BRANCH   2  23
HETATM   23  C   UNL     1      25.652  47.074  51.100  1.00  0.00    -0.011 A 
HETATM   24  C   UNL     1      24.427  47.318  50.478  1.00  0.00     0.125 A 
HETATM   25  N   UNL     1      24.261  48.131  49.413  1.00  0.00    -0.272 NA
HETATM   26  C   UNL     1      25.362  48.756  48.947  1.00  0.00     0.116 A 
HETATM   27  C   UNL     1      26.621  48.607  49.503  1.00  0.00     0.020 A 
HETATM   28  C   UNL     1      26.766  47.757  50.597  1.00  0.00     0.012 A 
ENDBRANCH   2  23
TORSDOF 3
ENDMDL
MODEL 4
REMARK VINA RESULT:      -7.9      5.237      8.135
REMARK  3 active torsions:
REMARK  status: ('A' for Active; 'I' for Inactive)
REMARK    1  A    between atoms: C_5  and  N_6 
REMARK       I    between atoms: N_6  and  C_7 
REMARK    2  A    between atoms: C_7  and  C_8 
REMARK    3  A    between atoms: C_9  and  C_10 
ROOT
HETATM    1  C   UNL     1      21.407  49.303  48.891  1.00  0.00     0.062 A 
HETATM    2  C   UNL     1      19.982  48.919  49.290  1.00  0.00     0.199 A 
HETATM    3  N   UNL     1      19.146  50.102  49.482  1.00  0.00    -0.092 N 
HETATM    4  C   UNL     1      19.581  51.389  49.354  1.00  0.00     0.735 A 
HETATM    5  N   UNL     1      20.852  51.618  48.972  1.00  0.00    -0.191 N 
HETATM    6  N   UNL     1      17.907  50.081  49.998  1.00  0.00     0.012 NA
HETATM    7  N   UNL     1      17.562  51.362  50.085  1.00  0.00     0.033 NA
HETATM    8  N   UNL     1      18.598  52.188  49.691  1.00  0.00     0.030 NA
HETATM    9  C   UNL     1      21.774  50.602  48.742  1.00  0.00     0.037 A 
HETATM   10  C   UNL     1      23.160  51.058  48.351  1.00  0.00     0.070 C 
HETATM   11  H   UNL     1      21.172  52.578  48.868  1.00  0.00     0.184 HD
ENDROOT
BRANCH   1  12
HETATM   12  C   UNL     1      22.358  48.207  48.544  1.00  0.00     0.256 C 
HETATM   13  N   UNL     1      23.018  47.672  49.629  1.00  0.00    -0.323 N 
HETATM   14  H   UNL     1      22.839  48.056  50.546  1.00  0.00     0.169 HD
HETATM   15  O   UNL     1      22.455  47.853  47.375  1.00  0.00    -0.267 OA
BRANCH  13  16
HETATM   16  C   UNL     1      23.937  46.598  49.616  1.00  0.00     0.035 A 
HETATM   17  C   UNL     1      23.588  45.272  49.358  1.00  0.00     0.030 A 
HETATM   18  C   UNL     1      24.561  44.266  49.362  1.00  0.00     0.009 A 
HETATM   19  C   UNL     1      25.901  44.569  49.623  1.00  0.00    -0.062 A 
HETATM   20  C   UNL     1      26.928  43.479  49.671  1.00  0.00     0.048 C 
HETATM   21  C   UNL     1      26.249  45.894  49.898  1.00  0.00     0.009 A 
HETATM   22  C   UNL     1      25.278  46.900  49.882  1.00  0.00     0.030 A 
ENDBRANCH  13  16
ENDBRANCH   1  12
BRANCH   2  23
HETATM   23  C   UNL     1      19.301  47.947  48.348  1.00  0.00    -0.011 A 
HETATM   24  C   UNL     1      19.003  46.655  48.780  1.00  0.00     0.125 A 
HETATM   25  N   UNL     1      18.419  45.709  48.014  1.00  0.00    -0.272 NA
HETATM   26  C   UNL     1      18.089  46.065  46.755  1.00  0.00     0.116 A 
HETATM   27  C   UNL     1      18.314  47.326  46.231  1.00  0.00     0.020 A 
HETATM   28  C   UNL     1      18.924  48.281  47.041  1.00  0.00     0.012 A 
ENDBRANCH   2  23
TORSDOF 3
ENDMDL
MODEL 5
REMARK VINA RESULT:      -7.9      2.134      5.768
REMARK  3 active torsions:
REMARK  status: ('A' for Active; 'I' for Inactive)
REMARK    1  A    between atoms: C_5  and  N_6 
REMARK       I    between atoms: N_6  and  C_7 
REMARK    2  A    between atoms: C_7  and  C_8 
REMARK    3  A    between atoms: C_9  and  C_10 
ROOT
HETATM    1  C   UNL     1      27.735  43.459  53.630  1.00  0.00     0.062 A 
HETATM    2  C   UNL     1      26.471  44.313  53.546  1.00  0.00     0.199 A 
HETATM    3  N   UNL     1      26.664  45.613  54.181  1.00  0.00    -0.092 N 
HETATM    4  C   UNL     1      27.812  46.012  54.801  1.00  0.00     0.735 A 
HETATM    5  N   UNL     1      28.880  45.191  54.797  1.00  0.00    -0.191 N 
HETATM    6  N   UNL     1      25.683  46.501  54.411  1.00  0.00     0.012 NA
HETATM    7  N   UNL     1      26.273  47.481  55.087  1.00  0.00     0.033 NA
HETATM    8  N   UNL     1      27.599  47.187  55.341  1.00  0.00     0.030 NA
HETATM    9  C   UNL     1      28.863  43.922  54.227  1.00  0.00     0.037 A 
HETATM   10  C   UNL     1      30.149  43.138  54.350  1.00  0.00     0.070 C 
HETATM   11  H   UNL     1      29.738  45.493  55.252  1.00  0.00     0.184 HD
ENDROOT
BRANCH   1  12
HETATM   12  C   UNL     1      27.742  42.143  52.924  1.00  0.00     0.256 C 
HETATM   13  N   UNL     1      28.046  42.228  51.583  1.00  0.00    -0.323 N 
HETATM   14  H   UNL     1      28.214  43.138  51.178  1.00  0.00     0.169 HD
HETATM   15  O   UNL     1      27.520  41.124  53.567  1.00  0.00    -0.267 OA
BRANCH  13  16
HETATM   16  C   UNL     1      28.173  41.153  50.674  1.00  0.00     0.035 A 
HETATM   17  C   UNL     1      27.656  41.158  49.379  1.00  0.00     0.030 A 
HETATM   18  C   UNL     1      27.827  40.051  48.540  1.00  0.00     0.009 A 
HETATM   19  C   UNL     1      28.519  38.919  48.982  1.00  0.00    -0.062 A 
HETATM   20  C   UNL     1      28.657  37.720  48.092  1.00  0.00     0.048 C 
HETATM   21  C   UNL     1      29.022  38.905  50.285  1.00  0.00     0.009 A 
HETATM   22  C   UNL     1      28.861  40.017  51.119  1.00  0.00     0.030 A 
ENDBRANCH  13  16
ENDBRANCH   1  12
BRANCH   2  23
HETATM   23  C   UNL     1      25.922  44.494  52.144  1.00  0.00    -0.011 A 
HETATM   24  C   UNL     1      26.587  45.323  51.241  1.00  0.00     0.125 A 
HETATM   25  N   UNL     1      26.170  45.568  49.980  1.00  0.00    -0.272 NA
HETATM   26  C   UNL     1      25.045  44.941  49.579  1.00  0.00     0.116 A 
HETATM   27  C   UNL     1      24.321  44.077  50.382  1.00  0.00     0.020 A 
HETATM   28  C   UNL     1      24.770  43.847  51.681  1.00  0.00     0.012 A 
ENDBRANCH   2  23
TORSDOF 3
ENDMDL
MODEL 6
REMARK VINA RESULT:      -7.9      1.920      2.435
REMARK  3 active torsions:
REMARK  status: ('A' for Active; 'I' for Inactive)
REMARK    1  A    between atoms: C_5  and  N_6 
REMARK       I    between atoms: N_6  and  C_7 
REMARK    2  A    between atoms: C_7  and  C_8 
REMARK    3  A    between atoms: C_9  and  C_10 
ROOT
HETATM    1  C   UNL     1      24.621  45.849  50.286  1.00  0.00     0.062 A 
HETATM    2  C   UNL     1      23.735  44.605  50.222  1.00  0.00     0.199 A 
HETATM    3  N   UNL     1      22.605  44.803  49.317  1.00  0.00    -0.092 N 
HETATM    4  C   UNL     1      22.348  45.957  48.636  1.00  0.00     0.735 A 
HETATM    5  N   UNL     1      23.208  46.988  48.744  1.00  0.00    -0.191 N 
HETATM    6  N   UNL     1      21.574  43.953  49.192  1.00  0.00     0.012 NA
HETATM    7  N   UNL     1      20.742  44.561  48.353  1.00  0.00     0.033 NA
HETATM    8  N   UNL     1      21.210  45.813  48.003  1.00  0.00     0.030 NA
HETATM    9  C   UNL     1      24.336  46.959  49.557  1.00  0.00     0.037 A 
HETATM   10  C   UNL     1      25.162  48.224  49.569  1.00  0.00     0.070 C 
HETATM   11  H   UNL     1      23.020  47.845  48.229  1.00  0.00     0.184 HD
ENDROOT
BRANCH   1  12
HETATM   12  C   UNL     1      25.884  45.771  51.078  1.00  0.00     0.256 C 
HETATM   13  N   UNL     1      25.707  45.930  52.435  1.00  0.00    -0.323 N 
HETATM   14  H   UNL     1      24.776  46.104  52.787  1.00  0.00     0.169 HD
HETATM   15  O   UNL     1      26.937  45.548  50.493  1.00  0.00    -0.267 OA
BRANCH  13  16
HETATM   16  C   UNL     1      26.705  45.858  53.433  1.00  0.00     0.035 A 
HETATM   17  C   UNL     1      27.374  44.687  53.788  1.00  0.00     0.030 A 
HETATM   18  C   UNL     1      28.353  44.702  54.789  1.00  0.00     0.009 A 
HETATM   19  C   UNL     1      28.681  45.890  55.450  1.00  0.00    -0.062 A 
HETATM   20  C   UNL     1      29.698  45.887  56.551  1.00  0.00     0.048 C 
HETATM   21  C   UNL     1      28.000  47.061  55.107  1.00  0.00     0.009 A 
HETATM   22  C   UNL     1      27.030  47.047  54.099  1.00  0.00     0.030 A 
ENDBRANCH  13  16
ENDBRANCH   1  12
BRANCH   2  23
HETATM   23  C   UNL     1      24.467  43.325  49.870  1.00  0.00    -0.011 A 
HETATM   24  C   UNL     1      24.686  42.997  48.532  1.00  0.00     0.125 A 
HETATM   25  N   UNL     1      25.307  41.873  48.115  1.00  0.00    -0.272 NA
HETATM   26  C   UNL     1      25.757  41.035  49.072  1.00  0.00     0.116 A 
HETATM   27  C   UNL     1      25.617  41.274  50.427  1.00  0.00     0.020 A 
HETATM   28  C   UNL     1      24.967  42.438  50.831  1.00  0.00     0.012 A 
ENDBRANCH   2  23
TORSDOF 3
ENDMDL
MODEL 7
REMARK VINA RESULT:      -7.8      2.647      5.217
REMARK  3 active torsions:
REMARK  status: ('A' for Active; 'I' for Inactive)
REMARK    1  A    between atoms: C_5  and  N_6 
REMARK       I    between atoms: N_6  and  C_7 
REMARK    2  A    between atoms: C_7  and  C_8 
REMARK    3  A    between atoms: C_9  and  C_10 
ROOT
HETATM    1  C   UNL     1      28.185  40.480  49.862  1.00  0.00     0.062 A 
HETATM    2  C   UNL     1      27.618  41.230  48.657  1.00  0.00     0.199 A 
HETATM    3  N   UNL     1      27.702  40.424  47.442  1.00  0.00    -0.092 N 
HETATM    4  C   UNL     1      28.243  39.173  47.374  1.00  0.00     0.735 A 
HETATM    5  N   UNL     1      28.693  38.591  48.503  1.00  0.00    -0.191 N 
HETATM    6  N   UNL     1      27.441  40.882  46.206  1.00  0.00     0.012 NA
HETATM    7  N   UNL     1      27.735  39.863  45.406  1.00  0.00     0.033 NA
HETATM    8  N   UNL     1      28.240  38.793  46.120  1.00  0.00     0.030 NA
HETATM    9  C   UNL     1      28.677  39.220  49.743  1.00  0.00     0.037 A 
HETATM   10  C   UNL     1      29.253  38.417  50.886  1.00  0.00     0.070 C 
HETATM   11  H   UNL     1      29.087  37.655  48.453  1.00  0.00     0.184 HD
ENDROOT
BRANCH   1  12
HETATM   12  C   UNL     1      28.068  41.120  51.206  1.00  0.00     0.256 C 
HETATM   13  N   UNL     1      29.039  42.062  51.464  1.00  0.00    -0.323 N 
HETATM   14  H   UNL     1      29.749  42.235  50.767  1.00  0.00     0.169 HD
HETATM   15  O   UNL     1      27.139  40.799  51.936  1.00  0.00    -0.267 OA
BRANCH  13  16
HETATM   16  C   UNL     1      29.155  42.861  52.625  1.00  0.00     0.035 A 
HETATM   17  C   UNL     1      28.255  43.867  52.977  1.00  0.00     0.030 A 
HETATM   18  C   UNL     1      28.443  44.612  54.146  1.00  0.00     0.009 A 
HETATM   19  C   UNL     1      29.533  44.363  54.986  1.00  0.00    -0.062 A 
HETATM   20  C   UNL     1      29.751  45.197  56.212  1.00  0.00     0.048 C 
HETATM   21  C   UNL     1      30.445  43.367  54.626  1.00  0.00     0.009 A 
HETATM   22  C   UNL     1      30.251  42.616  53.463  1.00  0.00     0.030 A 
ENDBRANCH  13  16
ENDBRANCH   1  12
BRANCH   2  23
HETATM   23  C   UNL     1      26.206  41.750  48.842  1.00  0.00    -0.011 A 
HETATM   24  C   UNL     1      25.121  40.896  48.643  1.00  0.00     0.125 A 
HETATM   25  N   UNL     1      23.828  41.265  48.761  1.00  0.00    -0.272 NA
HETATM   26  C   UNL     1      23.591  42.544  49.118  1.00  0.00     0.116 A 
HETATM   27  C   UNL     1      24.590  43.468  49.366  1.00  0.00     0.020 A 
HETATM   28  C   UNL     1      25.917  43.063  49.231  1.00  0.00     0.012 A 
ENDBRANCH   2  23
TORSDOF 3
ENDMDL
MODEL 8
REMARK VINA RESULT:      -7.8      2.533      5.362
REMARK  3 active torsions:
REMARK  status: ('A' for Active; 'I' for Inactive)
REMARK    1  A    between atoms: C_5  and  N_6 
REMARK       I    between atoms: N_6  and  C_7 
REMARK    2  A    between atoms: C_7  and  C_8 
REMARK    3  A    between atoms: C_9  and  C_10 
ROOT
HETATM    1  C   UNL     1      24.647  44.216  49.181  1.00  0.00     0.062 A 
HETATM    2  C   UNL     1      25.383  45.310  49.953  1.00  0.00     0.199 A 
HETATM    3  N   UNL     1      24.658  46.577  49.900  1.00  0.00    -0.092 N 
HETATM    4  C   UNL     1      23.489  46.776  49.225  1.00  0.00     0.735 A 
HETATM    5  N   UNL     1      22.910  45.736  48.595  1.00  0.00    -0.191 N 
HETATM    6  N   UNL     1      25.144  47.750  50.339  1.00  0.00     0.012 NA
HETATM    7  N   UNL     1      24.212  48.639  50.010  1.00  0.00     0.033 NA
HETATM    8  N   UNL     1      23.178  48.046  49.311  1.00  0.00     0.030 NA
HETATM    9  C   UNL     1      23.466  44.462  48.558  1.00  0.00     0.037 A 
HETATM   10  C   UNL     1      22.682  43.433  47.776  1.00  0.00     0.070 C 
HETATM   11  H   UNL     1      22.034  45.883  48.100  1.00  0.00     0.184 HD
ENDROOT
BRANCH   1  12
HETATM   12  C   UNL     1      25.197  42.828  49.234  1.00  0.00     0.256 C 
HETATM   13  N   UNL     1      26.486  42.718  48.761  1.00  0.00    -0.323 N 
HETATM   14  H   UNL     1      26.946  43.543  48.403  1.00  0.00     0.169 HD
HETATM   15  O   UNL     1      24.505  41.934  49.704  1.00  0.00    -0.267 OA
BRANCH  13  16
HETATM   16  C   UNL     1      27.279  41.548  48.731  1.00  0.00     0.035 A 
HETATM   17  C   UNL     1      27.606  40.854  47.566  1.00  0.00     0.030 A 
HETATM   18  C   UNL     1      28.399  39.702  47.622  1.00  0.00     0.009 A 
HETATM   19  C   UNL     1      28.881  39.225  48.845  1.00  0.00    -0.062 A 
HETATM   20  C   UNL     1      29.691  37.965  48.900  1.00  0.00     0.048 C 
HETATM   21  C   UNL     1      28.540  39.910  50.014  1.00  0.00     0.009 A 
HETATM   22  C   UNL     1      27.757  41.067  49.956  1.00  0.00     0.030 A 
ENDBRANCH  13  16
ENDBRANCH   1  12
BRANCH   2  23
HETATM   23  C   UNL     1      25.713  44.958  51.390  1.00  0.00    -0.011 A 
HETATM   24  C   UNL     1      24.683  44.756  52.309  1.00  0.00     0.125 A 
HETATM   25  N   UNL     1      24.870  44.460  53.613  1.00  0.00    -0.272 NA
HETATM   26  C   UNL     1      26.147  44.334  54.030  1.00  0.00     0.116 A 
HETATM   27  C   UNL     1      27.243  44.487  53.200  1.00  0.00     0.020 A 
HETATM   28  C   UNL     1      27.022  44.798  51.860  1.00  0.00     0.012 A 
ENDBRANCH   2  23
TORSDOF 3
ENDMDL
MODEL 9
REMARK VINA RESULT:      -7.8      2.695      6.378
REMARK  3 active torsions:
REMARK  status: ('A' for Active; 'I' for Inactive)
REMARK    1  A    between atoms: C_5  and  N_6 
REMARK       I    between atoms: N_6  and  C_7 
REMARK    2  A    between atoms: C_7  and  C_8 
REMARK    3  A    between atoms: C_9  and  C_10 
ROOT
HETATM    1  C   UNL     1      26.859  44.974  52.231  1.00  0.00     0.062 A 
HETATM    2  C   UNL     1      26.979  43.825  51.230  1.00  0.00     0.199 A 
HETATM    3  N   UNL     1      27.632  42.664  51.829  1.00  0.00    -0.092 N 
HETATM    4  C   UNL     1      28.106  42.613  53.108  1.00  0.00     0.735 A 
HETATM    5  N   UNL     1      27.926  43.675  53.917  1.00  0.00    -0.191 N 
HETATM    6  N   UNL     1      28.027  41.577  51.147  1.00  0.00     0.012 NA
HETATM    7  N   UNL     1      28.652  40.828  52.049  1.00  0.00     0.033 NA
HETATM    8  N   UNL     1      28.713  41.464  53.274  1.00  0.00     0.030 NA
HETATM    9  C   UNL     1      27.315  44.854  53.504  1.00  0.00     0.037 A 
HETATM   10  C   UNL     1      27.232  45.944  54.547  1.00  0.00     0.070 C 
HETATM   11  H   UNL     1      28.271  43.632  54.873  1.00  0.00     0.184 HD
ENDROOT
BRANCH   1  12
HETATM   12  C   UNL     1      26.109  46.195  51.811  1.00  0.00     0.256 C 
HETATM   13  N   UNL     1      26.327  46.563  50.501  1.00  0.00    -0.323 N 
HETATM   14  H   UNL     1      26.969  46.020  49.942  1.00  0.00     0.169 HD
HETATM   15  O   UNL     1      25.362  46.738  52.615  1.00  0.00    -0.267 OA
BRANCH  13  16
HETATM   16  C   UNL     1      25.723  47.641  49.813  1.00  0.00     0.035 A 
HETATM   17  C   UNL     1      26.430  48.697  49.239  1.00  0.00     0.030 A 
HETATM   18  C   UNL     1      25.755  49.726  48.572  1.00  0.00     0.009 A 
HETATM   19  C   UNL     1      24.361  49.716  48.468  1.00  0.00    -0.062 A 
HETATM   20  C   UNL     1      23.644  50.847  47.793  1.00  0.00     0.048 C 
HETATM   21  C   UNL     1      23.650  48.668  49.058  1.00  0.00     0.009 A 
HETATM   22  C   UNL     1      24.326  47.634  49.713  1.00  0.00     0.030 A 
ENDBRANCH  13  16
ENDBRANCH   1  12
BRANCH   2  23
HETATM   23  C   UNL     1      25.673  43.412  50.581  1.00  0.00    -0.011 A 
HETATM   24  C   UNL     1      24.554  43.159  51.375  1.00  0.00     0.125 A 
HETATM   25  N   UNL     1      23.354  42.766  50.898  1.00  0.00    -0.272 NA
HETATM   26  C   UNL     1      23.244  42.635  49.560  1.00  0.00     0.116 A 
HETATM   27  C   UNL     1      24.280  42.886  48.678  1.00  0.00     0.020 A 
HETATM   28  C   UNL     1      25.510  43.284  49.196  1.00  0.00     0.012 A 
ENDBRANCH   2  23
TORSDOF 3
ENDMDL
MODEL 10
REMARK VINA RESULT:      -7.7      2.388      4.863
REMARK  3 active torsions:
REMARK  status: ('A' for Active; 'I' for Inactive)
REMARK    1  A    between atoms: C_5  and  N_6 
REMARK       I    between atoms: N_6  and  C_7 
REMARK    2  A    between atoms: C_7  and  C_8 
REMARK    3  A    between atoms: C_9  and  C_10 
ROOT
HETATM    1  C   UNL     1      27.245  42.428  50.635  1.00  0.00     0.062 A 
HETATM    2  C   UNL     1      26.385  42.286  49.379  1.00  0.00     0.199 A 
HETATM    3  N   UNL     1      26.251  40.887  48.983  1.00  0.00    -0.092 N 
HETATM    4  C   UNL     1      26.840  39.837  49.626  1.00  0.00     0.735 A 
HETATM    5  N   UNL     1      27.559  40.070  50.740  1.00  0.00    -0.191 N 
HETATM    6  N   UNL     1      25.700  40.472  47.830  1.00  0.00     0.012 NA
HETATM    7  N   UNL     1      25.874  39.155  47.834  1.00  0.00     0.033 NA
HETATM    8  N   UNL     1      26.587  38.746  48.945  1.00  0.00     0.030 NA
HETATM    9  C   UNL     1      27.776  41.344  51.255  1.00  0.00     0.037 A 
HETATM   10  C   UNL     1      28.635  41.405  52.497  1.00  0.00     0.070 C 
HETATM   11  H   UNL     1      27.990  39.286  51.224  1.00  0.00     0.184 HD
ENDROOT
BRANCH   1  12
HETATM   12  C   UNL     1      27.385  43.786  51.239  1.00  0.00     0.256 C 
HETATM   13  N   UNL     1      26.754  43.925  52.456  1.00  0.00    -0.323 N 
HETATM   14  H   UNL     1      26.241  43.140  52.832  1.00  0.00     0.169 HD
HETATM   15  O   UNL     1      28.049  44.632  50.653  1.00  0.00    -0.267 OA
BRANCH  13  16
HETATM   16  C   UNL     1      26.751  45.072  53.282  1.00  0.00     0.035 A 
HETATM   17  C   UNL     1      27.600  45.252  54.374  1.00  0.00     0.030 A 
HETATM   18  C   UNL     1      27.535  46.421  55.142  1.00  0.00     0.009 A 
HETATM   19  C   UNL     1      26.620  47.431  54.829  1.00  0.00    -0.062 A 
HETATM   20  C   UNL     1      26.526  48.659  55.684  1.00  0.00     0.048 C 
HETATM   21  C   UNL     1      25.758  47.245  53.746  1.00  0.00     0.009 A 
HETATM   22  C   UNL     1      25.831  46.082  52.973  1.00  0.00     0.030 A 
ENDBRANCH  13  16
ENDBRANCH   1  12
BRANCH   2  23
HETATM   23  C   UNL     1      25.018  42.935  49.472  1.00  0.00    -0.011 A 
HETATM   24  C   UNL     1      24.088  42.465  50.400  1.00  0.00     0.125 A 
HETATM   25  N   UNL     1      22.841  42.959  50.547  1.00  0.00    -0.272 NA
HETATM   26  C   UNL     1      22.497  43.990  49.748  1.00  0.00     0.116 A 
HETATM   27  C   UNL     1      23.347  44.551  48.812  1.00  0.00     0.020 A 
HETATM   28  C   UNL     1      24.627  44.019  48.677  1.00  0.00     0.012 A 
ENDBRANCH   2  23
TORSDOF 3
ENDMDL
