MODEL 1
REMARK VINA RESULT:     -10.5      0.000      0.000
REMARK  9 active torsions:
REMARK  status: ('A' for Active; 'I' for Inactive)
REMARK    1  A    between atoms: C_4  and  S_5 
REMARK    2  A    between atoms: S_5  and  C_6 
REMARK    3  A    between atoms: C_6  and  C_7 
REMARK       I    between atoms: C_7  and  N_8 
REMARK    4  A    between atoms: N_8  and  C_9 
REMARK    5  A    between atoms: C_10  and  O_11 
REMARK    6  A    between atoms: C_16  and  O_17 
REMARK    7  A    between atoms: C_24  and  C_25 
REMARK    8  A    between atoms: C_31  and  C_32 
REMARK       I    between atoms: C_32  and  N_33 
REMARK    9  A    between atoms: N_33  and  C_34 
ROOT
HETATM    1  C   UNL     1      21.974  45.584  47.337  1.00  0.00     0.069 C 
HETATM    2  C   UNL     1      22.889  46.000  48.460  1.00  0.00     0.019 C 
HETATM    3  N   UNL     1      23.594  44.978  49.081  1.00  0.00    -0.353 N 
HETATM    4  C   UNL     1      24.222  45.103  50.309  1.00  0.00     0.087 C 
HETATM    5  C   UNL     1      24.436  46.338  50.811  1.00  0.00     0.055 C 
HETATM    6  C   UNL     1      25.005  46.580  52.199  1.00  0.00     0.019 C 
HETATM    7  N   UNL     1      25.477  46.781  53.351  1.00  0.00    -0.096 N 
HETATM    8  C   UNL     1      24.047  47.578  50.012  1.00  0.00     0.104 C 
HETATM    9  C   UNL     1      23.053  47.275  48.891  1.00  0.00     0.046 C 
HETATM   10  H   UNL     1      23.411  44.024  48.782  1.00  0.00     0.166 HD
ENDROOT
BRANCH   4  11
HETATM   11  S   UNL     1      24.757  43.683  51.163  1.00  0.00    -0.102 SA
BRANCH  11  12
HETATM   12  C   UNL     1      26.382  43.393  50.370  1.00  0.00     0.184 C 
BRANCH  12  13
HETATM   13  C   UNL     1      27.380  44.230  51.150  1.00  0.00     0.231 C 
HETATM   14  N   UNL     1      27.082  44.292  52.499  1.00  0.00    -0.324 N 
HETATM   15  H   UNL     1      26.111  44.320  52.796  1.00  0.00     0.169 HD
HETATM   16  O   UNL     1      28.403  44.677  50.638  1.00  0.00    -0.272 OA
BRANCH  14  17
HETATM   17  C   UNL     1      27.999  44.016  53.539  1.00  0.00     0.071 A 
HETATM   18  C   UNL     1      28.452  42.692  53.667  1.00  0.00     0.096 A 
HETATM   19  C   UNL     1      29.480  42.399  54.561  1.00  0.00     0.065 A 
HETATM   20  C   UNL     1      30.042  43.420  55.335  1.00  0.00     0.070 A 
HETATM   21 CL   UNL     1      31.350  43.001  56.389  1.00  0.00    -0.081 Cl
HETATM   22  C   UNL     1      29.578  44.740  55.240  1.00  0.00     0.092 A 
HETATM   23  C   UNL     1      28.543  45.024  54.343  1.00  0.00     0.071 A 
BRANCH  18  24
HETATM   24  O   UNL     1      27.876  41.766  52.829  1.00  0.00    -0.354 OA
HETATM   25  C   UNL     1      28.800  40.938  52.126  1.00  0.00     0.210 C 
ENDBRANCH  18  24
BRANCH  22  26
HETATM   26  O   UNL     1      30.202  45.680  56.019  1.00  0.00    -0.354 OA
HETATM   27  C   UNL     1      29.589  46.025  57.257  1.00  0.00     0.210 C 
ENDBRANCH  22  26
ENDBRANCH  14  17
ENDBRANCH  12  13
ENDBRANCH  11  12
ENDBRANCH   4  11
BRANCH   8  28
HETATM   28  C   UNL     1      25.319  48.265  49.498  1.00  0.00    -0.044 A 
HETATM   29  C   UNL     1      26.596  47.757  49.796  1.00  0.00     0.008 A 
HETATM   30  C   UNL     1      27.746  48.401  49.336  1.00  0.00     0.001 A 
HETATM   31  C   UNL     1      27.636  49.568  48.585  1.00  0.00     0.000 A 
HETATM   32  C   UNL     1      26.378  50.091  48.293  1.00  0.00     0.001 A 
HETATM   33  C   UNL     1      25.226  49.448  48.747  1.00  0.00     0.008 A 
ENDBRANCH   8  28
BRANCH   9  34
HETATM   34  C   UNL     1      22.118  48.360  48.448  1.00  0.00     0.255 C 
HETATM   35  N   UNL     1      21.628  49.140  49.468  1.00  0.00    -0.323 N 
HETATM   36  H   UNL     1      21.997  48.994  50.400  1.00  0.00     0.169 HD
HETATM   37  O   UNL     1      21.812  48.435  47.262  1.00  0.00    -0.268 OA
BRANCH  35  38
HETATM   38  C   UNL     1      20.623  50.129  49.383  1.00  0.00     0.035 A 
HETATM   39  C   UNL     1      20.720  51.277  48.596  1.00  0.00     0.029 A 
HETATM   40  C   UNL     1      19.667  52.197  48.552  1.00  0.00     0.002 A 
HETATM   41  C   UNL     1      18.506  51.973  49.286  1.00  0.00     0.000 A 
HETATM   42  C   UNL     1      18.399  50.830  50.075  1.00  0.00     0.002 A 
HETATM   43  C   UNL     1      19.455  49.917  50.129  1.00  0.00     0.029 A 
ENDBRANCH  35  38
ENDBRANCH   9  34
TORSDOF 9
ENDMDL
MODEL 2
REMARK VINA RESULT:     -10.3      2.630      4.208
REMARK  9 active torsions:
REMARK  status: ('A' for Active; 'I' for Inactive)
REMARK    1  A    between atoms: C_4  and  S_5 
REMARK    2  A    between atoms: S_5  and  C_6 
REMARK    3  A    between atoms: C_6  and  C_7 
REMARK       I    between atoms: C_7  and  N_8 
REMARK    4  A    between atoms: N_8  and  C_9 
REMARK    5  A    between atoms: C_10  and  O_11 
REMARK    6  A    between atoms: C_16  and  O_17 
REMARK    7  A    between atoms: C_24  and  C_25 
REMARK    8  A    between atoms: C_31  and  C_32 
REMARK       I    between atoms: C_32  and  N_33 
REMARK    9  A    between atoms: N_33  and  C_34 
ROOT
HETATM    1  C   UNL     1      22.555  44.899  47.850  1.00  0.00     0.069 C 
HETATM    2  C   UNL     1      23.393  45.572  48.907  1.00  0.00     0.019 C 
HETATM    3  N   UNL     1      24.224  44.741  49.644  1.00  0.00    -0.353 N 
HETATM    4  C   UNL     1      24.816  45.100  50.843  1.00  0.00     0.087 C 
HETATM    5  C   UNL     1      24.854  46.405  51.188  1.00  0.00     0.055 C 
HETATM    6  C   UNL     1      25.370  46.892  52.532  1.00  0.00     0.019 C 
HETATM    7  N   UNL     1      25.798  47.297  53.646  1.00  0.00    -0.096 N 
HETATM    8  C   UNL     1      24.308  47.473  50.245  1.00  0.00     0.104 C 
HETATM    9  C   UNL     1      23.376  46.901  49.175  1.00  0.00     0.046 C 
HETATM   10  H   UNL     1      24.177  43.741  49.467  1.00  0.00     0.166 HD
ENDROOT
BRANCH   4  11
HETATM   11  S   UNL     1      25.532  43.884  51.863  1.00  0.00    -0.102 SA
BRANCH  11  12
HETATM   12  C   UNL     1      27.312  44.152  51.527  1.00  0.00     0.184 C 
BRANCH  12  13
HETATM   13  C   UNL     1      27.985  42.812  51.764  1.00  0.00     0.231 C 
HETATM   14  N   UNL     1      27.182  41.745  51.410  1.00  0.00    -0.324 N 
HETATM   15  H   UNL     1      26.180  41.800  51.563  1.00  0.00     0.169 HD
HETATM   16  O   UNL     1      29.162  42.721  52.103  1.00  0.00    -0.272 OA
BRANCH  14  17
HETATM   17  C   UNL     1      27.581  40.681  50.569  1.00  0.00     0.071 A 
HETATM   18  C   UNL     1      27.060  40.657  49.265  1.00  0.00     0.096 A 
HETATM   19  C   UNL     1      27.550  39.733  48.343  1.00  0.00     0.065 A 
HETATM   20  C   UNL     1      28.544  38.827  48.727  1.00  0.00     0.070 A 
HETATM   21 CL   UNL     1      29.146  37.738  47.523  1.00  0.00    -0.081 Cl
HETATM   22  C   UNL     1      29.051  38.819  50.035  1.00  0.00     0.092 A 
HETATM   23  C   UNL     1      28.551  39.747  50.953  1.00  0.00     0.071 A 
BRANCH  18  24
HETATM   24  O   UNL     1      26.123  41.618  48.965  1.00  0.00    -0.354 OA
HETATM   25  C   UNL     1      24.808  41.119  48.727  1.00  0.00     0.210 C 
ENDBRANCH  18  24
BRANCH  22  26
HETATM   26  O   UNL     1      30.040  37.912  50.315  1.00  0.00    -0.354 OA
HETATM   27  C   UNL     1      29.756  36.902  51.279  1.00  0.00     0.210 C 
ENDBRANCH  22  26
ENDBRANCH  14  17
ENDBRANCH  12  13
ENDBRANCH  11  12
ENDBRANCH   4  11
BRANCH   8  28
HETATM   28  C   UNL     1      25.479  48.259  49.642  1.00  0.00    -0.044 A 
HETATM   29  C   UNL     1      25.263  49.395  48.842  1.00  0.00     0.008 A 
HETATM   30  C   UNL     1      26.337  50.091  48.286  1.00  0.00     0.001 A 
HETATM   31  C   UNL     1      27.640  49.654  48.510  1.00  0.00     0.000 A 
HETATM   32  C   UNL     1      27.870  48.523  49.288  1.00  0.00     0.001 A 
HETATM   33  C   UNL     1      26.798  47.826  49.850  1.00  0.00     0.008 A 
ENDBRANCH   8  28
BRANCH   9  34
HETATM   34  C   UNL     1      22.306  47.784  48.609  1.00  0.00     0.255 C 
HETATM   35  N   UNL     1      21.711  48.618  49.526  1.00  0.00    -0.323 N 
HETATM   36  H   UNL     1      22.092  48.644  50.463  1.00  0.00     0.169 HD
HETATM   37  O   UNL     1      21.998  47.663  47.426  1.00  0.00    -0.268 OA
BRANCH  35  38
HETATM   38  C   UNL     1      20.583  49.444  49.326  1.00  0.00     0.035 A 
HETATM   39  C   UNL     1      19.265  49.028  49.513  1.00  0.00     0.029 A 
HETATM   40  C   UNL     1      18.205  49.918  49.314  1.00  0.00     0.002 A 
HETATM   41  C   UNL     1      18.454  51.235  48.936  1.00  0.00     0.000 A 
HETATM   42  C   UNL     1      19.767  51.660  48.746  1.00  0.00     0.002 A 
HETATM   43  C   UNL     1      20.824  50.767  48.932  1.00  0.00     0.029 A 
ENDBRANCH  35  38
ENDBRANCH   9  34
TORSDOF 9
ENDMDL
MODEL 3
REMARK VINA RESULT:     -10.1      3.455      4.904
REMARK  9 active torsions:
REMARK  status: ('A' for Active; 'I' for Inactive)
REMARK    1  A    between atoms: C_4  and  S_5 
REMARK    2  A    between atoms: S_5  and  C_6 
REMARK    3  A    between atoms: C_6  and  C_7 
REMARK       I    between atoms: C_7  and  N_8 
REMARK    4  A    between atoms: N_8  and  C_9 
REMARK    5  A    between atoms: C_10  and  O_11 
REMARK    6  A    between atoms: C_16  and  O_17 
REMARK    7  A    between atoms: C_24  and  C_25 
REMARK    8  A    between atoms: C_31  and  C_32 
REMARK       I    between atoms: C_32  and  N_33 
REMARK    9  A    between atoms: N_33  and  C_34 
ROOT
HETATM    1  C   UNL     1      22.294  45.193  47.628  1.00  0.00     0.069 C 
HETATM    2  C   UNL     1      23.192  45.744  48.706  1.00  0.00     0.019 C 
HETATM    3  N   UNL     1      24.002  44.822  49.353  1.00  0.00    -0.353 N 
HETATM    4  C   UNL     1      24.644  45.062  50.556  1.00  0.00     0.087 C 
HETATM    5  C   UNL     1      24.754  46.335  50.995  1.00  0.00     0.055 C 
HETATM    6  C   UNL     1      25.331  46.694  52.355  1.00  0.00     0.019 C 
HETATM    7  N   UNL     1      25.809  46.993  53.482  1.00  0.00    -0.096 N 
HETATM    8  C   UNL     1      24.235  47.494  50.151  1.00  0.00     0.104 C 
HETATM    9  C   UNL     1      23.248  47.049  49.072  1.00  0.00     0.046 C 
HETATM   10  H   UNL     1      23.900  43.842  49.104  1.00  0.00     0.166 HD
ENDROOT
BRANCH   4  11
HETATM   11  S   UNL     1      25.326  43.740  51.461  1.00  0.00    -0.102 SA
BRANCH  11  12
HETATM   12  C   UNL     1      26.715  43.255  50.370  1.00  0.00     0.184 C 
BRANCH  12  13
HETATM   13  C   UNL     1      26.149  42.222  49.412  1.00  0.00     0.231 C 
HETATM   14  N   UNL     1      27.019  41.920  48.382  1.00  0.00    -0.324 N 
HETATM   15  H   UNL     1      27.605  42.651  47.991  1.00  0.00     0.169 HD
HETATM   16  O   UNL     1      25.090  41.637  49.629  1.00  0.00    -0.272 OA
BRANCH  14  17
HETATM   17  C   UNL     1      27.400  40.611  48.007  1.00  0.00     0.071 A 
HETATM   18  C   UNL     1      26.868  40.100  46.811  1.00  0.00     0.096 A 
HETATM   19  C   UNL     1      27.339  38.889  46.309  1.00  0.00     0.065 A 
HETATM   20  C   UNL     1      28.325  38.183  47.005  1.00  0.00     0.070 A 
HETATM   21 CL   UNL     1      28.905  36.710  46.304  1.00  0.00    -0.081 Cl
HETATM   22  C   UNL     1      28.843  38.666  48.216  1.00  0.00     0.092 A 
HETATM   23  C   UNL     1      28.361  39.880  48.714  1.00  0.00     0.071 A 
BRANCH  18  24
HETATM   24  O   UNL     1      25.940  40.889  46.170  1.00  0.00    -0.354 OA
HETATM   25  C   UNL     1      24.615  40.361  46.154  1.00  0.00     0.210 C 
ENDBRANCH  18  24
BRANCH  22  26
HETATM   26  O   UNL     1      29.823  37.919  48.818  1.00  0.00    -0.354 OA
HETATM   27  C   UNL     1      29.914  37.971  50.239  1.00  0.00     0.210 C 
ENDBRANCH  22  26
ENDBRANCH  14  17
ENDBRANCH  12  13
ENDBRANCH  11  12
ENDBRANCH   4  11
BRANCH   8  28
HETATM   28  C   UNL     1      25.427  48.268  49.572  1.00  0.00    -0.044 A 
HETATM   29  C   UNL     1      26.752  47.877  49.836  1.00  0.00     0.008 A 
HETATM   30  C   UNL     1      27.826  48.599  49.317  1.00  0.00     0.001 A 
HETATM   31  C   UNL     1      27.593  49.729  48.537  1.00  0.00     0.000 A 
HETATM   32  C   UNL     1      26.287  50.137  48.277  1.00  0.00     0.001 A 
HETATM   33  C   UNL     1      25.209  49.415  48.792  1.00  0.00     0.008 A 
ENDBRANCH   8  28
BRANCH   9  34
HETATM   34  C   UNL     1      22.207  48.021  48.606  1.00  0.00     0.255 C 
HETATM   35  N   UNL     1      21.699  48.829  49.595  1.00  0.00    -0.323 N 
HETATM   36  H   UNL     1      22.120  48.779  50.514  1.00  0.00     0.169 HD
HETATM   37  O   UNL     1      21.844  47.989  47.433  1.00  0.00    -0.268 OA
BRANCH  35  38
HETATM   38  C   UNL     1      20.613  49.726  49.494  1.00  0.00     0.035 A 
HETATM   39  C   UNL     1      20.713  51.023  48.988  1.00  0.00     0.029 A 
HETATM   40  C   UNL     1      19.581  51.840  48.903  1.00  0.00     0.002 A 
HETATM   41  C   UNL     1      18.338  51.365  49.313  1.00  0.00     0.000 A 
HETATM   42  C   UNL     1      18.228  50.072  49.821  1.00  0.00     0.002 A 
HETATM   43  C   UNL     1      19.361  49.261  49.917  1.00  0.00     0.029 A 
ENDBRANCH  35  38
ENDBRANCH   9  34
TORSDOF 9
ENDMDL
MODEL 4
REMARK VINA RESULT:     -10.0      4.225     10.417
REMARK  9 active torsions:
REMARK  status: ('A' for Active; 'I' for Inactive)
REMARK    1  A    between atoms: C_4  and  S_5 
REMARK    2  A    between atoms: S_5  and  C_6 
REMARK    3  A    between atoms: C_6  and  C_7 
REMARK       I    between atoms: C_7  and  N_8 
REMARK    4  A    between atoms: N_8  and  C_9 
REMARK    5  A    between atoms: C_10  and  O_11 
REMARK    6  A    between atoms: C_16  and  O_17 
REMARK    7  A    between atoms: C_24  and  C_25 
REMARK    8  A    between atoms: C_31  and  C_32 
REMARK       I    between atoms: C_32  and  N_33 
REMARK    9  A    between atoms: N_33  and  C_34 
ROOT
HETATM    1  C   UNL     1      22.642  43.692  49.591  1.00  0.00     0.069 C 
HETATM    2  C   UNL     1      23.722  44.714  49.835  1.00  0.00     0.019 C 
HETATM    3  N   UNL     1      23.339  46.043  49.723  1.00  0.00    -0.353 N 
HETATM    4  C   UNL     1      24.226  47.099  49.593  1.00  0.00     0.087 C 
HETATM    5  C   UNL     1      25.529  46.897  49.886  1.00  0.00     0.055 C 
HETATM    6  C   UNL     1      26.600  47.952  49.662  1.00  0.00     0.019 C 
HETATM    7  N   UNL     1      27.489  48.825  49.475  1.00  0.00    -0.096 N 
HETATM    8  C   UNL     1      26.006  45.546  50.410  1.00  0.00     0.104 C 
HETATM    9  C   UNL     1      25.010  44.418  50.140  1.00  0.00     0.046 C 
HETATM   10  H   UNL     1      22.385  46.241  49.435  1.00  0.00     0.166 HD
ENDROOT
BRANCH   4  11
HETATM   11  S   UNL     1      23.651  48.665  49.096  1.00  0.00    -0.102 SA
BRANCH  11  12
HETATM   12  C   UNL     1      22.337  48.193  47.911  1.00  0.00     0.184 C 
BRANCH  12  13
HETATM   13  C   UNL     1      21.033  48.274  48.684  1.00  0.00     0.231 C 
HETATM   14  N   UNL     1      20.731  49.563  49.081  1.00  0.00    -0.324 N 
HETATM   15  H   UNL     1      21.480  50.190  49.357  1.00  0.00     0.169 HD
HETATM   16  O   UNL     1      20.283  47.309  48.809  1.00  0.00    -0.272 OA
BRANCH  14  17
HETATM   17  C   UNL     1      19.492  50.205  48.857  1.00  0.00     0.071 A 
HETATM   18  C   UNL     1      18.646  50.384  49.964  1.00  0.00     0.096 A 
HETATM   19  C   UNL     1      17.494  51.158  49.835  1.00  0.00     0.065 A 
HETATM   20  C   UNL     1      17.180  51.737  48.600  1.00  0.00     0.070 A 
HETATM   21 CL   UNL     1      15.763  52.729  48.517  1.00  0.00    -0.081 Cl
HETATM   22  C   UNL     1      17.999  51.541  47.479  1.00  0.00     0.092 A 
HETATM   23  C   UNL     1      19.150  50.760  47.618  1.00  0.00     0.071 A 
BRANCH  18  24
HETATM   24  O   UNL     1      19.063  49.820  51.148  1.00  0.00    -0.354 OA
HETATM   25  C   UNL     1      18.468  48.560  51.452  1.00  0.00     0.210 C 
ENDBRANCH  18  24
BRANCH  22  26
HETATM   26  O   UNL     1      17.626  52.166  46.317  1.00  0.00    -0.354 OA
HETATM   27  C   UNL     1      17.666  51.403  45.115  1.00  0.00     0.210 C 
ENDBRANCH  22  26
ENDBRANCH  14  17
ENDBRANCH  12  13
ENDBRANCH  11  12
ENDBRANCH   4  11
BRANCH   8  28
HETATM   28  C   UNL     1      26.353  45.678  51.898  1.00  0.00    -0.044 A 
HETATM   29  C   UNL     1      27.290  44.825  52.509  1.00  0.00     0.008 A 
HETATM   30  C   UNL     1      27.585  44.946  53.868  1.00  0.00     0.001 A 
HETATM   31  C   UNL     1      26.938  45.909  54.638  1.00  0.00     0.000 A 
HETATM   32  C   UNL     1      25.997  46.751  54.051  1.00  0.00     0.001 A 
HETATM   33  C   UNL     1      25.703  46.638  52.691  1.00  0.00     0.008 A 
ENDBRANCH   8  28
BRANCH   9  34
HETATM   34  C   UNL     1      25.530  43.020  49.997  1.00  0.00     0.255 C 
HETATM   35  N   UNL     1      26.061  42.734  48.761  1.00  0.00    -0.323 N 
HETATM   36  H   UNL     1      26.149  43.490  48.094  1.00  0.00     0.169 HD
HETATM   37  O   UNL     1      25.394  42.235  50.930  1.00  0.00    -0.268 OA
BRANCH  35  38
HETATM   38  C   UNL     1      26.485  41.476  48.282  1.00  0.00     0.035 A 
HETATM   39  C   UNL     1      27.807  41.029  48.315  1.00  0.00     0.029 A 
HETATM   40  C   UNL     1      28.138  39.757  47.839  1.00  0.00     0.002 A 
HETATM   41  C   UNL     1      27.151  38.916  47.334  1.00  0.00     0.000 A 
HETATM   42  C   UNL     1      25.828  39.351  47.296  1.00  0.00     0.002 A 
HETATM   43  C   UNL     1      25.499  40.627  47.760  1.00  0.00     0.029 A 
ENDBRANCH  35  38
ENDBRANCH   9  34
TORSDOF 9
ENDMDL
MODEL 5
REMARK VINA RESULT:     -10.0      3.402      5.051
REMARK  9 active torsions:
REMARK  status: ('A' for Active; 'I' for Inactive)
REMARK    1  A    between atoms: C_4  and  S_5 
REMARK    2  A    between atoms: S_5  and  C_6 
REMARK    3  A    between atoms: C_6  and  C_7 
REMARK       I    between atoms: C_7  and  N_8 
REMARK    4  A    between atoms: N_8  and  C_9 
REMARK    5  A    between atoms: C_10  and  O_11 
REMARK    6  A    between atoms: C_16  and  O_17 
REMARK    7  A    between atoms: C_24  and  C_25 
REMARK    8  A    between atoms: C_31  and  C_32 
REMARK       I    between atoms: C_32  and  N_33 
REMARK    9  A    between atoms: N_33  and  C_34 
ROOT
HETATM    1  C   UNL     1      22.386  45.051  47.715  1.00  0.00     0.069 C 
HETATM    2  C   UNL     1      23.268  45.648  48.782  1.00  0.00     0.019 C 
HETATM    3  N   UNL     1      24.089  44.758  49.461  1.00  0.00    -0.353 N 
HETATM    4  C   UNL     1      24.719  45.042  50.660  1.00  0.00     0.087 C 
HETATM    5  C   UNL     1      24.806  46.328  51.064  1.00  0.00     0.055 C 
HETATM    6  C   UNL     1      25.368  46.736  52.416  1.00  0.00     0.019 C 
HETATM    7  N   UNL     1      25.833  47.074  53.537  1.00  0.00    -0.096 N 
HETATM    8  C   UNL     1      24.273  47.455  50.183  1.00  0.00     0.104 C 
HETATM    9  C   UNL     1      23.300  46.962  49.111  1.00  0.00     0.046 C 
HETATM   10  H   UNL     1      24.005  43.769  49.239  1.00  0.00     0.166 HD
ENDROOT
BRANCH   4  11
HETATM   11  S   UNL     1      25.417  43.758  51.606  1.00  0.00    -0.102 SA
BRANCH  11  12
HETATM   12  C   UNL     1      25.207  42.337  50.469  1.00  0.00     0.184 C 
BRANCH  12  13
HETATM   13  C   UNL     1      26.590  42.043  49.914  1.00  0.00     0.231 C 
HETATM   14  N   UNL     1      26.954  40.719  50.071  1.00  0.00    -0.324 N 
HETATM   15  H   UNL     1      26.666  40.216  50.904  1.00  0.00     0.169 HD
HETATM   16  O   UNL     1      27.233  42.876  49.280  1.00  0.00    -0.272 OA
BRANCH  14  17
HETATM   17  C   UNL     1      27.444  39.891  49.034  1.00  0.00     0.071 A 
HETATM   18  C   UNL     1      28.530  39.052  49.335  1.00  0.00     0.096 A 
HETATM   19  C   UNL     1      28.941  38.097  48.408  1.00  0.00     0.065 A 
HETATM   20  C   UNL     1      28.281  37.991  47.179  1.00  0.00     0.070 A 
HETATM   21 CL   UNL     1      28.807  36.751  46.091  1.00  0.00    -0.081 Cl
HETATM   22  C   UNL     1      27.215  38.842  46.853  1.00  0.00     0.092 A 
HETATM   23  C   UNL     1      26.813  39.800  47.788  1.00  0.00     0.071 A 
BRANCH  18  24
HETATM   24  O   UNL     1      29.083  39.196  50.587  1.00  0.00    -0.354 OA
HETATM   25  C   UNL     1      29.827  38.068  51.046  1.00  0.00     0.210 C 
ENDBRANCH  18  24
BRANCH  22  26
HETATM   26  O   UNL     1      26.613  38.650  45.637  1.00  0.00    -0.354 OA
HETATM   27  C   UNL     1      25.431  39.396  45.360  1.00  0.00     0.210 C 
ENDBRANCH  22  26
ENDBRANCH  14  17
ENDBRANCH  12  13
ENDBRANCH  11  12
ENDBRANCH   4  11
BRANCH   8  28
HETATM   28  C   UNL     1      25.456  48.231  49.589  1.00  0.00    -0.044 A 
HETATM   29  C   UNL     1      26.783  47.811  49.792  1.00  0.00     0.008 A 
HETATM   30  C   UNL     1      27.850  48.536  49.259  1.00  0.00     0.001 A 
HETATM   31  C   UNL     1      27.607  49.696  48.530  1.00  0.00     0.000 A 
HETATM   32  C   UNL     1      26.300  50.134  48.333  1.00  0.00     0.001 A 
HETATM   33  C   UNL     1      25.229  49.409  48.860  1.00  0.00     0.008 A 
ENDBRANCH   8  28
BRANCH   9  34
HETATM   34  C   UNL     1      22.247  47.904  48.611  1.00  0.00     0.255 C 
HETATM   35  N   UNL     1      21.698  48.710  49.580  1.00  0.00    -0.323 N 
HETATM   36  H   UNL     1      22.098  48.680  50.509  1.00  0.00     0.169 HD
HETATM   37  O   UNL     1      21.911  47.850  47.432  1.00  0.00    -0.268 OA
BRANCH  35  38
HETATM   38  C   UNL     1      20.593  49.579  49.445  1.00  0.00     0.035 A 
HETATM   39  C   UNL     1      19.286  49.246  49.805  1.00  0.00     0.029 A 
HETATM   40  C   UNL     1      18.251  50.175  49.659  1.00  0.00     0.002 A 
HETATM   41  C   UNL     1      18.515  51.448  49.160  1.00  0.00     0.000 A 
HETATM   42  C   UNL     1      19.815  51.791  48.797  1.00  0.00     0.002 A 
HETATM   43  C   UNL     1      20.846  50.858  48.931  1.00  0.00     0.029 A 
ENDBRANCH  35  38
ENDBRANCH   9  34
TORSDOF 9
ENDMDL
MODEL 6
REMARK VINA RESULT:      -9.9      3.586     10.153
REMARK  9 active torsions:
REMARK  status: ('A' for Active; 'I' for Inactive)
REMARK    1  A    between atoms: C_4  and  S_5 
REMARK    2  A    between atoms: S_5  and  C_6 
REMARK    3  A    between atoms: C_6  and  C_7 
REMARK       I    between atoms: C_7  and  N_8 
REMARK    4  A    between atoms: N_8  and  C_9 
REMARK    5  A    between atoms: C_10  and  O_11 
REMARK    6  A    between atoms: C_16  and  O_17 
REMARK    7  A    between atoms: C_24  and  C_25 
REMARK    8  A    between atoms: C_31  and  C_32 
REMARK       I    between atoms: C_32  and  N_33 
REMARK    9  A    between atoms: N_33  and  C_34 
ROOT
HETATM    1  C   UNL     1      26.548  46.368  50.380  1.00  0.00     0.069 C 
HETATM    2  C   UNL     1      25.947  45.054  49.953  1.00  0.00     0.019 C 
HETATM    3  N   UNL     1      25.211  45.075  48.777  1.00  0.00    -0.353 N 
HETATM    4  C   UNL     1      24.333  44.076  48.392  1.00  0.00     0.087 C 
HETATM    5  C   UNL     1      24.395  42.878  49.012  1.00  0.00     0.055 C 
HETATM    6  C   UNL     1      23.400  41.758  48.750  1.00  0.00     0.019 C 
HETATM    7  N   UNL     1      22.576  40.829  48.534  1.00  0.00    -0.096 N 
HETATM    8  C   UNL     1      25.455  42.608  50.075  1.00  0.00     0.104 C 
HETATM    9  C   UNL     1      26.075  43.888  50.635  1.00  0.00     0.046 C 
HETATM   10  H   UNL     1      25.079  45.970  48.314  1.00  0.00     0.166 HD
ENDROOT
BRANCH   4  11
HETATM   11  S   UNL     1      23.197  44.361  47.104  1.00  0.00    -0.102 SA
BRANCH  11  12
HETATM   12  C   UNL     1      21.828  45.162  48.018  1.00  0.00     0.184 C 
BRANCH  12  13
HETATM   13  C   UNL     1      22.280  46.589  48.274  1.00  0.00     0.231 C 
HETATM   14  N   UNL     1      21.646  47.502  47.452  1.00  0.00    -0.324 N 
HETATM   15  H   UNL     1      21.424  47.244  46.496  1.00  0.00     0.169 HD
HETATM   16  O   UNL     1      23.024  46.885  49.206  1.00  0.00    -0.272 OA
BRANCH  14  17
HETATM   17  C   UNL     1      20.997  48.675  47.901  1.00  0.00     0.071 A 
HETATM   18  C   UNL     1      21.686  49.891  47.758  1.00  0.00     0.096 A 
HETATM   19  C   UNL     1      21.030  51.091  48.025  1.00  0.00     0.065 A 
HETATM   20  C   UNL     1      19.697  51.076  48.449  1.00  0.00     0.070 A 
HETATM   21 CL   UNL     1      18.923  52.602  48.715  1.00  0.00    -0.081 Cl
HETATM   22  C   UNL     1      19.007  49.868  48.626  1.00  0.00     0.092 A 
HETATM   23  C   UNL     1      19.675  48.670  48.360  1.00  0.00     0.071 A 
BRANCH  18  24
HETATM   24  O   UNL     1      22.977  49.809  47.287  1.00  0.00    -0.354 OA
HETATM   25  C   UNL     1      23.982  50.181  48.228  1.00  0.00     0.210 C 
ENDBRANCH  18  24
BRANCH  22  26
HETATM   26  O   UNL     1      17.697  49.951  49.022  1.00  0.00    -0.354 OA
HETATM   27  C   UNL     1      16.694  49.782  48.025  1.00  0.00     0.210 C 
ENDBRANCH  22  26
ENDBRANCH  14  17
ENDBRANCH  12  13
ENDBRANCH  11  12
ENDBRANCH   4  11
BRANCH   8  28
HETATM   28  C   UNL     1      26.507  41.648  49.505  1.00  0.00    -0.044 A 
HETATM   29  C   UNL     1      27.023  41.815  48.207  1.00  0.00     0.008 A 
HETATM   30  C   UNL     1      27.967  40.925  47.695  1.00  0.00     0.001 A 
HETATM   31  C   UNL     1      28.399  39.849  48.465  1.00  0.00     0.000 A 
HETATM   32  C   UNL     1      27.888  39.662  49.747  1.00  0.00     0.001 A 
HETATM   33  C   UNL     1      26.946  40.552  50.266  1.00  0.00     0.008 A 
ENDBRANCH   8  28
BRANCH   9  34
HETATM   34  C   UNL     1      26.613  43.873  52.034  1.00  0.00     0.255 C 
HETATM   35  N   UNL     1      27.976  44.025  52.121  1.00  0.00    -0.323 N 
HETATM   36  H   UNL     1      28.488  44.228  51.272  1.00  0.00     0.169 HD
HETATM   37  O   UNL     1      25.841  43.668  52.966  1.00  0.00    -0.268 OA
BRANCH  35  38
HETATM   38  C   UNL     1      28.778  43.901  53.277  1.00  0.00     0.035 A 
HETATM   39  C   UNL     1      29.743  42.909  53.458  1.00  0.00     0.029 A 
HETATM   40  C   UNL     1      30.511  42.871  54.625  1.00  0.00     0.002 A 
HETATM   41  C   UNL     1      30.329  43.830  55.618  1.00  0.00     0.000 A 
HETATM   42  C   UNL     1      29.369  44.825  55.448  1.00  0.00     0.002 A 
HETATM   43  C   UNL     1      28.593  44.855  54.287  1.00  0.00     0.029 A 
ENDBRANCH  35  38
ENDBRANCH   9  34
TORSDOF 9
ENDMDL
MODEL 7
REMARK VINA RESULT:      -9.8      2.609      4.323
REMARK  9 active torsions:
REMARK  status: ('A' for Active; 'I' for Inactive)
REMARK    1  A    between atoms: C_4  and  S_5 
REMARK    2  A    between atoms: S_5  and  C_6 
REMARK    3  A    between atoms: C_6  and  C_7 
REMARK       I    between atoms: C_7  and  N_8 
REMARK    4  A    between atoms: N_8  and  C_9 
REMARK    5  A    between atoms: C_10  and  O_11 
REMARK    6  A    between atoms: C_16  and  O_17 
REMARK    7  A    between atoms: C_24  and  C_25 
REMARK    8  A    between atoms: C_31  and  C_32 
REMARK       I    between atoms: C_32  and  N_33 
REMARK    9  A    between atoms: N_33  and  C_34 
ROOT
HETATM    1  C   UNL     1      21.872  45.951  47.059  1.00  0.00     0.069 C 
HETATM    2  C   UNL     1      22.830  46.185  48.199  1.00  0.00     0.019 C 
HETATM    3  N   UNL     1      23.553  45.079  48.623  1.00  0.00    -0.353 N 
HETATM    4  C   UNL     1      24.227  45.008  49.830  1.00  0.00     0.087 C 
HETATM    5  C   UNL     1      24.465  46.149  50.513  1.00  0.00     0.055 C 
HETATM    6  C   UNL     1      25.087  46.169  51.900  1.00  0.00     0.019 C 
HETATM    7  N   UNL     1      25.603  46.187  53.050  1.00  0.00    -0.096 N 
HETATM    8  C   UNL     1      24.053  47.499  49.936  1.00  0.00     0.104 C 
HETATM    9  C   UNL     1      23.016  47.376  48.819  1.00  0.00     0.046 C 
HETATM   10  H   UNL     1      23.355  44.184  48.184  1.00  0.00     0.166 HD
ENDROOT
BRANCH   4  11
HETATM   11  S   UNL     1      24.787  43.473  50.429  1.00  0.00    -0.102 SA
BRANCH  11  12
HETATM   12  C   UNL     1      24.139  42.342  49.143  1.00  0.00     0.184 C 
BRANCH  12  13
HETATM   13  C   UNL     1      25.358  41.776  48.435  1.00  0.00     0.231 C 
HETATM   14  N   UNL     1      26.515  41.911  49.181  1.00  0.00    -0.324 N 
HETATM   15  H   UNL     1      26.647  42.737  49.755  1.00  0.00     0.169 HD
HETATM   16  O   UNL     1      25.274  41.153  47.380  1.00  0.00    -0.272 OA
BRANCH  14  17
HETATM   17  C   UNL     1      27.417  40.860  49.462  1.00  0.00     0.071 A 
HETATM   18  C   UNL     1      28.151  40.940  50.657  1.00  0.00     0.096 A 
HETATM   19  C   UNL     1      28.925  39.855  51.066  1.00  0.00     0.065 A 
HETATM   20  C   UNL     1      28.977  38.701  50.276  1.00  0.00     0.070 A 
HETATM   21 CL   UNL     1      29.915  37.369  50.864  1.00  0.00    -0.081 Cl
HETATM   22  C   UNL     1      28.274  38.619  49.066  1.00  0.00     0.092 A 
HETATM   23  C   UNL     1      27.505  39.714  48.662  1.00  0.00     0.071 A 
BRANCH  18  24
HETATM   24  O   UNL     1      27.997  42.093  51.392  1.00  0.00    -0.354 OA
HETATM   25  C   UNL     1      27.781  41.890  52.787  1.00  0.00     0.210 C 
ENDBRANCH  18  24
BRANCH  22  26
HETATM   26  O   UNL     1      28.366  37.442  48.369  1.00  0.00    -0.354 OA
HETATM   27  C   UNL     1      28.775  37.510  47.007  1.00  0.00     0.210 C 
ENDBRANCH  22  26
ENDBRANCH  14  17
ENDBRANCH  12  13
ENDBRANCH  11  12
ENDBRANCH   4  11
BRANCH   8  28
HETATM   28  C   UNL     1      25.308  48.260  49.489  1.00  0.00    -0.044 A 
HETATM   29  C   UNL     1      25.216  49.456  48.754  1.00  0.00     0.008 A 
HETATM   30  C   UNL     1      26.366  50.129  48.340  1.00  0.00     0.001 A 
HETATM   31  C   UNL     1      27.622  49.612  48.643  1.00  0.00     0.000 A 
HETATM   32  C   UNL     1      27.730  48.422  49.358  1.00  0.00     0.001 A 
HETATM   33  C   UNL     1      26.582  47.747  49.778  1.00  0.00     0.008 A 
ENDBRANCH   8  28
BRANCH   9  34
HETATM   34  C   UNL     1      22.070  48.516  48.589  1.00  0.00     0.255 C 
HETATM   35  N   UNL     1      21.124  48.678  49.573  1.00  0.00    -0.323 N 
HETATM   36  H   UNL     1      21.193  48.099  50.401  1.00  0.00     0.169 HD
HETATM   37  O   UNL     1      22.157  49.161  47.548  1.00  0.00    -0.268 OA
BRANCH  35  38
HETATM   38  C   UNL     1      20.018  49.556  49.561  1.00  0.00     0.035 A 
HETATM   39  C   UNL     1      18.709  49.164  49.281  1.00  0.00     0.029 A 
HETATM   40  C   UNL     1      17.667  50.095  49.312  1.00  0.00     0.002 A 
HETATM   41  C   UNL     1      17.922  51.426  49.633  1.00  0.00     0.000 A 
HETATM   42  C   UNL     1      19.226  51.829  49.914  1.00  0.00     0.002 A 
HETATM   43  C   UNL     1      20.268  50.900  49.871  1.00  0.00     0.029 A 
ENDBRANCH  35  38
ENDBRANCH   9  34
TORSDOF 9
ENDMDL
MODEL 8
REMARK VINA RESULT:      -9.6      3.224      9.354
REMARK  9 active torsions:
REMARK  status: ('A' for Active; 'I' for Inactive)
REMARK    1  A    between atoms: C_4  and  S_5 
REMARK    2  A    between atoms: S_5  and  C_6 
REMARK    3  A    between atoms: C_6  and  C_7 
REMARK       I    between atoms: C_7  and  N_8 
REMARK    4  A    between atoms: N_8  and  C_9 
REMARK    5  A    between atoms: C_10  and  O_11 
REMARK    6  A    between atoms: C_16  and  O_17 
REMARK    7  A    between atoms: C_24  and  C_25 
REMARK    8  A    between atoms: C_31  and  C_32 
REMARK       I    between atoms: C_32  and  N_33 
REMARK    9  A    between atoms: N_33  and  C_34 
ROOT
HETATM    1  C   UNL     1      26.100  46.258  49.995  1.00  0.00     0.069 C 
HETATM    2  C   UNL     1      25.578  44.910  49.570  1.00  0.00     0.019 C 
HETATM    3  N   UNL     1      24.823  44.889  48.405  1.00  0.00    -0.353 N 
HETATM    4  C   UNL     1      24.005  43.837  48.028  1.00  0.00     0.087 C 
HETATM    5  C   UNL     1      24.155  42.642  48.640  1.00  0.00     0.055 C 
HETATM    6  C   UNL     1      23.231  41.462  48.387  1.00  0.00     0.019 C 
HETATM    7  N   UNL     1      22.465  40.483  48.178  1.00  0.00    -0.096 N 
HETATM    8  C   UNL     1      25.247  42.436  49.684  1.00  0.00     0.104 C 
HETATM    9  C   UNL     1      25.792  43.752  50.242  1.00  0.00     0.046 C 
HETATM   10  H   UNL     1      24.626  45.776  47.950  1.00  0.00     0.166 HD
ENDROOT
BRANCH   4  11
HETATM   11  S   UNL     1      22.833  44.054  46.760  1.00  0.00    -0.102 SA
BRANCH  11  12
HETATM   12  C   UNL     1      21.287  44.182  47.733  1.00  0.00     0.184 C 
BRANCH  12  13
HETATM   13  C   UNL     1      20.789  45.603  47.536  1.00  0.00     0.231 C 
HETATM   14  N   UNL     1      20.800  46.336  48.708  1.00  0.00    -0.324 N 
HETATM   15  H   UNL     1      20.579  45.879  49.587  1.00  0.00     0.169 HD
HETATM   16  O   UNL     1      20.541  46.062  46.425  1.00  0.00    -0.272 OA
BRANCH  14  17
HETATM   17  C   UNL     1      21.387  47.615  48.852  1.00  0.00     0.071 A 
HETATM   18  C   UNL     1      20.535  48.685  49.168  1.00  0.00     0.096 A 
HETATM   19  C   UNL     1      21.078  49.928  49.488  1.00  0.00     0.065 A 
HETATM   20  C   UNL     1      22.466  50.105  49.476  1.00  0.00     0.070 A 
HETATM   21 CL   UNL     1      23.080  51.658  49.931  1.00  0.00    -0.081 Cl
HETATM   22  C   UNL     1      23.327  49.053  49.131  1.00  0.00     0.092 A 
HETATM   23  C   UNL     1      22.772  47.811  48.808  1.00  0.00     0.071 A 
BRANCH  18  24
HETATM   24  O   UNL     1      19.188  48.403  49.205  1.00  0.00    -0.354 OA
HETATM   25  C   UNL     1      18.575  48.575  50.481  1.00  0.00     0.210 C 
ENDBRANCH  18  24
BRANCH  22  26
HETATM   26  O   UNL     1      24.673  49.311  49.169  1.00  0.00    -0.354 OA
HETATM   27  C   UNL     1      25.283  49.809  47.982  1.00  0.00     0.210 C 
ENDBRANCH  22  26
ENDBRANCH  14  17
ENDBRANCH  12  13
ENDBRANCH  11  12
ENDBRANCH   4  11
BRANCH   8  28
HETATM   28  C   UNL     1      26.350  41.550  49.092  1.00  0.00    -0.044 A 
HETATM   29  C   UNL     1      26.997  40.570  49.866  1.00  0.00     0.008 A 
HETATM   30  C   UNL     1      28.010  39.782  49.319  1.00  0.00     0.001 A 
HETATM   31  C   UNL     1      28.400  39.971  47.996  1.00  0.00     0.000 A 
HETATM   32  C   UNL     1      27.779  40.946  47.220  1.00  0.00     0.001 A 
HETATM   33  C   UNL     1      26.762  41.734  47.762  1.00  0.00     0.008 A 
ENDBRANCH   8  28
BRANCH   9  34
HETATM   34  C   UNL     1      26.352  43.764  51.632  1.00  0.00     0.255 C 
HETATM   35  N   UNL     1      27.716  43.923  51.695  1.00  0.00    -0.323 N 
HETATM   36  H   UNL     1      28.214  44.112  50.834  1.00  0.00     0.169 HD
HETATM   37  O   UNL     1      25.596  43.573  52.581  1.00  0.00    -0.268 OA
BRANCH  35  38
HETATM   38  C   UNL     1      28.537  43.824  52.839  1.00  0.00     0.035 A 
HETATM   39  C   UNL     1      28.372  44.594  53.991  1.00  0.00     0.029 A 
HETATM   40  C   UNL     1      29.218  44.416  55.090  1.00  0.00     0.002 A 
HETATM   41  C   UNL     1      30.231  43.462  55.051  1.00  0.00     0.000 A 
HETATM   42  C   UNL     1      30.405  42.689  53.906  1.00  0.00     0.002 A 
HETATM   43  C   UNL     1      29.568  42.875  52.804  1.00  0.00     0.029 A 
ENDBRANCH  35  38
ENDBRANCH   9  34
TORSDOF 9
ENDMDL
MODEL 9
REMARK VINA RESULT:      -9.4      3.733     10.222
REMARK  9 active torsions:
REMARK  status: ('A' for Active; 'I' for Inactive)
REMARK    1  A    between atoms: C_4  and  S_5 
REMARK    2  A    between atoms: S_5  and  C_6 
REMARK    3  A    between atoms: C_6  and  C_7 
REMARK       I    between atoms: C_7  and  N_8 
REMARK    4  A    between atoms: N_8  and  C_9 
REMARK    5  A    between atoms: C_10  and  O_11 
REMARK    6  A    between atoms: C_16  and  O_17 
REMARK    7  A    between atoms: C_24  and  C_25 
REMARK    8  A    between atoms: C_31  and  C_32 
REMARK       I    between atoms: C_32  and  N_33 
REMARK    9  A    between atoms: N_33  and  C_34 
ROOT
HETATM    1  C   UNL     1      26.243  46.504  50.429  1.00  0.00     0.069 C 
HETATM    2  C   UNL     1      25.747  45.157  49.971  1.00  0.00     0.019 C 
HETATM    3  N   UNL     1      25.013  45.148  48.793  1.00  0.00    -0.353 N 
HETATM    4  C   UNL     1      24.215  44.093  48.383  1.00  0.00     0.087 C 
HETATM    5  C   UNL     1      24.370  42.889  48.975  1.00  0.00     0.055 C 
HETATM    6  C   UNL     1      23.467  41.701  48.685  1.00  0.00     0.019 C 
HETATM    7  N   UNL     1      22.718  40.716  48.445  1.00  0.00    -0.096 N 
HETATM    8  C   UNL     1      25.447  42.678  50.035  1.00  0.00     0.104 C 
HETATM    9  C   UNL     1      25.964  43.990  50.626  1.00  0.00     0.046 C 
HETATM   10  H   UNL     1      24.811  46.041  48.351  1.00  0.00     0.166 HD
ENDROOT
BRANCH   4  11
HETATM   11  S   UNL     1      23.062  44.317  47.098  1.00  0.00    -0.102 SA
BRANCH  11  12
HETATM   12  C   UNL     1      21.671  45.082  48.010  1.00  0.00     0.184 C 
BRANCH  12  13
HETATM   13  C   UNL     1      21.089  46.130  47.077  1.00  0.00     0.231 C 
HETATM   14  N   UNL     1      20.042  46.827  47.650  1.00  0.00    -0.324 N 
HETATM   15  H   UNL     1      19.402  46.346  48.274  1.00  0.00     0.169 HD
HETATM   16  O   UNL     1      21.600  46.398  45.993  1.00  0.00    -0.272 OA
BRANCH  14  17
HETATM   17  C   UNL     1      19.942  48.237  47.692  1.00  0.00     0.071 A 
HETATM   18  C   UNL     1      18.751  48.815  47.222  1.00  0.00     0.096 A 
HETATM   19  C   UNL     1      18.531  50.180  47.396  1.00  0.00     0.065 A 
HETATM   20  C   UNL     1      19.503  50.967  48.023  1.00  0.00     0.070 A 
HETATM   21 CL   UNL     1      19.149  52.646  48.256  1.00  0.00    -0.081 Cl
HETATM   22  C   UNL     1      20.710  50.409  48.469  1.00  0.00     0.092 A 
HETATM   23  C   UNL     1      20.923  49.040  48.286  1.00  0.00     0.071 A 
BRANCH  18  24
HETATM   24  O   UNL     1      17.833  47.954  46.665  1.00  0.00    -0.354 OA
HETATM   25  C   UNL     1      17.411  48.299  45.347  1.00  0.00     0.210 C 
ENDBRANCH  18  24
BRANCH  22  26
HETATM   26  O   UNL     1      21.594  51.251  49.093  1.00  0.00    -0.354 OA
HETATM   27  C   UNL     1      22.984  50.973  48.950  1.00  0.00     0.210 C 
ENDBRANCH  22  26
ENDBRANCH  14  17
ENDBRANCH  12  13
ENDBRANCH  11  12
ENDBRANCH   4  11
BRANCH   8  28
HETATM   28  C   UNL     1      26.572  41.817  49.446  1.00  0.00    -0.044 A 
HETATM   29  C   UNL     1      26.850  41.820  48.067  1.00  0.00     0.008 A 
HETATM   30  C   UNL     1      27.865  41.020  47.542  1.00  0.00     0.001 A 
HETATM   31  C   UNL     1      28.607  40.195  48.384  1.00  0.00     0.000 A 
HETATM   32  C   UNL     1      28.334  40.170  49.749  1.00  0.00     0.001 A 
HETATM   33  C   UNL     1      27.323  40.973  50.279  1.00  0.00     0.008 A 
ENDBRANCH   8  28
BRANCH   9  34
HETATM   34  C   UNL     1      26.501  43.985  52.025  1.00  0.00     0.255 C 
HETATM   35  N   UNL     1      27.857  44.185  52.116  1.00  0.00    -0.323 N 
HETATM   36  H   UNL     1      28.364  44.412  51.269  1.00  0.00     0.169 HD
HETATM   37  O   UNL     1      25.735  43.746  52.955  1.00  0.00    -0.268 OA
BRANCH  35  38
HETATM   38  C   UNL     1      28.662  44.082  53.272  1.00  0.00     0.035 A 
HETATM   39  C   UNL     1      28.550  44.921  54.381  1.00  0.00     0.029 A 
HETATM   40  C   UNL     1      29.374  44.737  55.496  1.00  0.00     0.002 A 
HETATM   41  C   UNL     1      30.310  43.707  55.516  1.00  0.00     0.000 A 
HETATM   42  C   UNL     1      30.431  42.864  54.413  1.00  0.00     0.002 A 
HETATM   43  C   UNL     1      29.617  43.056  53.295  1.00  0.00     0.029 A 
ENDBRANCH  35  38
ENDBRANCH   9  34
TORSDOF 9
ENDMDL
MODEL 10
REMARK VINA RESULT:      -9.1      4.027      5.763
REMARK  9 active torsions:
REMARK  status: ('A' for Active; 'I' for Inactive)
REMARK    1  A    between atoms: C_4  and  S_5 
REMARK    2  A    between atoms: S_5  and  C_6 
REMARK    3  A    between atoms: C_6  and  C_7 
REMARK       I    between atoms: C_7  and  N_8 
REMARK    4  A    between atoms: N_8  and  C_9 
REMARK    5  A    between atoms: C_10  and  O_11 
REMARK    6  A    between atoms: C_16  and  O_17 
REMARK    7  A    between atoms: C_24  and  C_25 
REMARK    8  A    between atoms: C_31  and  C_32 
REMARK       I    between atoms: C_32  and  N_33 
REMARK    9  A    between atoms: N_33  and  C_34 
ROOT
HETATM    1  C   UNL     1      23.138  44.088  47.237  1.00  0.00     0.069 C 
HETATM    2  C   UNL     1      23.785  44.837  48.373  1.00  0.00     0.019 C 
HETATM    3  N   UNL     1      24.833  44.188  49.012  1.00  0.00    -0.353 N 
HETATM    4  C   UNL     1      25.334  44.554  50.249  1.00  0.00     0.087 C 
HETATM    5  C   UNL     1      25.020  45.769  50.748  1.00  0.00     0.055 C 
HETATM    6  C   UNL     1      25.418  46.220  52.144  1.00  0.00     0.019 C 
HETATM    7  N   UNL     1      25.747  46.593  53.302  1.00  0.00    -0.096 N 
HETATM    8  C   UNL     1      24.176  46.747  49.935  1.00  0.00     0.104 C 
HETATM    9  C   UNL     1      23.411  46.069  48.799  1.00  0.00     0.046 C 
HETATM   10  H   UNL     1      25.057  43.242  48.716  1.00  0.00     0.166 HD
ENDROOT
BRANCH   4  11
HETATM   11  S   UNL     1      26.383  43.472  51.121  1.00  0.00    -0.102 SA
BRANCH  11  12
HETATM   12  C   UNL     1      25.562  41.866  50.808  1.00  0.00     0.184 C 
BRANCH  12  13
HETATM   13  C   UNL     1      26.671  40.902  50.421  1.00  0.00     0.231 C 
HETATM   14  N   UNL     1      26.219  39.866  49.626  1.00  0.00    -0.324 N 
HETATM   15  H   UNL     1      25.294  39.479  49.785  1.00  0.00     0.169 HD
HETATM   16  O   UNL     1      27.850  41.119  50.686  1.00  0.00    -0.272 OA
BRANCH  14  17
HETATM   17  C   UNL     1      26.805  39.480  48.398  1.00  0.00     0.071 A 
HETATM   18  C   UNL     1      27.638  38.349  48.407  1.00  0.00     0.096 A 
HETATM   19  C   UNL     1      28.103  37.825  47.202  1.00  0.00     0.065 A 
HETATM   20  C   UNL     1      27.751  38.438  45.995  1.00  0.00     0.070 A 
HETATM   21 CL   UNL     1      28.318  37.710  44.530  1.00  0.00    -0.081 Cl
HETATM   22  C   UNL     1      26.945  39.586  45.973  1.00  0.00     0.092 A 
HETATM   23  C   UNL     1      26.487  40.106  47.187  1.00  0.00     0.071 A 
BRANCH  18  24
HETATM   24  O   UNL     1      27.889  37.785  49.637  1.00  0.00    -0.354 OA
HETATM   25  C   UNL     1      27.291  36.506  49.842  1.00  0.00     0.210 C 
ENDBRANCH  18  24
BRANCH  22  26
HETATM   26  O   UNL     1      26.631  40.105  44.744  1.00  0.00    -0.354 OA
HETATM   27  C   UNL     1      27.452  41.155  44.241  1.00  0.00     0.210 C 
ENDBRANCH  22  26
ENDBRANCH  14  17
ENDBRANCH  12  13
ENDBRANCH  11  12
ENDBRANCH   4  11
BRANCH   8  28
HETATM   28  C   UNL     1      25.070  47.891  49.439  1.00  0.00    -0.044 A 
HETATM   29  C   UNL     1      24.522  49.044  48.849  1.00  0.00     0.008 A 
HETATM   30  C   UNL     1      25.347  50.070  48.387  1.00  0.00     0.001 A 
HETATM   31  C   UNL     1      26.730  49.953  48.495  1.00  0.00     0.000 A 
HETATM   32  C   UNL     1      27.289  48.811  49.064  1.00  0.00     0.001 A 
HETATM   33  C   UNL     1      26.467  47.784  49.532  1.00  0.00     0.008 A 
ENDBRANCH   8  28
BRANCH   9  34
HETATM   34  C   UNL     1      22.124  46.682  48.334  1.00  0.00     0.255 C 
HETATM   35  N   UNL     1      21.027  46.347  49.092  1.00  0.00    -0.323 N 
HETATM   36  H   UNL     1      21.178  45.809  49.936  1.00  0.00     0.169 HD
HETATM   37  O   UNL     1      22.124  47.361  47.312  1.00  0.00    -0.268 OA
BRANCH  35  38
HETATM   38  C   UNL     1      19.674  46.642  48.816  1.00  0.00     0.035 A 
HETATM   39  C   UNL     1      19.030  47.813  49.219  1.00  0.00     0.029 A 
HETATM   40  C   UNL     1      17.691  48.036  48.885  1.00  0.00     0.002 A 
HETATM   41  C   UNL     1      16.986  47.097  48.138  1.00  0.00     0.000 A 
HETATM   42  C   UNL     1      17.619  45.925  47.731  1.00  0.00     0.002 A 
HETATM   43  C   UNL     1      18.953  45.696  48.076  1.00  0.00     0.029 A 
ENDBRANCH  35  38
ENDBRANCH   9  34
TORSDOF 9
ENDMDL
