MODEL 1
REMARK VINA RESULT:      -8.1      0.000      0.000
REMARK  2 active torsions:
REMARK  status: ('A' for Active; 'I' for Inactive)
REMARK    1  A    between atoms: C_8  and  S_9 
REMARK    2  A    between atoms: S_9  and  C_10 
ROOT
HETATM    1  C   UNL     1      30.756  43.320  55.552  1.00  0.00     0.002 A 
HETATM    2  C   UNL     1      29.710  43.593  54.669  1.00  0.00     0.034 A 
HETATM    3  C   UNL     1      28.900  44.709  54.834  1.00  0.00     0.087 A 
HETATM    4  C   UNL     1      29.147  45.586  55.925  1.00  0.00     0.087 A 
HETATM    5  N   UNL     1      28.388  46.680  56.134  1.00  0.00    -0.232 NA
HETATM    6  C   UNL     1      27.405  46.907  55.241  1.00  0.00     0.164 A 
HETATM    7 CL   UNL     1      26.467  48.305  55.573  1.00  0.00    -0.059 Cl
HETATM    8  C   UNL     1      27.160  46.053  54.180  1.00  0.00     0.165 A 
HETATM    9  N   UNL     1      27.893  44.936  53.965  1.00  0.00    -0.234 NA
HETATM   10  C   UNL     1      30.191  45.303  56.796  1.00  0.00     0.034 A 
HETATM   11  C   UNL     1      30.997  44.177  56.618  1.00  0.00     0.002 A 
ENDROOT
BRANCH   8  12
HETATM   12  S   UNL     1      25.859  46.295  52.984  1.00  0.00     0.078 S 
HETATM   13  O   UNL     1      26.121  47.560  52.214  1.00  0.00    -0.251 OA
BRANCH  12  14
HETATM   14  C   UNL     1      26.213  44.922  51.806  1.00  0.00     0.112 C 
HETATM   15  C   UNL     1      24.940  44.061  51.734  1.00  0.00     0.250 C 
HETATM   16  N   UNL     1      23.859  44.800  50.996  1.00  0.00    -0.074 N 
HETATM   17  H   UNL     1      23.680  45.696  51.504  1.00  0.00     0.277 HD
HETATM   18  H   UNL     1      22.970  44.285  51.031  1.00  0.00     0.277 HD
HETATM   19  C   UNL     1      24.208  45.141  49.589  1.00  0.00     0.232 C 
HETATM   20  C   UNL     1      25.475  45.983  49.574  1.00  0.00     0.029 C 
HETATM   21  C   UNL     1      26.612  45.354  50.386  1.00  0.00     0.021 C 
ENDBRANCH  12  14
ENDBRANCH   8  12
TORSDOF 2
ENDMDL
MODEL 2
REMARK VINA RESULT:      -7.7      2.500      3.124
REMARK  2 active torsions:
REMARK  status: ('A' for Active; 'I' for Inactive)
REMARK    1  A    between atoms: C_8  and  S_9 
REMARK    2  A    between atoms: S_9  and  C_10 
ROOT
HETATM    1  C   UNL     1      30.210  45.626  56.434  1.00  0.00     0.002 A 
HETATM    2  C   UNL     1      29.060  45.666  55.645  1.00  0.00     0.034 A 
HETATM    3  C   UNL     1      28.707  44.598  54.831  1.00  0.00     0.087 A 
HETATM    4  C   UNL     1      29.536  43.445  54.807  1.00  0.00     0.087 A 
HETATM    5  N   UNL     1      29.242  42.383  54.031  1.00  0.00    -0.232 NA
HETATM    6  C   UNL     1      28.110  42.466  53.304  1.00  0.00     0.164 A 
HETATM    7 CL   UNL     1      27.802  41.089  52.328  1.00  0.00    -0.059 Cl
HETATM    8  C   UNL     1      27.302  43.589  53.324  1.00  0.00     0.165 A 
HETATM    9  N   UNL     1      27.591  44.677  54.076  1.00  0.00    -0.234 NA
HETATM   10  C   UNL     1      30.678  43.417  55.597  1.00  0.00     0.034 A 
HETATM   11  C   UNL     1      31.022  44.498  56.410  1.00  0.00     0.002 A 
ENDROOT
BRANCH   8  12
HETATM   12  S   UNL     1      25.807  43.760  52.365  1.00  0.00     0.078 S 
HETATM   13  O   UNL     1      24.680  44.172  53.273  1.00  0.00    -0.251 OA
BRANCH  12  14
HETATM   14  C   UNL     1      26.205  45.259  51.369  1.00  0.00     0.112 C 
HETATM   15  C   UNL     1      26.812  44.762  50.045  1.00  0.00     0.250 C 
HETATM   16  N   UNL     1      25.745  44.129  49.196  1.00  0.00    -0.074 N 
HETATM   17  H   UNL     1      25.330  43.339  49.740  1.00  0.00     0.277 HD
HETATM   18  H   UNL     1      26.151  43.696  48.356  1.00  0.00     0.277 HD
HETATM   19  C   UNL     1      24.638  45.051  48.824  1.00  0.00     0.232 C 
HETATM   20  C   UNL     1      23.994  45.603  50.087  1.00  0.00     0.029 C 
HETATM   21  C   UNL     1      25.019  46.187  51.065  1.00  0.00     0.021 C 
ENDBRANCH  12  14
ENDBRANCH   8  12
TORSDOF 2
ENDMDL
MODEL 3
REMARK VINA RESULT:      -7.3      2.767      3.475
REMARK  2 active torsions:
REMARK  status: ('A' for Active; 'I' for Inactive)
REMARK    1  A    between atoms: C_8  and  S_9 
REMARK    2  A    between atoms: S_9  and  C_10 
ROOT
HETATM    1  C   UNL     1      31.706  43.896  57.629  1.00  0.00     0.002 A 
HETATM    2  C   UNL     1      31.237  43.557  56.359  1.00  0.00     0.034 A 
HETATM    3  C   UNL     1      30.180  44.243  55.774  1.00  0.00     0.087 A 
HETATM    4  C   UNL     1      29.570  45.309  56.488  1.00  0.00     0.087 A 
HETATM    5  N   UNL     1      28.538  46.003  55.969  1.00  0.00    -0.232 NA
HETATM    6  C   UNL     1      28.137  45.648  54.732  1.00  0.00     0.164 A 
HETATM    7 CL   UNL     1      26.812  46.560  54.136  1.00  0.00    -0.059 Cl
HETATM    8  C   UNL     1      28.728  44.608  54.036  1.00  0.00     0.165 A 
HETATM    9  N   UNL     1      29.749  43.881  54.547  1.00  0.00    -0.234 NA
HETATM   10  C   UNL     1      30.046  45.636  57.750  1.00  0.00     0.034 A 
HETATM   11  C   UNL     1      31.110  44.939  58.327  1.00  0.00     0.002 A 
ENDROOT
BRANCH   8  12
HETATM   12  S   UNL     1      28.223  44.082  52.408  1.00  0.00     0.078 S 
HETATM   13  O   UNL     1      29.419  43.556  51.663  1.00  0.00    -0.251 OA
BRANCH  12  14
HETATM   14  C   UNL     1      27.212  42.597  52.822  1.00  0.00     0.112 C 
HETATM   15  C   UNL     1      26.547  42.135  51.514  1.00  0.00     0.250 C 
HETATM   16  N   UNL     1      27.576  41.534  50.598  1.00  0.00    -0.074 N 
HETATM   17  H   UNL     1      28.304  42.261  50.415  1.00  0.00     0.277 HD
HETATM   18  H   UNL     1      27.170  41.319  49.678  1.00  0.00     0.277 HD
HETATM   19  C   UNL     1      28.263  40.339  51.158  1.00  0.00     0.232 C 
HETATM   20  C   UNL     1      28.935  40.711  52.471  1.00  0.00     0.029 C 
HETATM   21  C   UNL     1      27.984  41.422  53.440  1.00  0.00     0.021 C 
ENDBRANCH  12  14
ENDBRANCH   8  12
TORSDOF 2
ENDMDL
MODEL 4
REMARK VINA RESULT:      -7.3      3.307      3.619
REMARK  2 active torsions:
REMARK  status: ('A' for Active; 'I' for Inactive)
REMARK    1  A    between atoms: C_8  and  S_9 
REMARK    2  A    between atoms: S_9  and  C_10 
ROOT
HETATM    1  C   UNL     1      30.678  43.461  55.264  1.00  0.00     0.002 A 
HETATM    2  C   UNL     1      30.048  42.982  54.115  1.00  0.00     0.034 A 
HETATM    3  C   UNL     1      28.936  43.623  53.583  1.00  0.00     0.087 A 
HETATM    4  C   UNL     1      28.436  44.787  54.227  1.00  0.00     0.087 A 
HETATM    5  N   UNL     1      27.357  45.443  53.756  1.00  0.00    -0.232 NA
HETATM    6  C   UNL     1      26.798  44.951  52.633  1.00  0.00     0.164 A 
HETATM    7 CL   UNL     1      25.422  45.822  52.096  1.00  0.00    -0.059 Cl
HETATM    8  C   UNL     1      27.281  43.815  52.006  1.00  0.00     0.165 A 
HETATM    9  N   UNL     1      28.348  43.126  52.475  1.00  0.00    -0.234 NA
HETATM   10  C   UNL     1      29.073  45.252  55.370  1.00  0.00     0.034 A 
HETATM   11  C   UNL     1      30.190  44.599  55.893  1.00  0.00     0.002 A 
ENDROOT
BRANCH   8  12
HETATM   12  S   UNL     1      26.566  43.109  50.532  1.00  0.00     0.078 S 
HETATM   13  O   UNL     1      27.147  43.790  49.323  1.00  0.00    -0.251 OA
BRANCH  12  14
HETATM   14  C   UNL     1      27.318  41.426  50.555  1.00  0.00     0.112 C 
HETATM   15  C   UNL     1      26.158  40.424  50.678  1.00  0.00     0.250 C 
HETATM   16  N   UNL     1      25.382  40.373  49.391  1.00  0.00    -0.074 N 
HETATM   17  H   UNL     1      25.029  41.337  49.193  1.00  0.00     0.277 HD
HETATM   18  H   UNL     1      24.541  39.791  49.491  1.00  0.00     0.277 HD
HETATM   19  C   UNL     1      26.184  39.936  48.216  1.00  0.00     0.232 C 
HETATM   20  C   UNL     1      27.369  40.872  48.037  1.00  0.00     0.029 C 
HETATM   21  C   UNL     1      28.171  41.065  49.329  1.00  0.00     0.021 C 
ENDBRANCH  12  14
ENDBRANCH   8  12
TORSDOF 2
ENDMDL
MODEL 5
REMARK VINA RESULT:      -7.0      2.193      2.643
REMARK  2 active torsions:
REMARK  status: ('A' for Active; 'I' for Inactive)
REMARK    1  A    between atoms: C_8  and  S_9 
REMARK    2  A    between atoms: S_9  and  C_10 
ROOT
HETATM    1  C   UNL     1      30.587  43.057  54.659  1.00  0.00     0.002 A 
HETATM    2  C   UNL     1      29.868  42.984  53.465  1.00  0.00     0.034 A 
HETATM    3  C   UNL     1      28.805  43.841  53.212  1.00  0.00     0.087 A 
HETATM    4  C   UNL     1      28.449  44.808  54.191  1.00  0.00     0.087 A 
HETATM    5  N   UNL     1      27.422  45.660  53.997  1.00  0.00    -0.232 NA
HETATM    6  C   UNL     1      26.774  45.561  52.820  1.00  0.00     0.164 A 
HETATM    7 CL   UNL     1      25.470  46.662  52.643  1.00  0.00    -0.059 Cl
HETATM    8  C   UNL     1      27.117  44.618  51.866  1.00  0.00     0.165 A 
HETATM    9  N   UNL     1      28.127  43.737  52.049  1.00  0.00    -0.234 NA
HETATM   10  C   UNL     1      29.173  44.869  55.374  1.00  0.00     0.034 A 
HETATM   11  C   UNL     1      30.239  44.002  55.616  1.00  0.00     0.002 A 
ENDROOT
BRANCH   8  12
HETATM   12  S   UNL     1      26.278  44.429  50.303  1.00  0.00     0.078 S 
HETATM   13  O   UNL     1      27.165  43.671  49.353  1.00  0.00    -0.251 OA
BRANCH  12  14
HETATM   14  C   UNL     1      24.939  43.251  50.769  1.00  0.00     0.112 C 
HETATM   15  C   UNL     1      23.698  44.098  51.097  1.00  0.00     0.250 C 
HETATM   16  N   UNL     1      23.132  44.690  49.836  1.00  0.00    -0.074 N 
HETATM   17  H   UNL     1      23.879  45.271  49.393  1.00  0.00     0.277 HD
HETATM   18  H   UNL     1      22.368  45.345  50.047  1.00  0.00     0.277 HD
HETATM   19  C   UNL     1      22.692  43.681  48.835  1.00  0.00     0.232 C 
HETATM   20  C   UNL     1      23.867  42.786  48.470  1.00  0.00     0.029 C 
HETATM   21  C   UNL     1      24.573  42.208  49.702  1.00  0.00     0.021 C 
ENDBRANCH  12  14
ENDBRANCH   8  12
TORSDOF 2
ENDMDL
MODEL 6
REMARK VINA RESULT:      -7.0      4.387      7.687
REMARK  2 active torsions:
REMARK  status: ('A' for Active; 'I' for Inactive)
REMARK    1  A    between atoms: C_8  and  S_9 
REMARK    2  A    between atoms: S_9  and  C_10 
ROOT
HETATM    1  C   UNL     1      21.196  49.512  48.417  1.00  0.00     0.002 A 
HETATM    2  C   UNL     1      21.935  48.581  49.149  1.00  0.00     0.034 A 
HETATM    3  C   UNL     1      23.323  48.622  49.173  1.00  0.00     0.087 A 
HETATM    4  C   UNL     1      23.997  49.633  48.436  1.00  0.00     0.087 A 
HETATM    5  N   UNL     1      25.342  49.714  48.421  1.00  0.00    -0.232 NA
HETATM    6  C   UNL     1      26.007  48.803  49.160  1.00  0.00     0.164 A 
HETATM    7 CL   UNL     1      27.714  48.952  49.086  1.00  0.00    -0.059 Cl
HETATM    8  C   UNL     1      25.353  47.816  49.877  1.00  0.00     0.165 A 
HETATM    9  N   UNL     1      24.004  47.700  49.887  1.00  0.00    -0.234 NA
HETATM   10  C   UNL     1      23.250  50.552  47.712  1.00  0.00     0.034 A 
HETATM   11  C   UNL     1      21.855  50.500  47.697  1.00  0.00     0.002 A 
ENDROOT
BRANCH   8  12
HETATM   12  S   UNL     1      26.183  46.574  50.851  1.00  0.00     0.078 S 
HETATM   13  O   UNL     1      26.107  46.952  52.306  1.00  0.00    -0.251 OA
BRANCH  12  14
HETATM   14  C   UNL     1      25.029  45.150  50.654  1.00  0.00     0.112 C 
HETATM   15  C   UNL     1      25.460  44.404  49.379  1.00  0.00     0.250 C 
HETATM   16  N   UNL     1      26.760  43.688  49.617  1.00  0.00    -0.074 N 
HETATM   17  H   UNL     1      27.471  44.401  49.896  1.00  0.00     0.277 HD
HETATM   18  H   UNL     1      27.117  43.274  48.746  1.00  0.00     0.277 HD
HETATM   19  C   UNL     1      26.701  42.664  50.696  1.00  0.00     0.232 C 
HETATM   20  C   UNL     1      26.262  43.324  51.994  1.00  0.00     0.029 C 
HETATM   21  C   UNL     1      24.989  44.162  51.830  1.00  0.00     0.021 C 
ENDBRANCH  12  14
ENDBRANCH   8  12
TORSDOF 2
ENDMDL
MODEL 7
REMARK VINA RESULT:      -7.0     13.689     14.440
REMARK  2 active torsions:
REMARK  status: ('A' for Active; 'I' for Inactive)
REMARK    1  A    between atoms: C_8  and  S_9 
REMARK    2  A    between atoms: S_9  and  C_10 
ROOT
HETATM    1  C   UNL     1      33.877  50.659  42.389  1.00  0.00     0.002 A 
HETATM    2  C   UNL     1      33.027  50.473  41.298  1.00  0.00     0.034 A 
HETATM    3  C   UNL     1      31.756  51.032  41.272  1.00  0.00     0.087 A 
HETATM    4  C   UNL     1      31.320  51.808  42.380  1.00  0.00     0.087 A 
HETATM    5  N   UNL     1      30.095  52.369  42.407  1.00  0.00    -0.232 NA
HETATM    6  C   UNL     1      29.322  52.175  41.321  1.00  0.00     0.164 A 
HETATM    7 CL   UNL     1      27.771  52.901  41.426  1.00  0.00    -0.059 Cl
HETATM    8  C   UNL     1      29.742  51.417  40.242  1.00  0.00     0.165 A 
HETATM    9  N   UNL     1      30.959  50.824  40.203  1.00  0.00    -0.234 NA
HETATM   10  C   UNL     1      32.176  51.985  43.458  1.00  0.00     0.034 A 
HETATM   11  C   UNL     1      33.451  51.417  43.472  1.00  0.00     0.002 A 
ENDROOT
BRANCH   8  12
HETATM   12  S   UNL     1      28.752  51.110  38.791  1.00  0.00     0.078 S 
HETATM   13  O   UNL     1      29.655  50.953  37.597  1.00  0.00    -0.251 OA
BRANCH  12  14
HETATM   14  C   UNL     1      28.122  49.416  39.154  1.00  0.00     0.112 C 
HETATM   15  C   UNL     1      27.123  49.554  40.316  1.00  0.00     0.250 C 
HETATM   16  N   UNL     1      25.869  50.230  39.839  1.00  0.00    -0.074 N 
HETATM   17  H   UNL     1      26.135  51.165  39.457  1.00  0.00     0.277 HD
HETATM   18  H   UNL     1      25.235  50.427  40.624  1.00  0.00     0.277 HD
HETATM   19  C   UNL     1      25.152  49.491  38.763  1.00  0.00     0.232 C 
HETATM   20  C   UNL     1      26.085  49.297  37.577  1.00  0.00     0.029 C 
HETATM   21  C   UNL     1      27.437  48.698  37.981  1.00  0.00     0.021 C 
ENDBRANCH  12  14
ENDBRANCH   8  12
TORSDOF 2
ENDMDL
MODEL 8
REMARK VINA RESULT:      -6.9      2.903      3.889
REMARK  2 active torsions:
REMARK  status: ('A' for Active; 'I' for Inactive)
REMARK    1  A    between atoms: C_8  and  S_9 
REMARK    2  A    between atoms: S_9  and  C_10 
ROOT
HETATM    1  C   UNL     1      28.112  45.900  55.462  1.00  0.00     0.002 A 
HETATM    2  C   UNL     1      27.853  45.147  54.316  1.00  0.00     0.034 A 
HETATM    3  C   UNL     1      27.018  45.623  53.314  1.00  0.00     0.087 A 
HETATM    4  C   UNL     1      26.418  46.902  53.465  1.00  0.00     0.087 A 
HETATM    5  N   UNL     1      25.595  47.409  52.526  1.00  0.00    -0.232 NA
HETATM    6  C   UNL     1      25.395  46.650  51.431  1.00  0.00     0.164 A 
HETATM    7 CL   UNL     1      24.327  47.345  50.282  1.00  0.00    -0.059 Cl
HETATM    8  C   UNL     1      25.975  45.402  51.282  1.00  0.00     0.165 A 
HETATM    9  N   UNL     1      26.785  44.863  52.223  1.00  0.00    -0.234 NA
HETATM   10  C   UNL     1      26.683  47.641  54.610  1.00  0.00     0.034 A 
HETATM   11  C   UNL     1      27.526  47.151  55.610  1.00  0.00     0.002 A 
ENDROOT
BRANCH   8  12
HETATM   12  S   UNL     1      25.726  44.348  49.865  1.00  0.00     0.078 S 
HETATM   13  O   UNL     1      27.060  43.855  49.372  1.00  0.00    -0.251 OA
BRANCH  12  14
HETATM   14  C   UNL     1      24.927  42.887  50.657  1.00  0.00     0.112 C 
HETATM   15  C   UNL     1      23.415  43.018  50.402  1.00  0.00     0.250 C 
HETATM   16  N   UNL     1      23.113  42.759  48.953  1.00  0.00    -0.074 N 
HETATM   17  H   UNL     1      23.652  43.451  48.385  1.00  0.00     0.277 HD
HETATM   18  H   UNL     1      22.124  42.947  48.744  1.00  0.00     0.277 HD
HETATM   19  C   UNL     1      23.495  41.398  48.487  1.00  0.00     0.232 C 
HETATM   20  C   UNL     1      24.982  41.183  48.722  1.00  0.00     0.029 C 
HETATM   21  C   UNL     1      25.408  41.516  50.156  1.00  0.00     0.021 C 
ENDBRANCH  12  14
ENDBRANCH   8  12
TORSDOF 2
ENDMDL
MODEL 9
REMARK VINA RESULT:      -6.7     13.192     14.841
REMARK  2 active torsions:
REMARK  status: ('A' for Active; 'I' for Inactive)
REMARK    1  A    between atoms: C_8  and  S_9 
REMARK    2  A    between atoms: S_9  and  C_10 
ROOT
HETATM    1  C   UNL     1      27.565  47.115  40.846  1.00  0.00     0.002 A 
HETATM    2  C   UNL     1      28.799  47.746  41.006  1.00  0.00     0.034 A 
HETATM    3  C   UNL     1      28.968  49.089  40.694  1.00  0.00     0.087 A 
HETATM    4  C   UNL     1      27.858  49.828  40.202  1.00  0.00     0.087 A 
HETATM    5  N   UNL     1      27.970  51.132  39.878  1.00  0.00    -0.232 NA
HETATM    6  C   UNL     1      29.177  51.697  40.071  1.00  0.00     0.164 A 
HETATM    7 CL   UNL     1      29.255  53.352  39.626  1.00  0.00    -0.059 Cl
HETATM    8  C   UNL     1      30.260  50.979  40.547  1.00  0.00     0.165 A 
HETATM    9  N   UNL     1      30.179  49.663  40.855  1.00  0.00    -0.234 NA
HETATM   10  C   UNL     1      26.636  49.188  40.047  1.00  0.00     0.034 A 
HETATM   11  C   UNL     1      26.480  47.838  40.365  1.00  0.00     0.002 A 
ENDROOT
BRANCH   8  12
HETATM   12  S   UNL     1      31.885  51.671  40.799  1.00  0.00     0.078 S 
HETATM   13  O   UNL     1      31.766  52.937  41.603  1.00  0.00    -0.251 OA
BRANCH  12  14
HETATM   14  C   UNL     1      32.617  50.429  41.947  1.00  0.00     0.112 C 
HETATM   15  C   UNL     1      34.134  50.682  41.964  1.00  0.00     0.250 C 
HETATM   16  N   UNL     1      34.435  51.960  42.696  1.00  0.00    -0.074 N 
HETATM   17  H   UNL     1      33.929  52.734  42.209  1.00  0.00     0.277 HD
HETATM   18  H   UNL     1      35.432  52.200  42.624  1.00  0.00     0.277 HD
HETATM   19  C   UNL     1      33.999  51.961  44.119  1.00  0.00     0.232 C 
HETATM   20  C   UNL     1      32.502  51.698  44.189  1.00  0.00     0.029 C 
HETATM   21  C   UNL     1      32.082  50.461  43.386  1.00  0.00     0.021 C 
ENDBRANCH  12  14
ENDBRANCH   8  12
TORSDOF 2
ENDMDL
MODEL 10
REMARK VINA RESULT:      -6.6     15.924     17.027
REMARK  2 active torsions:
REMARK  status: ('A' for Active; 'I' for Inactive)
REMARK    1  A    between atoms: C_8  and  S_9 
REMARK    2  A    between atoms: S_9  and  C_10 
ROOT
HETATM    1  C   UNL     1      37.615  49.542  66.214  1.00  0.00     0.002 A 
HETATM    2  C   UNL     1      37.664  48.153  66.336  1.00  0.00     0.034 A 
HETATM    3  C   UNL     1      38.692  47.415  65.763  1.00  0.00     0.087 A 
HETATM    4  C   UNL     1      39.709  48.094  65.040  1.00  0.00     0.087 A 
HETATM    5  N   UNL     1      40.726  47.426  64.459  1.00  0.00    -0.232 NA
HETATM    6  C   UNL     1      40.737  46.089  64.625  1.00  0.00     0.164 A 
HETATM    7 CL   UNL     1      42.047  45.297  63.850  1.00  0.00    -0.059 Cl
HETATM    8  C   UNL     1      39.746  45.424  65.326  1.00  0.00     0.165 A 
HETATM    9  N   UNL     1      38.703  46.072  65.896  1.00  0.00    -0.234 NA
HETATM   10  C   UNL     1      39.648  49.477  64.925  1.00  0.00     0.034 A 
HETATM   11  C   UNL     1      38.609  50.206  65.506  1.00  0.00     0.002 A 
ENDROOT
BRANCH   8  12
HETATM   12  S   UNL     1      39.700  43.656  65.556  1.00  0.00     0.078 S 
HETATM   13  O   UNL     1      39.228  43.349  66.951  1.00  0.00    -0.251 OA
BRANCH  12  14
HETATM   14  C   UNL     1      38.295  43.200  64.453  1.00  0.00     0.112 C 
HETATM   15  C   UNL     1      38.818  43.292  63.009  1.00  0.00     0.250 C 
HETATM   16  N   UNL     1      39.774  42.166  62.735  1.00  0.00    -0.074 N 
HETATM   17  H   UNL     1      40.556  42.235  63.424  1.00  0.00     0.277 HD
HETATM   18  H   UNL     1      40.215  42.273  61.812  1.00  0.00     0.277 HD
HETATM   19  C   UNL     1      39.172  40.811  62.871  1.00  0.00     0.232 C 
HETATM   20  C   UNL     1      38.612  40.647  64.276  1.00  0.00     0.029 C 
HETATM   21  C   UNL     1      37.695  41.805  64.686  1.00  0.00     0.021 C 
ENDBRANCH  12  14
ENDBRANCH   8  12
TORSDOF 2
ENDMDL
