MODEL 1
REMARK VINA RESULT:      -9.6      0.000      0.000
REMARK  8 active torsions:
REMARK  status: ('A' for Active; 'I' for Inactive)
REMARK    1  A    between atoms: O_2  and  C_3 
REMARK    2  A    between atoms: C_6  and  C_7 
REMARK    3  A    between atoms: C_7  and  N_8 
REMARK       I    between atoms: N_8  and  C_9 
REMARK    4  A    between atoms: C_9  and  C_10 
REMARK    5  A    between atoms: C_10  and  C_11 
REMARK    6  A    between atoms: C_11  and  N_12 
REMARK    7  A    between atoms: N_12  and  S_13 
REMARK    8  A    between atoms: S_13  and  C_14 
ROOT
HETATM    1  N   UNL     1      26.096  45.421  51.733  1.00  0.00    -0.315 N 
HETATM    2  H   UNL     1      26.418  45.811  52.618  1.00  0.00     0.172 HD
ENDROOT
BRANCH   1   3
HETATM    3  C   UNL     1      24.659  45.440  51.424  1.00  0.00     0.141 C 
BRANCH   3   4
HETATM    4  C   UNL     1      24.471  45.795  49.958  1.00  0.00     0.123 C 
BRANCH   4   5
HETATM    5  C   UNL     1      24.373  47.291  49.786  1.00  0.00     0.219 C 
HETATM    6  N   UNL     1      23.383  47.712  48.932  1.00  0.00    -0.357 N 
HETATM    7  H   UNL     1      22.774  47.044  48.478  1.00  0.00     0.162 HD
HETATM    8  O   UNL     1      25.145  48.051  50.362  1.00  0.00    -0.274 OA
BRANCH   6   9
HETATM    9  C   UNL     1      23.091  49.118  48.742  1.00  0.00     0.161 C 
BRANCH   9  10
HETATM   10  C   UNL     1      21.732  49.517  49.257  1.00  0.00    -0.040 A 
HETATM   11  C   UNL     1      21.505  50.838  49.672  1.00  0.00     0.011 A 
HETATM   12  C   UNL     1      20.230  51.264  50.061  1.00  0.00     0.037 A 
HETATM   13  C   UNL     1      19.157  50.375  50.030  1.00  0.00     0.068 A 
HETATM   14  C   UNL     1      19.375  49.055  49.636  1.00  0.00     0.037 A 
HETATM   15  C   UNL     1      20.646  48.632  49.236  1.00  0.00     0.011 A 
BRANCH  13  16
HETATM   16  O   UNL     1      17.865  50.674  50.366  1.00  0.00    -0.356 OA
HETATM   17  C   UNL     1      17.137  51.454  49.425  1.00  0.00     0.210 C 
ENDBRANCH  13  16
ENDBRANCH   9  10
ENDBRANCH   6   9
ENDBRANCH   4   5
ENDBRANCH   3   4
ENDBRANCH   1   3
BRANCH   1  18
HETATM   18  S   UNL     1      26.996  44.069  51.300  1.00  0.00     0.258 S 
HETATM   19  O   UNL     1      26.076  42.954  51.323  1.00  0.00    -0.201 OA
HETATM   20  O   UNL     1      27.752  44.409  50.115  1.00  0.00    -0.201 OA
BRANCH  18  21
HETATM   21  C   UNL     1      28.110  43.865  52.660  1.00  0.00     0.080 A 
HETATM   22  C   UNL     1      28.014  44.701  53.774  1.00  0.00     0.034 A 
HETATM   23  C   UNL     1      28.934  44.613  54.847  1.00  0.00    -0.030 A 
HETATM   24  C   UNL     1      29.936  43.633  54.793  1.00  0.00     0.041 A 
HETATM   25  C   UNL     1      28.707  45.586  55.972  1.00  0.00     0.041 C 
HETATM   26  N   UNL     1      30.932  43.384  55.751  1.00  0.00    -0.327 N 
HETATM   27  C   UNL     1      30.004  42.790  53.661  1.00  0.00     0.031 A 
HETATM   28  C   UNL     1      31.272  43.920  56.947  1.00  0.00     0.222 C 
HETATM   29  H   UNL     1      31.586  42.642  55.526  1.00  0.00     0.169 HD
HETATM   30  O   UNL     1      32.244  43.429  57.532  1.00  0.00    -0.273 OA
HETATM   31  C   UNL     1      30.484  45.011  57.610  1.00  0.00     0.103 C 
HETATM   32  C   UNL     1      29.967  46.068  56.665  1.00  0.00     0.014 C 
HETATM   33  C   UNL     1      29.108  42.904  52.597  1.00  0.00     0.027 A 
ENDBRANCH  18  21
ENDBRANCH   1  18
TORSDOF 8
ENDMDL
MODEL 2
REMARK VINA RESULT:      -9.6      1.669      2.378
REMARK  8 active torsions:
REMARK  status: ('A' for Active; 'I' for Inactive)
REMARK    1  A    between atoms: O_2  and  C_3 
REMARK    2  A    between atoms: C_6  and  C_7 
REMARK    3  A    between atoms: C_7  and  N_8 
REMARK       I    between atoms: N_8  and  C_9 
REMARK    4  A    between atoms: C_9  and  C_10 
REMARK    5  A    between atoms: C_10  and  C_11 
REMARK    6  A    between atoms: C_11  and  N_12 
REMARK    7  A    between atoms: N_12  and  S_13 
REMARK    8  A    between atoms: S_13  and  C_14 
ROOT
HETATM    1  N   UNL     1      25.410  46.720  51.545  1.00  0.00    -0.315 N 
HETATM    2  H   UNL     1      24.757  47.106  52.227  1.00  0.00     0.172 HD
ENDROOT
BRANCH   1   3
HETATM    3  C   UNL     1      25.274  47.100  50.131  1.00  0.00     0.141 C 
BRANCH   3   4
HETATM    4  C   UNL     1      26.432  48.006  49.748  1.00  0.00     0.123 C 
BRANCH   4   5
HETATM    5  C   UNL     1      25.951  49.139  48.877  1.00  0.00     0.219 C 
HETATM    6  N   UNL     1      24.587  49.222  48.735  1.00  0.00    -0.357 N 
HETATM    7  H   UNL     1      23.978  48.563  49.203  1.00  0.00     0.162 HD
HETATM    8  O   UNL     1      26.740  49.903  48.331  1.00  0.00    -0.274 OA
BRANCH   6   9
HETATM    9  C   UNL     1      23.963  50.314  48.017  1.00  0.00     0.161 C 
BRANCH   9  10
HETATM   10  C   UNL     1      22.600  50.675  48.552  1.00  0.00    -0.040 A 
HETATM   11  C   UNL     1      21.510  50.769  47.674  1.00  0.00     0.011 A 
HETATM   12  C   UNL     1      20.216  51.004  48.152  1.00  0.00     0.037 A 
HETATM   13  C   UNL     1      19.991  51.137  49.521  1.00  0.00     0.068 A 
HETATM   14  C   UNL     1      21.070  51.063  50.401  1.00  0.00     0.037 A 
HETATM   15  C   UNL     1      22.362  50.817  49.926  1.00  0.00     0.011 A 
BRANCH  13  16
HETATM   16  O   UNL     1      18.775  51.349  50.112  1.00  0.00    -0.356 OA
HETATM   17  C   UNL     1      17.963  52.362  49.529  1.00  0.00     0.210 C 
ENDBRANCH  13  16
ENDBRANCH   9  10
ENDBRANCH   6   9
ENDBRANCH   4   5
ENDBRANCH   3   4
ENDBRANCH   1   3
BRANCH   1  18
HETATM   18  S   UNL     1      25.811  45.131  51.917  1.00  0.00     0.258 S 
HETATM   19  O   UNL     1      24.605  44.526  52.436  1.00  0.00    -0.201 OA
HETATM   20  O   UNL     1      26.513  44.580  50.778  1.00  0.00    -0.201 OA
BRANCH  18  21
HETATM   21  C   UNL     1      26.942  45.300  53.268  1.00  0.00     0.080 A 
HETATM   22  C   UNL     1      28.031  44.434  53.382  1.00  0.00     0.034 A 
HETATM   23  C   UNL     1      28.913  44.495  54.488  1.00  0.00    -0.030 A 
HETATM   24  C   UNL     1      28.697  45.478  55.465  1.00  0.00     0.041 A 
HETATM   25  C   UNL     1      30.033  43.491  54.476  1.00  0.00     0.041 C 
HETATM   26  N   UNL     1      29.456  45.703  56.625  1.00  0.00    -0.327 N 
HETATM   27  C   UNL     1      27.596  46.351  55.321  1.00  0.00     0.031 A 
HETATM   28  C   UNL     1      30.552  45.136  57.183  1.00  0.00     0.222 C 
HETATM   29  H   UNL     1      29.132  46.453  57.227  1.00  0.00     0.169 HD
HETATM   30  O   UNL     1      30.956  45.613  58.250  1.00  0.00    -0.273 OA
HETATM   31  C   UNL     1      31.322  44.025  56.531  1.00  0.00     0.103 C 
HETATM   32  C   UNL     1      30.463  42.993  55.842  1.00  0.00     0.014 C 
HETATM   33  C   UNL     1      26.717  46.264  54.240  1.00  0.00     0.027 A 
ENDBRANCH  18  21
ENDBRANCH   1  18
TORSDOF 8
ENDMDL
MODEL 3
REMARK VINA RESULT:      -9.5     12.949     15.873
REMARK  8 active torsions:
REMARK  status: ('A' for Active; 'I' for Inactive)
REMARK    1  A    between atoms: O_2  and  C_3 
REMARK    2  A    between atoms: C_6  and  C_7 
REMARK    3  A    between atoms: C_7  and  N_8 
REMARK       I    between atoms: N_8  and  C_9 
REMARK    4  A    between atoms: C_9  and  C_10 
REMARK    5  A    between atoms: C_10  and  C_11 
REMARK    6  A    between atoms: C_11  and  N_12 
REMARK    7  A    between atoms: N_12  and  S_13 
REMARK    8  A    between atoms: S_13  and  C_14 
ROOT
HETATM    1  N   UNL     1      35.284  52.768  40.906  1.00  0.00    -0.315 N 
HETATM    2  H   UNL     1      35.087  53.707  41.251  1.00  0.00     0.172 HD
ENDROOT
BRANCH   1   3
HETATM    3  C   UNL     1      36.433  52.033  41.452  1.00  0.00     0.141 C 
BRANCH   3   4
HETATM    4  C   UNL     1      35.935  50.770  42.135  1.00  0.00     0.123 C 
BRANCH   4   5
HETATM    5  C   UNL     1      34.526  50.961  42.636  1.00  0.00     0.219 C 
HETATM    6  N   UNL     1      33.626  50.014  42.212  1.00  0.00    -0.357 N 
HETATM    7  H   UNL     1      33.922  49.250  41.619  1.00  0.00     0.162 HD
HETATM    8  O   UNL     1      34.227  51.913  43.351  1.00  0.00    -0.274 OA
BRANCH   6   9
HETATM    9  C   UNL     1      32.259  49.997  42.690  1.00  0.00     0.161 C 
BRANCH   9  10
HETATM   10  C   UNL     1      31.371  49.056  41.916  1.00  0.00    -0.040 A 
HETATM   11  C   UNL     1      30.005  48.972  42.229  1.00  0.00     0.011 A 
HETATM   12  C   UNL     1      29.138  48.182  41.466  1.00  0.00     0.037 A 
HETATM   13  C   UNL     1      29.621  47.473  40.369  1.00  0.00     0.068 A 
HETATM   14  C   UNL     1      30.980  47.536  40.060  1.00  0.00     0.037 A 
HETATM   15  C   UNL     1      31.846  48.332  40.815  1.00  0.00     0.011 A 
BRANCH  13  16
HETATM   16  O   UNL     1      28.874  46.685  39.536  1.00  0.00    -0.356 OA
HETATM   17  C   UNL     1      29.512  45.511  39.045  1.00  0.00     0.210 C 
ENDBRANCH  13  16
ENDBRANCH   9  10
ENDBRANCH   6   9
ENDBRANCH   4   5
ENDBRANCH   3   4
ENDBRANCH   1   3
BRANCH   1  18
HETATM   18  S   UNL     1      34.951  52.640  39.263  1.00  0.00     0.258 S 
HETATM   19  O   UNL     1      35.078  53.976  38.726  1.00  0.00    -0.201 OA
HETATM   20  O   UNL     1      35.726  51.533  38.746  1.00  0.00    -0.201 OA
BRANCH  18  21
HETATM   21  C   UNL     1      33.234  52.214  39.225  1.00  0.00     0.080 A 
HETATM   22  C   UNL     1      32.348  52.798  40.133  1.00  0.00     0.034 A 
HETATM   23  C   UNL     1      30.982  52.425  40.178  1.00  0.00    -0.030 A 
HETATM   24  C   UNL     1      30.515  51.476  39.258  1.00  0.00     0.041 A 
HETATM   25  C   UNL     1      30.155  53.134  41.215  1.00  0.00     0.041 C 
HETATM   26  N   UNL     1      29.206  50.981  39.139  1.00  0.00    -0.327 N 
HETATM   27  C   UNL     1      31.428  50.909  38.340  1.00  0.00     0.031 A 
HETATM   28  C   UNL     1      28.033  51.200  39.779  1.00  0.00     0.222 C 
HETATM   29  H   UNL     1      29.062  50.277  38.422  1.00  0.00     0.169 HD
HETATM   30  O   UNL     1      27.048  50.562  39.390  1.00  0.00    -0.273 OA
HETATM   31  C   UNL     1      27.871  52.221  40.867  1.00  0.00     0.103 C 
HETATM   32  C   UNL     1      29.038  52.305  41.820  1.00  0.00     0.014 C 
HETATM   33  C   UNL     1      32.779  51.263  38.323  1.00  0.00     0.027 A 
ENDBRANCH  18  21
ENDBRANCH   1  18
TORSDOF 8
ENDMDL
MODEL 4
REMARK VINA RESULT:      -8.9      1.509      2.310
REMARK  8 active torsions:
REMARK  status: ('A' for Active; 'I' for Inactive)
REMARK    1  A    between atoms: O_2  and  C_3 
REMARK    2  A    between atoms: C_6  and  C_7 
REMARK    3  A    between atoms: C_7  and  N_8 
REMARK       I    between atoms: N_8  and  C_9 
REMARK    4  A    between atoms: C_9  and  C_10 
REMARK    5  A    between atoms: C_10  and  C_11 
REMARK    6  A    between atoms: C_11  and  N_12 
REMARK    7  A    between atoms: N_12  and  S_13 
REMARK    8  A    between atoms: S_13  and  C_14 
ROOT
HETATM    1  N   UNL     1      25.671  44.720  51.499  1.00  0.00    -0.315 N 
HETATM    2  H   UNL     1      25.782  45.612  51.981  1.00  0.00     0.172 HD
ENDROOT
BRANCH   1   3
HETATM    3  C   UNL     1      24.390  44.007  51.602  1.00  0.00     0.141 C 
BRANCH   3   4
HETATM    4  C   UNL     1      23.561  44.295  50.361  1.00  0.00     0.123 C 
BRANCH   4   5
HETATM    5  C   UNL     1      24.168  45.429  49.572  1.00  0.00     0.219 C 
HETATM    6  N   UNL     1      23.593  46.658  49.788  1.00  0.00    -0.357 N 
HETATM    7  H   UNL     1      22.829  46.762  50.444  1.00  0.00     0.162 HD
HETATM    8  O   UNL     1      25.092  45.238  48.787  1.00  0.00    -0.274 OA
BRANCH   6   9
HETATM    9  C   UNL     1      24.127  47.863  49.188  1.00  0.00     0.161 C 
BRANCH   9  10
HETATM   10  C   UNL     1      23.080  48.920  48.944  1.00  0.00    -0.040 A 
HETATM   11  C   UNL     1      21.721  48.590  49.051  1.00  0.00     0.011 A 
HETATM   12  C   UNL     1      20.729  49.570  48.927  1.00  0.00     0.037 A 
HETATM   13  C   UNL     1      21.083  50.898  48.705  1.00  0.00     0.068 A 
HETATM   14  C   UNL     1      22.432  51.234  48.579  1.00  0.00     0.037 A 
HETATM   15  C   UNL     1      23.424  50.258  48.713  1.00  0.00     0.011 A 
BRANCH  13  16
HETATM   16  O   UNL     1      20.212  51.947  48.585  1.00  0.00    -0.356 OA
HETATM   17  C   UNL     1      19.035  51.877  49.382  1.00  0.00     0.210 C 
ENDBRANCH  13  16
ENDBRANCH   9  10
ENDBRANCH   6   9
ENDBRANCH   4   5
ENDBRANCH   3   4
ENDBRANCH   1   3
BRANCH   1  18
HETATM   18  S   UNL     1      27.095  43.828  51.535  1.00  0.00     0.258 S 
HETATM   19  O   UNL     1      26.697  42.451  51.722  1.00  0.00    -0.201 OA
HETATM   20  O   UNL     1      27.898  44.243  50.406  1.00  0.00    -0.201 OA
BRANCH  18  21
HETATM   21  C   UNL     1      27.876  44.362  53.030  1.00  0.00     0.080 A 
HETATM   22  C   UNL     1      28.997  43.685  53.515  1.00  0.00     0.034 A 
HETATM   23  C   UNL     1      29.601  44.041  54.745  1.00  0.00    -0.030 A 
HETATM   24  C   UNL     1      29.075  45.125  55.463  1.00  0.00     0.041 A 
HETATM   25  C   UNL     1      30.795  43.214  55.140  1.00  0.00     0.041 C 
HETATM   26  N   UNL     1      29.532  45.632  56.690  1.00  0.00    -0.327 N 
HETATM   27  C   UNL     1      27.949  45.803  54.945  1.00  0.00     0.031 A 
HETATM   28  C   UNL     1      30.530  45.317  57.550  1.00  0.00     0.222 C 
HETATM   29  H   UNL     1      29.007  46.414  57.069  1.00  0.00     0.169 HD
HETATM   30  O   UNL     1      30.637  46.007  58.570  1.00  0.00    -0.273 OA
HETATM   31  C   UNL     1      31.536  44.237  57.278  1.00  0.00     0.103 C 
HETATM   32  C   UNL     1      30.961  43.000  56.632  1.00  0.00     0.014 C 
HETATM   33  C   UNL     1      27.344  45.426  53.745  1.00  0.00     0.027 A 
ENDBRANCH  18  21
ENDBRANCH   1  18
TORSDOF 8
ENDMDL
MODEL 5
REMARK VINA RESULT:      -8.8      5.132      8.446
REMARK  8 active torsions:
REMARK  status: ('A' for Active; 'I' for Inactive)
REMARK    1  A    between atoms: O_2  and  C_3 
REMARK    2  A    between atoms: C_6  and  C_7 
REMARK    3  A    between atoms: C_7  and  N_8 
REMARK       I    between atoms: N_8  and  C_9 
REMARK    4  A    between atoms: C_9  and  C_10 
REMARK    5  A    between atoms: C_10  and  C_11 
REMARK    6  A    between atoms: C_11  and  N_12 
REMARK    7  A    between atoms: N_12  and  S_13 
REMARK    8  A    between atoms: S_13  and  C_14 
ROOT
HETATM    1  N   UNL     1      25.849  42.684  51.326  1.00  0.00    -0.315 N 
HETATM    2  H   UNL     1      26.693  42.346  50.866  1.00  0.00     0.172 HD
ENDROOT
BRANCH   1   3
HETATM    3  C   UNL     1      24.542  42.406  50.713  1.00  0.00     0.141 C 
BRANCH   3   4
HETATM    4  C   UNL     1      24.573  42.845  49.259  1.00  0.00     0.123 C 
BRANCH   4   5
HETATM    5  C   UNL     1      25.032  41.712  48.375  1.00  0.00     0.219 C 
HETATM    6  N   UNL     1      26.298  41.853  47.862  1.00  0.00    -0.357 N 
HETATM    7  H   UNL     1      26.860  42.664  48.089  1.00  0.00     0.162 HD
HETATM    8  O   UNL     1      24.301  40.756  48.132  1.00  0.00    -0.274 OA
BRANCH   6   9
HETATM    9  C   UNL     1      26.924  40.805  47.082  1.00  0.00     0.161 C 
BRANCH   9  10
HETATM   10  C   UNL     1      27.757  39.863  47.913  1.00  0.00    -0.040 A 
HETATM   11  C   UNL     1      28.275  38.695  47.333  1.00  0.00     0.011 A 
HETATM   12  C   UNL     1      29.132  37.853  48.049  1.00  0.00     0.037 A 
HETATM   13  C   UNL     1      29.493  38.171  49.357  1.00  0.00     0.068 A 
HETATM   14  C   UNL     1      28.969  39.320  49.949  1.00  0.00     0.037 A 
HETATM   15  C   UNL     1      28.121  40.169  49.231  1.00  0.00     0.011 A 
BRANCH  13  16
HETATM   16  O   UNL     1      30.335  37.442  50.152  1.00  0.00    -0.356 OA
HETATM   17  C   UNL     1      29.872  37.171  51.470  1.00  0.00     0.210 C 
ENDBRANCH  13  16
ENDBRANCH   9  10
ENDBRANCH   6   9
ENDBRANCH   4   5
ENDBRANCH   3   4
ENDBRANCH   1   3
BRANCH   1  18
HETATM   18  S   UNL     1      26.102  44.184  52.041  1.00  0.00     0.258 S 
HETATM   19  O   UNL     1      26.640  45.033  51.003  1.00  0.00    -0.201 OA
HETATM   20  O   UNL     1      24.898  44.531  52.763  1.00  0.00    -0.201 OA
BRANCH  18  21
HETATM   21  C   UNL     1      27.403  43.871  53.199  1.00  0.00     0.080 A 
HETATM   22  C   UNL     1      27.672  44.790  54.215  1.00  0.00     0.034 A 
HETATM   23  C   UNL     1      28.751  44.607  55.112  1.00  0.00    -0.030 A 
HETATM   24  C   UNL     1      29.537  43.452  54.990  1.00  0.00     0.041 A 
HETATM   25  C   UNL     1      28.920  45.687  56.147  1.00  0.00     0.041 C 
HETATM   26  N   UNL     1      30.640  43.088  55.780  1.00  0.00    -0.327 N 
HETATM   27  C   UNL     1      29.238  42.530  53.963  1.00  0.00     0.031 A 
HETATM   28  C   UNL     1      31.293  43.636  56.832  1.00  0.00     0.222 C 
HETATM   29  H   UNL     1      31.098  42.219  55.526  1.00  0.00     0.169 HD
HETATM   30  O   UNL     1      32.258  43.012  57.287  1.00  0.00    -0.273 OA
HETATM   31  C   UNL     1      30.850  44.904  57.501  1.00  0.00     0.103 C 
HETATM   32  C   UNL     1      30.354  45.968  56.551  1.00  0.00     0.014 C 
HETATM   33  C   UNL     1      28.187  42.734  53.066  1.00  0.00     0.027 A 
ENDBRANCH  18  21
ENDBRANCH   1  18
TORSDOF 8
ENDMDL
MODEL 6
REMARK VINA RESULT:      -8.8      1.776      2.503
REMARK  8 active torsions:
REMARK  status: ('A' for Active; 'I' for Inactive)
REMARK    1  A    between atoms: O_2  and  C_3 
REMARK    2  A    between atoms: C_6  and  C_7 
REMARK    3  A    between atoms: C_7  and  N_8 
REMARK       I    between atoms: N_8  and  C_9 
REMARK    4  A    between atoms: C_9  and  C_10 
REMARK    5  A    between atoms: C_10  and  C_11 
REMARK    6  A    between atoms: C_11  and  N_12 
REMARK    7  A    between atoms: N_12  and  S_13 
REMARK    8  A    between atoms: S_13  and  C_14 
ROOT
HETATM    1  N   UNL     1      25.387  43.892  49.575  1.00  0.00    -0.315 N 
HETATM    2  H   UNL     1      26.003  43.401  48.929  1.00  0.00     0.172 HD
ENDROOT
BRANCH   1   3
HETATM    3  C   UNL     1      25.551  45.342  49.757  1.00  0.00     0.141 C 
BRANCH   3   4
HETATM    4  C   UNL     1      24.216  46.026  49.518  1.00  0.00     0.123 C 
BRANCH   4   5
HETATM    5  C   UNL     1      24.319  47.503  49.811  1.00  0.00     0.219 C 
HETATM    6  N   UNL     1      23.813  48.324  48.833  1.00  0.00    -0.357 N 
HETATM    7  H   UNL     1      23.397  47.936  47.996  1.00  0.00     0.162 HD
HETATM    8  O   UNL     1      24.839  47.913  50.844  1.00  0.00    -0.274 OA
BRANCH   6   9
HETATM    9  C   UNL     1      23.742  49.760  49.009  1.00  0.00     0.161 C 
BRANCH   9  10
HETATM   10  C   UNL     1      22.343  50.306  48.875  1.00  0.00    -0.040 A 
HETATM   11  C   UNL     1      21.676  50.218  47.644  1.00  0.00     0.011 A 
HETATM   12  C   UNL     1      20.343  50.626  47.515  1.00  0.00     0.037 A 
HETATM   13  C   UNL     1      19.652  51.118  48.620  1.00  0.00     0.068 A 
HETATM   14  C   UNL     1      20.312  51.226  49.845  1.00  0.00     0.037 A 
HETATM   15  C   UNL     1      21.639  50.809  49.978  1.00  0.00     0.011 A 
BRANCH  13  16
HETATM   16  O   UNL     1      18.347  51.529  48.627  1.00  0.00    -0.356 OA
HETATM   17  C   UNL     1      17.947  52.323  49.738  1.00  0.00     0.210 C 
ENDBRANCH  13  16
ENDBRANCH   9  10
ENDBRANCH   6   9
ENDBRANCH   4   5
ENDBRANCH   3   4
ENDBRANCH   1   3
BRANCH   1  18
HETATM   18  S   UNL     1      25.034  42.947  50.919  1.00  0.00     0.258 S 
HETATM   19  O   UNL     1      23.645  43.197  51.229  1.00  0.00    -0.201 OA
HETATM   20  O   UNL     1      25.529  41.613  50.656  1.00  0.00    -0.201 OA
BRANCH  18  21
HETATM   21  C   UNL     1      26.005  43.683  52.203  1.00  0.00     0.080 A 
HETATM   22  C   UNL     1      27.329  43.285  52.395  1.00  0.00     0.034 A 
HETATM   23  C   UNL     1      28.110  43.800  53.458  1.00  0.00    -0.030 A 
HETATM   24  C   UNL     1      27.540  44.760  54.306  1.00  0.00     0.041 A 
HETATM   25  C   UNL     1      29.516  43.270  53.540  1.00  0.00     0.041 C 
HETATM   26  N   UNL     1      28.146  45.390  55.405  1.00  0.00    -0.327 N 
HETATM   27  C   UNL     1      26.202  45.156  54.084  1.00  0.00     0.031 A 
HETATM   28  C   UNL     1      29.362  45.329  55.999  1.00  0.00     0.222 C 
HETATM   29  H   UNL     1      27.565  46.046  55.915  1.00  0.00     0.169 HD
HETATM   30  O   UNL     1      29.549  46.053  56.983  1.00  0.00    -0.273 OA
HETATM   31  C   UNL     1      30.490  44.491  55.471  1.00  0.00     0.103 C 
HETATM   32  C   UNL     1      30.070  43.140  54.946  1.00  0.00     0.014 C 
HETATM   33  C   UNL     1      25.432  44.621  53.049  1.00  0.00     0.027 A 
ENDBRANCH  18  21
ENDBRANCH   1  18
TORSDOF 8
ENDMDL
MODEL 7
REMARK VINA RESULT:      -8.6      2.030     10.759
REMARK  8 active torsions:
REMARK  status: ('A' for Active; 'I' for Inactive)
REMARK    1  A    between atoms: O_2  and  C_3 
REMARK    2  A    between atoms: C_6  and  C_7 
REMARK    3  A    between atoms: C_7  and  N_8 
REMARK       I    between atoms: N_8  and  C_9 
REMARK    4  A    between atoms: C_9  and  C_10 
REMARK    5  A    between atoms: C_10  and  C_11 
REMARK    6  A    between atoms: C_11  and  N_12 
REMARK    7  A    between atoms: N_12  and  S_13 
REMARK    8  A    between atoms: S_13  and  C_14 
ROOT
HETATM    1  N   UNL     1      24.486  44.670  50.971  1.00  0.00    -0.315 N 
HETATM    2  H   UNL     1      23.537  44.906  51.259  1.00  0.00     0.172 HD
ENDROOT
BRANCH   1   3
HETATM    3  C   UNL     1      25.285  43.769  51.814  1.00  0.00     0.141 C 
BRANCH   3   4
HETATM    4  C   UNL     1      25.766  42.599  50.971  1.00  0.00     0.123 C 
BRANCH   4   5
HETATM    5  C   UNL     1      27.044  42.031  51.536  1.00  0.00     0.219 C 
HETATM    6  N   UNL     1      27.823  42.929  52.223  1.00  0.00    -0.357 N 
HETATM    7  H   UNL     1      27.527  43.891  52.335  1.00  0.00     0.162 HD
HETATM    8  O   UNL     1      27.351  40.856  51.363  1.00  0.00    -0.274 OA
BRANCH   6   9
HETATM    9  C   UNL     1      29.028  42.518  52.915  1.00  0.00     0.161 C 
BRANCH   9  10
HETATM   10  C   UNL     1      29.447  43.477  54.000  1.00  0.00    -0.040 A 
HETATM   11  C   UNL     1      28.650  44.595  54.287  1.00  0.00     0.011 A 
HETATM   12  C   UNL     1      28.960  45.448  55.352  1.00  0.00     0.037 A 
HETATM   13  C   UNL     1      30.069  45.188  56.155  1.00  0.00     0.068 A 
HETATM   14  C   UNL     1      30.878  44.089  55.868  1.00  0.00     0.037 A 
HETATM   15  C   UNL     1      30.563  43.230  54.811  1.00  0.00     0.011 A 
BRANCH  13  16
HETATM   16  O   UNL     1      30.464  45.932  57.233  1.00  0.00    -0.356 OA
HETATM   17  C   UNL     1      30.873  45.201  58.383  1.00  0.00     0.210 C 
ENDBRANCH  13  16
ENDBRANCH   9  10
ENDBRANCH   6   9
ENDBRANCH   4   5
ENDBRANCH   3   4
ENDBRANCH   1   3
BRANCH   1  18
HETATM   18  S   UNL     1      25.247  45.982  50.247  1.00  0.00     0.258 S 
HETATM   19  O   UNL     1      25.736  46.806  51.329  1.00  0.00    -0.201 OA
HETATM   20  O   UNL     1      26.129  45.465  49.223  1.00  0.00    -0.201 OA
BRANCH  18  21
HETATM   21  C   UNL     1      23.914  46.855  49.476  1.00  0.00     0.080 A 
HETATM   22  C   UNL     1      23.763  48.227  49.684  1.00  0.00     0.034 A 
HETATM   23  C   UNL     1      22.667  48.942  49.143  1.00  0.00    -0.030 A 
HETATM   24  C   UNL     1      21.740  48.250  48.350  1.00  0.00     0.041 A 
HETATM   25  C   UNL     1      22.636  50.412  49.461  1.00  0.00     0.041 C 
HETATM   26  N   UNL     1      20.598  48.775  47.724  1.00  0.00    -0.327 N 
HETATM   27  C   UNL     1      21.921  46.864  48.143  1.00  0.00     0.031 A 
HETATM   28  C   UNL     1      20.019  49.997  47.648  1.00  0.00     0.222 C 
HETATM   29  H   UNL     1      20.033  48.111  47.205  1.00  0.00     0.169 HD
HETATM   30  O   UNL     1      18.981  50.091  46.983  1.00  0.00    -0.273 OA
HETATM   31  C   UNL     1      20.619  51.228  48.262  1.00  0.00     0.103 C 
HETATM   32  C   UNL     1      21.248  51.004  49.616  1.00  0.00     0.014 C 
HETATM   33  C   UNL     1      22.991  46.164  48.704  1.00  0.00     0.027 A 
ENDBRANCH  18  21
ENDBRANCH   1  18
TORSDOF 8
ENDMDL
MODEL 8
REMARK VINA RESULT:      -8.5      1.772      2.347
REMARK  8 active torsions:
REMARK  status: ('A' for Active; 'I' for Inactive)
REMARK    1  A    between atoms: O_2  and  C_3 
REMARK    2  A    between atoms: C_6  and  C_7 
REMARK    3  A    between atoms: C_7  and  N_8 
REMARK       I    between atoms: N_8  and  C_9 
REMARK    4  A    between atoms: C_9  and  C_10 
REMARK    5  A    between atoms: C_10  and  C_11 
REMARK    6  A    between atoms: C_11  and  N_12 
REMARK    7  A    between atoms: N_12  and  S_13 
REMARK    8  A    between atoms: S_13  and  C_14 
ROOT
HETATM    1  N   UNL     1      25.786  43.076  51.687  1.00  0.00    -0.315 N 
HETATM    2  H   UNL     1      26.169  42.301  52.228  1.00  0.00     0.172 HD
ENDROOT
BRANCH   1   3
HETATM    3  C   UNL     1      24.911  42.785  50.542  1.00  0.00     0.141 C 
BRANCH   3   4
HETATM    4  C   UNL     1      23.530  43.358  50.814  1.00  0.00     0.123 C 
BRANCH   4   5
HETATM    5  C   UNL     1      22.884  43.812  49.529  1.00  0.00     0.219 C 
HETATM    6  N   UNL     1      22.837  45.173  49.353  1.00  0.00    -0.357 N 
HETATM    7  H   UNL     1      23.227  45.798  50.047  1.00  0.00     0.162 HD
HETATM    8  O   UNL     1      22.424  43.005  48.727  1.00  0.00    -0.274 OA
BRANCH   6   9
HETATM    9  C   UNL     1      22.345  45.765  48.126  1.00  0.00     0.161 C 
BRANCH   9  10
HETATM   10  C   UNL     1      21.972  47.218  48.274  1.00  0.00    -0.040 A 
HETATM   11  C   UNL     1      22.979  48.182  48.434  1.00  0.00     0.011 A 
HETATM   12  C   UNL     1      22.672  49.547  48.476  1.00  0.00     0.037 A 
HETATM   13  C   UNL     1      21.351  49.969  48.345  1.00  0.00     0.068 A 
HETATM   14  C   UNL     1      20.340  49.018  48.203  1.00  0.00     0.037 A 
HETATM   15  C   UNL     1      20.647  47.655  48.151  1.00  0.00     0.011 A 
BRANCH  13  16
HETATM   16  O   UNL     1      20.925  51.270  48.350  1.00  0.00    -0.356 OA
HETATM   17  C   UNL     1      19.879  51.583  49.261  1.00  0.00     0.210 C 
ENDBRANCH  13  16
ENDBRANCH   9  10
ENDBRANCH   6   9
ENDBRANCH   4   5
ENDBRANCH   3   4
ENDBRANCH   1   3
BRANCH   1  18
HETATM   18  S   UNL     1      26.893  44.334  51.556  1.00  0.00     0.258 S 
HETATM   19  O   UNL     1      27.588  44.124  50.307  1.00  0.00    -0.201 OA
HETATM   20  O   UNL     1      26.189  45.566  51.841  1.00  0.00    -0.201 OA
BRANCH  18  21
HETATM   21  C   UNL     1      28.041  44.007  52.863  1.00  0.00     0.080 A 
HETATM   22  C   UNL     1      28.077  44.834  53.987  1.00  0.00     0.034 A 
HETATM   23  C   UNL     1      29.031  44.644  55.015  1.00  0.00    -0.030 A 
HETATM   24  C   UNL     1      29.929  43.573  54.908  1.00  0.00     0.041 A 
HETATM   25  C   UNL     1      28.951  45.621  56.157  1.00  0.00     0.041 C 
HETATM   26  N   UNL     1      30.939  43.217  55.817  1.00  0.00    -0.327 N 
HETATM   27  C   UNL     1      29.865  42.741  53.768  1.00  0.00     0.031 A 
HETATM   28  C   UNL     1      31.382  43.702  57.001  1.00  0.00     0.222 C 
HETATM   29  H   UNL     1      31.507  42.417  55.557  1.00  0.00     0.169 HD
HETATM   30  O   UNL     1      32.327  43.112  57.537  1.00  0.00    -0.273 OA
HETATM   31  C   UNL     1      30.735  44.857  57.708  1.00  0.00     0.103 C 
HETATM   32  C   UNL     1      30.282  45.970  56.795  1.00  0.00     0.014 C 
HETATM   33  C   UNL     1      28.937  42.954  52.746  1.00  0.00     0.027 A 
ENDBRANCH  18  21
ENDBRANCH   1  18
TORSDOF 8
ENDMDL
MODEL 9
REMARK VINA RESULT:      -8.4      2.361     10.419
REMARK  8 active torsions:
REMARK  status: ('A' for Active; 'I' for Inactive)
REMARK    1  A    between atoms: O_2  and  C_3 
REMARK    2  A    between atoms: C_6  and  C_7 
REMARK    3  A    between atoms: C_7  and  N_8 
REMARK       I    between atoms: N_8  and  C_9 
REMARK    4  A    between atoms: C_9  and  C_10 
REMARK    5  A    between atoms: C_10  and  C_11 
REMARK    6  A    between atoms: C_11  and  N_12 
REMARK    7  A    between atoms: N_12  and  S_13 
REMARK    8  A    between atoms: S_13  and  C_14 
ROOT
HETATM    1  N   UNL     1      25.082  44.296  48.712  1.00  0.00    -0.315 N 
HETATM    2  H   UNL     1      25.214  43.704  47.893  1.00  0.00     0.172 HD
ENDROOT
BRANCH   1   3
HETATM    3  C   UNL     1      26.215  44.516  49.623  1.00  0.00     0.141 C 
BRANCH   3   4
HETATM    4  C   UNL     1      26.414  46.011  49.815  1.00  0.00     0.123 C 
BRANCH   4   5
HETATM    5  C   UNL     1      26.295  46.376  51.274  1.00  0.00     0.219 C 
HETATM    6  N   UNL     1      26.319  45.312  52.142  1.00  0.00    -0.357 N 
HETATM    7  H   UNL     1      26.422  44.366  51.797  1.00  0.00     0.162 HD
HETATM    8  O   UNL     1      26.167  47.543  51.630  1.00  0.00    -0.274 OA
BRANCH   6   9
HETATM    9  C   UNL     1      26.321  45.502  53.578  1.00  0.00     0.161 C 
BRANCH   9  10
HETATM   10  C   UNL     1      27.564  44.971  54.246  1.00  0.00    -0.040 A 
HETATM   11  C   UNL     1      28.062  43.709  53.888  1.00  0.00     0.011 A 
HETATM   12  C   UNL     1      29.266  43.232  54.417  1.00  0.00     0.037 A 
HETATM   13  C   UNL     1      29.998  44.016  55.306  1.00  0.00     0.068 A 
HETATM   14  C   UNL     1      29.503  45.265  55.682  1.00  0.00     0.037 A 
HETATM   15  C   UNL     1      28.306  45.748  55.146  1.00  0.00     0.011 A 
BRANCH  13  16
HETATM   16  O   UNL     1      31.194  43.672  55.875  1.00  0.00    -0.356 OA
HETATM   17  C   UNL     1      31.318  43.922  57.270  1.00  0.00     0.210 C 
ENDBRANCH  13  16
ENDBRANCH   9  10
ENDBRANCH   6   9
ENDBRANCH   4   5
ENDBRANCH   3   4
ENDBRANCH   1   3
BRANCH   1  18
HETATM   18  S   UNL     1      23.548  44.097  49.369  1.00  0.00     0.258 S 
HETATM   19  O   UNL     1      22.961  42.973  48.676  1.00  0.00    -0.201 OA
HETATM   20  O   UNL     1      23.683  44.121  50.808  1.00  0.00    -0.201 OA
BRANCH  18  21
HETATM   21  C   UNL     1      22.686  45.551  48.843  1.00  0.00     0.080 A 
HETATM   22  C   UNL     1      23.204  46.815  49.134  1.00  0.00     0.034 A 
HETATM   23  C   UNL     1      22.504  47.997  48.792  1.00  0.00    -0.030 A 
HETATM   24  C   UNL     1      21.283  47.883  48.112  1.00  0.00     0.041 A 
HETATM   25  C   UNL     1      23.184  49.283  49.179  1.00  0.00     0.041 C 
HETATM   26  N   UNL     1      20.447  48.927  47.686  1.00  0.00    -0.327 N 
HETATM   27  C   UNL     1      20.786  46.593  47.817  1.00  0.00     0.031 A 
HETATM   28  C   UNL     1      20.487  50.279  47.752  1.00  0.00     0.222 C 
HETATM   29  H   UNL     1      19.588  48.646  47.225  1.00  0.00     0.169 HD
HETATM   30  O   UNL     1      19.541  50.899  47.252  1.00  0.00    -0.273 OA
HETATM   31  C   UNL     1      21.646  51.038  48.328  1.00  0.00     0.103 C 
HETATM   32  C   UNL     1      22.248  50.412  49.563  1.00  0.00     0.014 C 
HETATM   33  C   UNL     1      21.472  45.433  48.183  1.00  0.00     0.027 A 
ENDBRANCH  18  21
ENDBRANCH   1  18
TORSDOF 8
ENDMDL
MODEL 10
REMARK VINA RESULT:      -8.4     12.296     14.545
REMARK  8 active torsions:
REMARK  status: ('A' for Active; 'I' for Inactive)
REMARK    1  A    between atoms: O_2  and  C_3 
REMARK    2  A    between atoms: C_6  and  C_7 
REMARK    3  A    between atoms: C_7  and  N_8 
REMARK       I    between atoms: N_8  and  C_9 
REMARK    4  A    between atoms: C_9  and  C_10 
REMARK    5  A    between atoms: C_10  and  C_11 
REMARK    6  A    between atoms: C_11  and  N_12 
REMARK    7  A    between atoms: N_12  and  S_13 
REMARK    8  A    between atoms: S_13  and  C_14 
ROOT
HETATM    1  N   UNL     1      26.678  46.834  37.889  1.00  0.00    -0.315 N 
HETATM    2  H   UNL     1      27.519  46.963  37.327  1.00  0.00     0.172 HD
ENDROOT
BRANCH   1   3
HETATM    3  C   UNL     1      25.688  47.919  37.952  1.00  0.00     0.141 C 
BRANCH   3   4
HETATM    4  C   UNL     1      26.322  49.200  37.434  1.00  0.00     0.123 C 
BRANCH   4   5
HETATM    5  C   UNL     1      26.775  50.067  38.582  1.00  0.00     0.219 C 
HETATM    6  N   UNL     1      28.091  50.456  38.529  1.00  0.00    -0.357 N 
HETATM    7  H   UNL     1      28.683  50.175  37.758  1.00  0.00     0.162 HD
HETATM    8  O   UNL     1      26.011  50.370  39.493  1.00  0.00    -0.274 OA
BRANCH   6   9
HETATM    9  C   UNL     1      28.652  51.375  39.499  1.00  0.00     0.161 C 
BRANCH   9  10
HETATM   10  C   UNL     1      30.146  51.532  39.375  1.00  0.00    -0.040 A 
HETATM   11  C   UNL     1      30.829  50.889  38.331  1.00  0.00     0.011 A 
HETATM   12  C   UNL     1      32.199  51.095  38.131  1.00  0.00     0.037 A 
HETATM   13  C   UNL     1      32.905  51.957  38.967  1.00  0.00     0.068 A 
HETATM   14  C   UNL     1      32.239  52.587  40.018  1.00  0.00     0.037 A 
HETATM   15  C   UNL     1      30.869  52.391  40.213  1.00  0.00     0.011 A 
BRANCH  13  16
HETATM   16  O   UNL     1      34.237  52.255  38.863  1.00  0.00    -0.356 OA
HETATM   17  C   UNL     1      35.037  51.951  40.000  1.00  0.00     0.210 C 
ENDBRANCH  13  16
ENDBRANCH   9  10
ENDBRANCH   6   9
ENDBRANCH   4   5
ENDBRANCH   3   4
ENDBRANCH   1   3
BRANCH   1  18
HETATM   18  S   UNL     1      27.006  45.960  39.286  1.00  0.00     0.258 S 
HETATM   19  O   UNL     1      25.758  45.885  40.011  1.00  0.00    -0.201 OA
HETATM   20  O   UNL     1      27.736  44.773  38.897  1.00  0.00    -0.201 OA
BRANCH  18  21
HETATM   21  C   UNL     1      28.084  47.031  40.195  1.00  0.00     0.080 A 
HETATM   22  C   UNL     1      29.446  47.073  39.893  1.00  0.00     0.034 A 
HETATM   23  C   UNL     1      30.346  47.863  40.648  1.00  0.00    -0.030 A 
HETATM   24  C   UNL     1      29.839  48.646  41.695  1.00  0.00     0.041 A 
HETATM   25  C   UNL     1      31.784  47.799  40.208  1.00  0.00     0.041 C 
HETATM   26  N   UNL     1      30.562  49.493  42.550  1.00  0.00    -0.327 N 
HETATM   27  C   UNL     1      28.454  48.596  41.973  1.00  0.00     0.031 A 
HETATM   28  C   UNL     1      31.863  49.844  42.681  1.00  0.00     0.222 C 
HETATM   29  H   UNL     1      30.021  49.965  43.267  1.00  0.00     0.169 HD
HETATM   30  O   UNL     1      32.146  50.645  43.580  1.00  0.00    -0.273 OA
HETATM   31  C   UNL     1      32.939  49.368  41.750  1.00  0.00     0.103 C 
HETATM   32  C   UNL     1      32.802  47.926  41.326  1.00  0.00     0.014 C 
HETATM   33  C   UNL     1      27.579  47.792  41.239  1.00  0.00     0.027 A 
ENDBRANCH  18  21
ENDBRANCH   1  18
TORSDOF 8
ENDMDL
