MODEL 1
REMARK VINA RESULT:      -9.6      0.000      0.000
REMARK  8 active torsions:
REMARK  status: ('A' for Active; 'I' for Inactive)
REMARK    1  A    between atoms: C_2  and  N_3 
REMARK       I    between atoms: N_3  and  C_4 
REMARK       I    between atoms: C_4  and  N_5 
REMARK       I    between atoms: N_5  and  C_6 
REMARK    2  A    between atoms: C_6  and  C_7 
REMARK    3  A    between atoms: C_7  and  S_8 
REMARK    4  A    between atoms: C_7  and  C_29 
REMARK    5  A    between atoms: S_8  and  C_9 
REMARK    6  A    between atoms: N_10  and  C_11 
REMARK    7  A    between atoms: C_18  and  C_19 
REMARK    8  A    between atoms: C_19  and  N_20 
ROOT
HETATM    1  C   UNL     1      24.998  45.059  51.677  1.00  0.00     0.197 A 
HETATM    2  N   UNL     1      24.757  45.738  50.495  1.00  0.00    -0.274 N 
HETATM    3  C   UNL     1      23.694  45.043  49.930  1.00  0.00     0.161 A 
HETATM    4  N   UNL     1      23.322  44.064  50.732  1.00  0.00    -0.132 NA
HETATM    5  N   UNL     1      24.127  44.087  51.827  1.00  0.00    -0.122 NA
ENDROOT
BRANCH   1   6
HETATM    6  S   UNL     1      26.081  45.554  52.932  1.00  0.00    -0.070 SA
BRANCH   6   7
HETATM    7  C   UNL     1      27.077  44.045  53.241  1.00  0.00     0.180 C 
BRANCH   7   8
HETATM    8  C   UNL     1      27.418  43.237  51.978  1.00  0.00     0.244 C 
HETATM    9  N   UNL     1      26.588  42.179  51.660  1.00  0.00    -0.278 N 
HETATM   10  C   UNL     1      26.888  41.080  50.901  1.00  0.00     0.322 C 
HETATM   11  H   UNL     1      25.803  41.988  52.270  1.00  0.00     0.173 HD
HETATM   12  N   UNL     1      27.953  41.200  50.065  1.00  0.00    -0.343 N 
HETATM   13  O   UNL     1      26.224  40.056  51.035  1.00  0.00    -0.247 OA
HETATM   14  H   UNL     1      28.415  42.106  50.020  1.00  0.00     0.164 HD
HETATM   15  O   UNL     1      28.331  43.598  51.230  1.00  0.00    -0.271 OA
BRANCH  12  16
HETATM   16  C   UNL     1      28.435  40.119  49.234  1.00  0.00     0.120 C 
HETATM   17  C   UNL     1      28.353  40.449  47.754  1.00  0.00     0.026 C 
ENDBRANCH  12  16
ENDBRANCH   7   8
BRANCH   7  18
HETATM   18  C   UNL     1      28.233  44.286  54.201  1.00  0.00    -0.035 A 
HETATM   19  C   UNL     1      28.322  45.520  54.872  1.00  0.00     0.009 A 
HETATM   20  C   UNL     1      29.384  45.795  55.733  1.00  0.00     0.001 A 
HETATM   21  C   UNL     1      30.375  44.839  55.941  1.00  0.00     0.000 A 
HETATM   22  C   UNL     1      30.303  43.611  55.288  1.00  0.00     0.001 A 
HETATM   23  C   UNL     1      29.241  43.335  54.423  1.00  0.00     0.009 A 
ENDBRANCH   7  18
ENDBRANCH   6   7
ENDBRANCH   1   6
BRANCH   2  24
HETATM   24  C   UNL     1      25.431  46.860  49.955  1.00  0.00     0.043 A 
HETATM   25  C   UNL     1      24.726  48.041  49.687  1.00  0.00     0.033 A 
HETATM   26  C   UNL     1      25.398  49.147  49.161  1.00  0.00     0.044 A 
HETATM   27  C   UNL     1      26.760  49.065  48.899  1.00  0.00     0.116 A 
HETATM   28  F   UNL     1      27.401  50.125  48.394  1.00  0.00    -0.206 F 
HETATM   29  C   UNL     1      27.467  47.895  49.150  1.00  0.00     0.044 A 
HETATM   30  C   UNL     1      26.805  46.784  49.678  1.00  0.00     0.033 A 
ENDBRANCH   2  24
BRANCH   3  31
HETATM   31  C   UNL     1      23.140  45.212  48.560  1.00  0.00     0.315 C 
BRANCH  31  32
HETATM   32  N   UNL     1      21.883  46.078  48.585  1.00  0.00    -0.064 N 
HETATM   33  H   UNL     1      21.872  46.483  49.538  1.00  0.00     0.280 HD
HETATM   34  C   UNL     1      21.976  47.247  47.631  1.00  0.00     0.235 C 
HETATM   35  C   UNL     1      20.768  48.154  47.811  1.00  0.00     0.028 C 
HETATM   36  C   UNL     1      19.462  47.386  47.645  1.00  0.00     0.003 C 
HETATM   37  C   UNL     1      19.411  46.182  48.579  1.00  0.00     0.028 C 
HETATM   38  C   UNL     1      20.622  45.278  48.405  1.00  0.00     0.235 C 
ENDBRANCH  31  32
ENDBRANCH   3  31
TORSDOF 8
ENDMDL
MODEL 2
REMARK VINA RESULT:      -9.2      3.171      8.629
REMARK  8 active torsions:
REMARK  status: ('A' for Active; 'I' for Inactive)
REMARK    1  A    between atoms: C_2  and  N_3 
REMARK       I    between atoms: N_3  and  C_4 
REMARK       I    between atoms: C_4  and  N_5 
REMARK       I    between atoms: N_5  and  C_6 
REMARK    2  A    between atoms: C_6  and  C_7 
REMARK    3  A    between atoms: C_7  and  S_8 
REMARK    4  A    between atoms: C_7  and  C_29 
REMARK    5  A    between atoms: S_8  and  C_9 
REMARK    6  A    between atoms: N_10  and  C_11 
REMARK    7  A    between atoms: C_18  and  C_19 
REMARK    8  A    between atoms: C_19  and  N_20 
ROOT
HETATM    1  C   UNL     1      24.136  45.038  50.103  1.00  0.00     0.197 A 
HETATM    2  N   UNL     1      24.908  46.066  50.615  1.00  0.00    -0.274 N 
HETATM    3  C   UNL     1      25.027  45.746  51.963  1.00  0.00     0.161 A 
HETATM    4  N   UNL     1      24.406  44.608  52.209  1.00  0.00    -0.132 NA
HETATM    5  N   UNL     1      23.866  44.162  51.044  1.00  0.00    -0.122 NA
ENDROOT
BRANCH   1   6
HETATM    6  S   UNL     1      23.795  44.757  48.430  1.00  0.00    -0.070 SA
BRANCH   6   7
HETATM    7  C   UNL     1      22.006  45.144  48.299  1.00  0.00     0.180 C 
BRANCH   7   8
HETATM    8  C   UNL     1      21.687  46.642  48.165  1.00  0.00     0.244 C 
HETATM    9  N   UNL     1      20.971  47.231  49.190  1.00  0.00    -0.278 N 
HETATM   10  C   UNL     1      20.204  48.363  49.130  1.00  0.00     0.322 C 
HETATM   11  H   UNL     1      20.693  46.652  49.971  1.00  0.00     0.173 HD
HETATM   12  N   UNL     1      20.457  49.207  48.095  1.00  0.00    -0.343 N 
HETATM   13  O   UNL     1      19.323  48.539  49.968  1.00  0.00    -0.247 OA
HETATM   14  H   UNL     1      21.228  48.970  47.474  1.00  0.00     0.164 HD
HETATM   15  O   UNL     1      22.152  47.302  47.231  1.00  0.00    -0.271 OA
BRANCH  12  16
HETATM   16  C   UNL     1      19.704  50.418  47.857  1.00  0.00     0.120 C 
HETATM   17  C   UNL     1      20.358  51.637  48.482  1.00  0.00     0.026 C 
ENDBRANCH  12  16
ENDBRANCH   7   8
BRANCH   7  18
HETATM   18  C   UNL     1      21.272  44.225  47.334  1.00  0.00    -0.035 A 
HETATM   19  C   UNL     1      21.915  43.062  46.871  1.00  0.00     0.009 A 
HETATM   20  C   UNL     1      21.291  42.211  45.959  1.00  0.00     0.001 A 
HETATM   21  C   UNL     1      20.012  42.506  45.496  1.00  0.00     0.000 A 
HETATM   22  C   UNL     1      19.359  43.650  45.945  1.00  0.00     0.001 A 
HETATM   23  C   UNL     1      19.983  44.505  46.857  1.00  0.00     0.009 A 
ENDBRANCH   7  18
ENDBRANCH   6   7
ENDBRANCH   1   6
BRANCH   2  24
HETATM   24  C   UNL     1      25.444  47.197  49.953  1.00  0.00     0.043 A 
HETATM   25  C   UNL     1      26.821  47.282  49.709  1.00  0.00     0.033 A 
HETATM   26  C   UNL     1      27.342  48.397  49.049  1.00  0.00     0.044 A 
HETATM   27  C   UNL     1      26.492  49.420  48.647  1.00  0.00     0.116 A 
HETATM   28  F   UNL     1      26.994  50.487  48.016  1.00  0.00    -0.206 F 
HETATM   29  C   UNL     1      25.126  49.352  48.893  1.00  0.00     0.044 A 
HETATM   30  C   UNL     1      24.594  48.240  49.550  1.00  0.00     0.033 A 
ENDBRANCH   2  24
BRANCH   3  31
HETATM   31  C   UNL     1      25.592  46.601  53.040  1.00  0.00     0.315 C 
BRANCH  31  32
HETATM   32  N   UNL     1      26.552  45.803  53.920  1.00  0.00    -0.064 N 
HETATM   33  H   UNL     1      25.931  45.246  54.533  1.00  0.00     0.280 HD
HETATM   34  C   UNL     1      27.363  44.807  53.123  1.00  0.00     0.235 C 
HETATM   35  C   UNL     1      28.182  43.941  54.067  1.00  0.00     0.028 C 
HETATM   36  C   UNL     1      29.060  44.786  54.982  1.00  0.00     0.003 C 
HETATM   37  C   UNL     1      28.230  45.818  55.738  1.00  0.00     0.028 C 
HETATM   38  C   UNL     1      27.404  46.680  54.795  1.00  0.00     0.235 C 
ENDBRANCH  31  32
ENDBRANCH   3  31
TORSDOF 8
ENDMDL
MODEL 3
REMARK VINA RESULT:      -9.0      3.478      8.902
REMARK  8 active torsions:
REMARK  status: ('A' for Active; 'I' for Inactive)
REMARK    1  A    between atoms: C_2  and  N_3 
REMARK       I    between atoms: N_3  and  C_4 
REMARK       I    between atoms: C_4  and  N_5 
REMARK       I    between atoms: N_5  and  C_6 
REMARK    2  A    between atoms: C_6  and  C_7 
REMARK    3  A    between atoms: C_7  and  S_8 
REMARK    4  A    between atoms: C_7  and  C_29 
REMARK    5  A    between atoms: S_8  and  C_9 
REMARK    6  A    between atoms: N_10  and  C_11 
REMARK    7  A    between atoms: C_18  and  C_19 
REMARK    8  A    between atoms: C_19  and  N_20 
ROOT
HETATM    1  C   UNL     1      25.507  46.659  51.059  1.00  0.00     0.197 A 
HETATM    2  N   UNL     1      25.676  45.441  51.693  1.00  0.00    -0.274 N 
HETATM    3  C   UNL     1      25.695  45.774  53.042  1.00  0.00     0.161 A 
HETATM    4  N   UNL     1      25.517  47.074  53.185  1.00  0.00    -0.132 NA
HETATM    5  N   UNL     1      25.384  47.619  51.947  1.00  0.00    -0.122 NA
ENDROOT
BRANCH   1   6
HETATM    6  S   UNL     1      25.209  46.895  49.371  1.00  0.00    -0.070 SA
BRANCH   6   7
HETATM    7  C   UNL     1      23.387  46.724  49.242  1.00  0.00     0.180 C 
BRANCH   7   8
HETATM    8  C   UNL     1      22.654  48.012  48.834  1.00  0.00     0.244 C 
HETATM    9  N   UNL     1      21.636  48.450  49.660  1.00  0.00    -0.278 N 
HETATM   10  C   UNL     1      20.582  49.259  49.330  1.00  0.00     0.322 C 
HETATM   11  H   UNL     1      21.423  47.905  50.485  1.00  0.00     0.173 HD
HETATM   12  N   UNL     1      20.731  50.016  48.211  1.00  0.00    -0.343 N 
HETATM   13  O   UNL     1      19.565  49.234  50.019  1.00  0.00    -0.247 OA
HETATM   14  H   UNL     1      21.629  49.973  47.732  1.00  0.00     0.164 HD
HETATM   15  O   UNL     1      23.042  48.676  47.868  1.00  0.00    -0.271 OA
BRANCH  12  16
HETATM   16  C   UNL     1      19.696  50.883  47.695  1.00  0.00     0.120 C 
HETATM   17  C   UNL     1      19.641  52.214  48.423  1.00  0.00     0.026 C 
ENDBRANCH  12  16
ENDBRANCH   7   8
BRANCH   7  18
HETATM   18  C   UNL     1      22.962  45.463  48.505  1.00  0.00    -0.035 A 
HETATM   19  C   UNL     1      23.940  44.518  48.141  1.00  0.00     0.009 A 
HETATM   20  C   UNL     1      23.598  43.366  47.433  1.00  0.00     0.001 A 
HETATM   21  C   UNL     1      22.271  43.136  47.080  1.00  0.00     0.000 A 
HETATM   22  C   UNL     1      21.289  44.057  47.434  1.00  0.00     0.001 A 
HETATM   23  C   UNL     1      21.630  45.213  48.140  1.00  0.00     0.009 A 
ENDBRANCH   7  18
ENDBRANCH   6   7
ENDBRANCH   1   6
BRANCH   2  24
HETATM   24  C   UNL     1      25.819  44.150  51.127  1.00  0.00     0.043 A 
HETATM   25  C   UNL     1      27.021  43.785  50.507  1.00  0.00     0.033 A 
HETATM   26  C   UNL     1      27.159  42.508  49.957  1.00  0.00     0.044 A 
HETATM   27  C   UNL     1      26.098  41.612  50.022  1.00  0.00     0.116 A 
HETATM   28  F   UNL     1      26.232  40.391  49.493  1.00  0.00    -0.206 F 
HETATM   29  C   UNL     1      24.897  41.968  50.624  1.00  0.00     0.044 A 
HETATM   30  C   UNL     1      24.751  43.241  51.180  1.00  0.00     0.033 A 
ENDBRANCH   2  24
BRANCH   3  31
HETATM   31  C   UNL     1      26.043  44.883  54.181  1.00  0.00     0.315 C 
BRANCH  31  32
HETATM   32  N   UNL     1      27.553  44.680  54.273  1.00  0.00    -0.064 N 
HETATM   33  H   UNL     1      27.928  45.194  53.456  1.00  0.00     0.280 HD
HETATM   34  C   UNL     1      28.145  45.345  55.496  1.00  0.00     0.235 C 
HETATM   35  C   UNL     1      29.661  45.242  55.451  1.00  0.00     0.028 C 
HETATM   36  C   UNL     1      30.120  43.796  55.311  1.00  0.00     0.003 C 
HETATM   37  C   UNL     1      29.473  43.129  54.102  1.00  0.00     0.028 C 
HETATM   38  C   UNL     1      27.956  43.238  54.141  1.00  0.00     0.235 C 
ENDBRANCH  31  32
ENDBRANCH   3  31
TORSDOF 8
ENDMDL
MODEL 4
REMARK VINA RESULT:      -8.7      3.124      7.700
REMARK  8 active torsions:
REMARK  status: ('A' for Active; 'I' for Inactive)
REMARK    1  A    between atoms: C_2  and  N_3 
REMARK       I    between atoms: N_3  and  C_4 
REMARK       I    between atoms: C_4  and  N_5 
REMARK       I    between atoms: N_5  and  C_6 
REMARK    2  A    between atoms: C_6  and  C_7 
REMARK    3  A    between atoms: C_7  and  S_8 
REMARK    4  A    between atoms: C_7  and  C_29 
REMARK    5  A    between atoms: S_8  and  C_9 
REMARK    6  A    between atoms: N_10  and  C_11 
REMARK    7  A    between atoms: C_18  and  C_19 
REMARK    8  A    between atoms: C_19  and  N_20 
ROOT
HETATM    1  C   UNL     1      25.416  42.141  49.821  1.00  0.00     0.197 A 
HETATM    2  N   UNL     1      26.753  41.873  50.061  1.00  0.00    -0.274 N 
HETATM    3  C   UNL     1      27.203  41.350  48.854  1.00  0.00     0.161 A 
HETATM    4  N   UNL     1      26.220  41.346  47.973  1.00  0.00    -0.132 NA
HETATM    5  N   UNL     1      25.113  41.855  48.576  1.00  0.00    -0.122 NA
ENDROOT
BRANCH   1   6
HETATM    6  S   UNL     1      24.343  42.990  50.880  1.00  0.00    -0.070 SA
BRANCH   6   7
HETATM    7  C   UNL     1      24.878  44.736  50.703  1.00  0.00     0.180 C 
BRANCH   7   8
HETATM    8  C   UNL     1      23.885  45.632  49.946  1.00  0.00     0.244 C 
HETATM    9  N   UNL     1      24.260  46.942  49.719  1.00  0.00    -0.278 N 
HETATM   10  C   UNL     1      23.444  48.017  49.488  1.00  0.00     0.322 C 
HETATM   11  H   UNL     1      25.162  47.246  50.061  1.00  0.00     0.173 HD
HETATM   12  N   UNL     1      22.185  47.736  49.061  1.00  0.00    -0.343 N 
HETATM   13  O   UNL     1      23.863  49.151  49.708  1.00  0.00    -0.247 OA
HETATM   14  H   UNL     1      21.955  46.759  48.890  1.00  0.00     0.164 HD
HETATM   15  O   UNL     1      22.848  45.159  49.470  1.00  0.00    -0.271 OA
BRANCH  12  16
HETATM   16  C   UNL     1      21.183  48.750  48.820  1.00  0.00     0.120 C 
HETATM   17  C   UNL     1      19.793  48.296  49.228  1.00  0.00     0.026 C 
ENDBRANCH  12  16
ENDBRANCH   7   8
BRANCH   7  18
HETATM   18  C   UNL     1      25.439  45.317  51.992  1.00  0.00    -0.035 A 
HETATM   19  C   UNL     1      25.354  44.563  53.178  1.00  0.00     0.009 A 
HETATM   20  C   UNL     1      25.824  45.072  54.388  1.00  0.00     0.001 A 
HETATM   21  C   UNL     1      26.390  46.343  54.434  1.00  0.00     0.000 A 
HETATM   22  C   UNL     1      26.486  47.103  53.271  1.00  0.00     0.001 A 
HETATM   23  C   UNL     1      26.014  46.595  52.058  1.00  0.00     0.009 A 
ENDBRANCH   7  18
ENDBRANCH   6   7
ENDBRANCH   1   6
BRANCH   2  24
HETATM   24  C   UNL     1      27.503  42.058  51.247  1.00  0.00     0.043 A 
HETATM   25  C   UNL     1      28.248  43.230  51.433  1.00  0.00     0.033 A 
HETATM   26  C   UNL     1      28.980  43.410  52.608  1.00  0.00     0.044 A 
HETATM   27  C   UNL     1      28.972  42.419  53.583  1.00  0.00     0.116 A 
HETATM   28  F   UNL     1      29.676  42.592  54.707  1.00  0.00    -0.206 F 
HETATM   29  C   UNL     1      28.247  41.246  53.405  1.00  0.00     0.044 A 
HETATM   30  C   UNL     1      27.509  41.059  52.234  1.00  0.00     0.033 A 
ENDBRANCH   2  24
BRANCH   3  31
HETATM   31  C   UNL     1      28.519  40.709  48.590  1.00  0.00     0.315 C 
BRANCH  31  32
HETATM   32  N   UNL     1      28.373  39.193  48.479  1.00  0.00    -0.064 N 
HETATM   33  H   UNL     1      29.286  38.825  48.801  1.00  0.00     0.280 HD
HETATM   34  C   UNL     1      27.338  38.648  49.437  1.00  0.00     0.235 C 
HETATM   35  C   UNL     1      27.348  37.127  49.391  1.00  0.00     0.028 C 
HETATM   36  C   UNL     1      27.140  36.609  47.974  1.00  0.00     0.003 C 
HETATM   37  C   UNL     1      28.161  37.210  47.014  1.00  0.00     0.028 C 
HETATM   38  C   UNL     1      28.158  38.731  47.064  1.00  0.00     0.235 C 
ENDBRANCH  31  32
ENDBRANCH   3  31
TORSDOF 8
ENDMDL
MODEL 5
REMARK VINA RESULT:      -8.5      2.791      3.973
REMARK  8 active torsions:
REMARK  status: ('A' for Active; 'I' for Inactive)
REMARK    1  A    between atoms: C_2  and  N_3 
REMARK       I    between atoms: N_3  and  C_4 
REMARK       I    between atoms: C_4  and  N_5 
REMARK       I    between atoms: N_5  and  C_6 
REMARK    2  A    between atoms: C_6  and  C_7 
REMARK    3  A    between atoms: C_7  and  S_8 
REMARK    4  A    between atoms: C_7  and  C_29 
REMARK    5  A    between atoms: S_8  and  C_9 
REMARK    6  A    between atoms: N_10  and  C_11 
REMARK    7  A    between atoms: C_18  and  C_19 
REMARK    8  A    between atoms: C_19  and  N_20 
ROOT
HETATM    1  C   UNL     1      24.945  47.157  49.874  1.00  0.00     0.197 A 
HETATM    2  N   UNL     1      23.792  46.581  49.371  1.00  0.00    -0.274 N 
HETATM    3  C   UNL     1      22.930  47.660  49.209  1.00  0.00     0.161 A 
HETATM    4  N   UNL     1      23.543  48.777  49.554  1.00  0.00    -0.132 NA
HETATM    5  N   UNL     1      24.803  48.461  49.953  1.00  0.00    -0.122 NA
ENDROOT
BRANCH   1   6
HETATM    6  S   UNL     1      26.463  46.361  50.106  1.00  0.00    -0.070 SA
BRANCH   6   7
HETATM    7  C   UNL     1      26.134  45.242  51.522  1.00  0.00     0.180 C 
BRANCH   7   8
HETATM    8  C   UNL     1      26.547  43.779  51.287  1.00  0.00     0.244 C 
HETATM    9  N   UNL     1      26.712  42.981  52.403  1.00  0.00    -0.278 N 
HETATM   10  C   UNL     1      27.465  41.844  52.512  1.00  0.00     0.322 C 
HETATM   11  H   UNL     1      26.555  43.395  53.313  1.00  0.00     0.173 HD
HETATM   12  N   UNL     1      27.777  41.214  51.349  1.00  0.00    -0.343 N 
HETATM   13  O   UNL     1      27.845  41.477  53.622  1.00  0.00    -0.247 OA
HETATM   14  H   UNL     1      27.386  41.596  50.490  1.00  0.00     0.164 HD
HETATM   15  O   UNL     1      26.616  43.323  50.142  1.00  0.00    -0.271 OA
BRANCH  12  16
HETATM   16  C   UNL     1      28.607  40.032  51.284  1.00  0.00     0.120 C 
HETATM   17  C   UNL     1      28.462  39.298  49.963  1.00  0.00     0.026 C 
ENDBRANCH  12  16
ENDBRANCH   7   8
BRANCH   7  18
HETATM   18  C   UNL     1      26.554  45.839  52.857  1.00  0.00    -0.035 A 
HETATM   19  C   UNL     1      25.848  46.945  53.366  1.00  0.00     0.009 A 
HETATM   20  C   UNL     1      26.222  47.544  54.569  1.00  0.00     0.001 A 
HETATM   21  C   UNL     1      27.306  47.046  55.286  1.00  0.00     0.000 A 
HETATM   22  C   UNL     1      28.015  45.950  54.800  1.00  0.00     0.001 A 
HETATM   23  C   UNL     1      27.643  45.350  53.594  1.00  0.00     0.009 A 
ENDBRANCH   7  18
ENDBRANCH   6   7
ENDBRANCH   1   6
BRANCH   2  24
HETATM   24  C   UNL     1      23.518  45.219  49.099  1.00  0.00     0.043 A 
HETATM   25  C   UNL     1      23.657  44.721  47.796  1.00  0.00     0.033 A 
HETATM   26  C   UNL     1      23.393  43.375  47.535  1.00  0.00     0.044 A 
HETATM   27  C   UNL     1      22.985  42.540  48.568  1.00  0.00     0.116 A 
HETATM   28  F   UNL     1      22.732  41.251  48.315  1.00  0.00    -0.206 F 
HETATM   29  C   UNL     1      22.833  43.025  49.862  1.00  0.00     0.044 A 
HETATM   30  C   UNL     1      23.098  44.369  50.134  1.00  0.00     0.033 A 
ENDBRANCH   2  24
BRANCH   3  31
HETATM   31  C   UNL     1      21.481  47.609  48.880  1.00  0.00     0.315 C 
BRANCH  31  32
HETATM   32  N   UNL     1      20.723  48.731  49.585  1.00  0.00    -0.064 N 
HETATM   33  H   UNL     1      21.278  48.914  50.439  1.00  0.00     0.280 HD
HETATM   34  C   UNL     1      20.736  50.016  48.789  1.00  0.00     0.235 C 
HETATM   35  C   UNL     1      20.103  51.132  49.607  1.00  0.00     0.028 C 
HETATM   36  C   UNL     1      18.698  50.761  50.065  1.00  0.00     0.003 C 
HETATM   37  C   UNL     1      18.699  49.437  50.821  1.00  0.00     0.028 C 
HETATM   38  C   UNL     1      19.339  48.321  50.007  1.00  0.00     0.235 C 
ENDBRANCH  31  32
ENDBRANCH   3  31
TORSDOF 8
ENDMDL
MODEL 6
REMARK VINA RESULT:      -8.5      5.191      9.172
REMARK  8 active torsions:
REMARK  status: ('A' for Active; 'I' for Inactive)
REMARK    1  A    between atoms: C_2  and  N_3 
REMARK       I    between atoms: N_3  and  C_4 
REMARK       I    between atoms: C_4  and  N_5 
REMARK       I    between atoms: N_5  and  C_6 
REMARK    2  A    between atoms: C_6  and  C_7 
REMARK    3  A    between atoms: C_7  and  S_8 
REMARK    4  A    between atoms: C_7  and  C_29 
REMARK    5  A    between atoms: S_8  and  C_9 
REMARK    6  A    between atoms: N_10  and  C_11 
REMARK    7  A    between atoms: C_18  and  C_19 
REMARK    8  A    between atoms: C_19  and  N_20 
ROOT
HETATM    1  C   UNL     1      18.826  47.255  47.282  1.00  0.00     0.197 A 
HETATM    2  N   UNL     1      17.885  47.983  46.575  1.00  0.00    -0.274 N 
HETATM    3  C   UNL     1      16.712  47.787  47.294  1.00  0.00     0.161 A 
HETATM    4  N   UNL     1      16.956  47.036  48.352  1.00  0.00    -0.132 NA
HETATM    5  N   UNL     1      18.277  46.720  48.348  1.00  0.00    -0.122 NA
ENDROOT
BRANCH   1   6
HETATM    6  S   UNL     1      20.533  47.255  47.001  1.00  0.00    -0.070 SA
BRANCH   6   7
HETATM    7  C   UNL     1      21.204  48.038  48.519  1.00  0.00     0.180 C 
BRANCH   7   8
HETATM    8  C   UNL     1      22.737  48.008  48.627  1.00  0.00     0.244 C 
HETATM    9  N   UNL     1      23.291  47.130  49.539  1.00  0.00    -0.278 N 
HETATM   10  C   UNL     1      24.522  47.208  50.133  1.00  0.00     0.322 C 
HETATM   11  H   UNL     1      22.665  46.555  50.088  1.00  0.00     0.173 HD
HETATM   12  N   UNL     1      25.443  47.986  49.507  1.00  0.00    -0.343 N 
HETATM   13  O   UNL     1      24.718  46.618  51.193  1.00  0.00    -0.247 OA
HETATM   14  H   UNL     1      25.176  48.408  48.620  1.00  0.00     0.164 HD
HETATM   15  O   UNL     1      23.435  48.664  47.847  1.00  0.00    -0.271 OA
BRANCH  12  16
HETATM   16  C   UNL     1      26.773  48.217  50.028  1.00  0.00     0.120 C 
HETATM   17  C   UNL     1      27.605  49.098  49.114  1.00  0.00     0.026 C 
ENDBRANCH  12  16
ENDBRANCH   7   8
BRANCH   7  18
HETATM   18  C   UNL     1      20.548  49.374  48.835  1.00  0.00    -0.035 A 
HETATM   19  C   UNL     1      19.681  49.468  49.940  1.00  0.00     0.009 A 
HETATM   20  C   UNL     1      19.032  50.665  50.243  1.00  0.00     0.001 A 
HETATM   21  C   UNL     1      19.240  51.789  49.450  1.00  0.00     0.000 A 
HETATM   22  C   UNL     1      20.097  51.717  48.355  1.00  0.00     0.001 A 
HETATM   23  C   UNL     1      20.746  50.518  48.047  1.00  0.00     0.009 A 
ENDBRANCH   7  18
ENDBRANCH   6   7
ENDBRANCH   1   6
BRANCH   2  24
HETATM   24  C   UNL     1      18.046  48.740  45.389  1.00  0.00     0.043 A 
HETATM   25  C   UNL     1      17.835  48.140  44.140  1.00  0.00     0.033 A 
HETATM   26  C   UNL     1      17.989  48.893  42.973  1.00  0.00     0.044 A 
HETATM   27  C   UNL     1      18.358  50.230  43.060  1.00  0.00     0.116 A 
HETATM   28  F   UNL     1      18.506  50.949  41.941  1.00  0.00    -0.206 F 
HETATM   29  C   UNL     1      18.581  50.832  44.293  1.00  0.00     0.044 A 
HETATM   30  C   UNL     1      18.428  50.088  45.465  1.00  0.00     0.033 A 
ENDBRANCH   2  24
BRANCH   3  31
HETATM   31  C   UNL     1      15.336  48.179  46.889  1.00  0.00     0.315 C 
BRANCH  31  32
HETATM   32  N   UNL     1      15.104  49.670  47.122  1.00  0.00    -0.064 N 
HETATM   33  H   UNL     1      14.144  49.721  47.508  1.00  0.00     0.280 HD
HETATM   34  C   UNL     1      16.016  50.229  48.190  1.00  0.00     0.235 C 
HETATM   35  C   UNL     1      15.636  51.671  48.486  1.00  0.00     0.028 C 
HETATM   36  C   UNL     1      15.649  52.524  47.223  1.00  0.00     0.003 C 
HETATM   37  C   UNL     1      14.762  51.916  46.142  1.00  0.00     0.028 C 
HETATM   38  C   UNL     1      15.137  50.470  45.850  1.00  0.00     0.235 C 
ENDBRANCH  31  32
ENDBRANCH   3  31
TORSDOF 8
ENDMDL
MODEL 7
REMARK VINA RESULT:      -8.4     18.103     20.089
REMARK  8 active torsions:
REMARK  status: ('A' for Active; 'I' for Inactive)
REMARK    1  A    between atoms: C_2  and  N_3 
REMARK       I    between atoms: N_3  and  C_4 
REMARK       I    between atoms: C_4  and  N_5 
REMARK       I    between atoms: N_5  and  C_6 
REMARK    2  A    between atoms: C_6  and  C_7 
REMARK    3  A    between atoms: C_7  and  S_8 
REMARK    4  A    between atoms: C_7  and  C_29 
REMARK    5  A    between atoms: S_8  and  C_9 
REMARK    6  A    between atoms: N_10  and  C_11 
REMARK    7  A    between atoms: C_18  and  C_19 
REMARK    8  A    between atoms: C_19  and  N_20 
ROOT
HETATM    1  C   UNL     1      39.472  45.307  64.123  1.00  0.00     0.197 A 
HETATM    2  N   UNL     1      39.256  46.378  64.972  1.00  0.00    -0.274 N 
HETATM    3  C   UNL     1      40.486  47.025  65.004  1.00  0.00     0.161 A 
HETATM    4  N   UNL     1      41.338  46.404  64.210  1.00  0.00    -0.132 NA
HETATM    5  N   UNL     1      40.698  45.343  63.652  1.00  0.00    -0.122 NA
ENDROOT
BRANCH   1   6
HETATM    6  S   UNL     1      38.264  44.226  63.521  1.00  0.00    -0.070 SA
BRANCH   6   7
HETATM    7  C   UNL     1      38.275  42.863  64.749  1.00  0.00     0.180 C 
BRANCH   7   8
HETATM    8  C   UNL     1      37.003  42.769  65.607  1.00  0.00     0.244 C 
HETATM    9  N   UNL     1      36.056  41.834  65.237  1.00  0.00    -0.278 N 
HETATM   10  C   UNL     1      34.718  41.841  65.524  1.00  0.00     0.322 C 
HETATM   11  H   UNL     1      36.244  41.262  64.424  1.00  0.00     0.173 HD
HETATM   12  N   UNL     1      34.332  42.608  66.577  1.00  0.00    -0.343 N 
HETATM   13  O   UNL     1      33.945  41.201  64.815  1.00  0.00    -0.247 OA
HETATM   14  H   UNL     1      35.064  43.077  67.109  1.00  0.00     0.164 HD
HETATM   15  O   UNL     1      36.896  43.431  66.645  1.00  0.00    -0.271 OA
BRANCH  12  16
HETATM   16  C   UNL     1      32.953  42.767  66.982  1.00  0.00     0.120 C 
HETATM   17  C   UNL     1      32.742  42.446  68.451  1.00  0.00     0.026 C 
ENDBRANCH  12  16
ENDBRANCH   7   8
BRANCH   7  18
HETATM   18  C   UNL     1      38.777  41.548  64.169  1.00  0.00    -0.035 A 
HETATM   19  C   UNL     1      39.204  40.532  65.044  1.00  0.00     0.009 A 
HETATM   20  C   UNL     1      39.704  39.325  64.554  1.00  0.00     0.001 A 
HETATM   21  C   UNL     1      39.782  39.113  63.181  1.00  0.00     0.000 A 
HETATM   22  C   UNL     1      39.361  40.105  62.299  1.00  0.00     0.001 A 
HETATM   23  C   UNL     1      38.862  41.315  62.788  1.00  0.00     0.009 A 
ENDBRANCH   7  18
ENDBRANCH   6   7
ENDBRANCH   1   6
BRANCH   2  24
HETATM   24  C   UNL     1      38.079  46.740  65.673  1.00  0.00     0.043 A 
HETATM   25  C   UNL     1      37.934  46.400  67.025  1.00  0.00     0.033 A 
HETATM   26  C   UNL     1      36.775  46.766  67.712  1.00  0.00     0.044 A 
HETATM   27  C   UNL     1      35.769  47.458  67.047  1.00  0.00     0.116 A 
HETATM   28  F   UNL     1      34.658  47.806  67.707  1.00  0.00    -0.206 F 
HETATM   29  C   UNL     1      35.897  47.790  65.704  1.00  0.00     0.044 A 
HETATM   30  C   UNL     1      37.054  47.431  65.008  1.00  0.00     0.033 A 
ENDBRANCH   2  24
BRANCH   3  31
HETATM   31  C   UNL     1      40.892  48.134  65.907  1.00  0.00     0.315 C 
BRANCH  31  32
HETATM   32  N   UNL     1      39.679  48.951  66.345  1.00  0.00    -0.064 N 
HETATM   33  H   UNL     1      38.886  48.290  66.269  1.00  0.00     0.280 HD
HETATM   34  C   UNL     1      39.756  49.350  67.802  1.00  0.00     0.235 C 
HETATM   35  C   UNL     1      38.458  50.024  68.218  1.00  0.00     0.028 C 
HETATM   36  C   UNL     1      38.129  51.210  67.320  1.00  0.00     0.003 C 
HETATM   37  C   UNL     1      38.107  50.797  65.852  1.00  0.00     0.028 C 
HETATM   38  C   UNL     1      39.403  50.116  65.436  1.00  0.00     0.235 C 
ENDBRANCH  31  32
ENDBRANCH   3  31
TORSDOF 8
ENDMDL
MODEL 8
REMARK VINA RESULT:      -8.3     11.812     14.269
REMARK  8 active torsions:
REMARK  status: ('A' for Active; 'I' for Inactive)
REMARK    1  A    between atoms: C_2  and  N_3 
REMARK       I    between atoms: N_3  and  C_4 
REMARK       I    between atoms: C_4  and  N_5 
REMARK       I    between atoms: N_5  and  C_6 
REMARK    2  A    between atoms: C_6  and  C_7 
REMARK    3  A    between atoms: C_7  and  S_8 
REMARK    4  A    between atoms: C_7  and  C_29 
REMARK    5  A    between atoms: S_8  and  C_9 
REMARK    6  A    between atoms: N_10  and  C_11 
REMARK    7  A    between atoms: C_18  and  C_19 
REMARK    8  A    between atoms: C_19  and  N_20 
ROOT
HETATM    1  C   UNL     1      31.869  48.711  41.775  1.00  0.00     0.197 A 
HETATM    2  N   UNL     1      32.591  49.825  41.384  1.00  0.00    -0.274 N 
HETATM    3  C   UNL     1      33.884  49.339  41.229  1.00  0.00     0.161 A 
HETATM    4  N   UNL     1      33.907  48.042  41.474  1.00  0.00    -0.132 NA
HETATM    5  N   UNL     1      32.646  47.653  41.798  1.00  0.00    -0.122 NA
ENDROOT
BRANCH   1   6
HETATM    6  S   UNL     1      30.149  48.619  41.938  1.00  0.00    -0.070 SA
BRANCH   6   7
HETATM    7  C   UNL     1      29.567  48.583  40.199  1.00  0.00     0.180 C 
BRANCH   7   8
HETATM    8  C   UNL     1      28.538  47.481  39.895  1.00  0.00     0.244 C 
HETATM    9  N   UNL     1      28.927  46.173  40.114  1.00  0.00    -0.278 N 
HETATM   10  C   UNL     1      28.414  45.042  39.539  1.00  0.00     0.322 C 
HETATM   11  H   UNL     1      29.863  46.006  40.459  1.00  0.00     0.173 HD
HETATM   12  N   UNL     1      27.171  45.151  39.002  1.00  0.00    -0.343 N 
HETATM   13  O   UNL     1      29.096  44.021  39.504  1.00  0.00    -0.247 OA
HETATM   14  H   UNL     1      26.688  46.041  39.111  1.00  0.00     0.164 HD
HETATM   15  O   UNL     1      27.381  47.773  39.577  1.00  0.00    -0.271 OA
BRANCH  12  16
HETATM   16  C   UNL     1      26.505  44.067  38.313  1.00  0.00     0.120 C 
HETATM   17  C   UNL     1      26.723  44.118  36.811  1.00  0.00     0.026 C 
ENDBRANCH  12  16
ENDBRANCH   7   8
BRANCH   7  18
HETATM   18  C   UNL     1      29.231  49.965  39.658  1.00  0.00    -0.035 A 
HETATM   19  C   UNL     1      28.450  50.836  40.441  1.00  0.00     0.009 A 
HETATM   20  C   UNL     1      28.090  52.098  39.968  1.00  0.00     0.001 A 
HETATM   21  C   UNL     1      28.507  52.512  38.706  1.00  0.00     0.000 A 
HETATM   22  C   UNL     1      29.283  51.665  37.919  1.00  0.00     0.001 A 
HETATM   23  C   UNL     1      29.643  50.400  38.389  1.00  0.00     0.009 A 
ENDBRANCH   7  18
ENDBRANCH   6   7
ENDBRANCH   1   6
BRANCH   2  24
HETATM   24  C   UNL     1      32.149  51.158  41.199  1.00  0.00     0.043 A 
HETATM   25  C   UNL     1      32.458  51.843  40.016  1.00  0.00     0.033 A 
HETATM   26  C   UNL     1      32.013  53.154  39.837  1.00  0.00     0.044 A 
HETATM   27  C   UNL     1      31.274  53.774  40.838  1.00  0.00     0.116 A 
HETATM   28  F   UNL     1      30.851  55.031  40.665  1.00  0.00    -0.206 F 
HETATM   29  C   UNL     1      30.972  53.109  42.020  1.00  0.00     0.044 A 
HETATM   30  C   UNL     1      31.410  51.796  42.208  1.00  0.00     0.033 A 
ENDBRANCH   2  24
BRANCH   3  31
HETATM   31  C   UNL     1      35.120  50.135  41.005  1.00  0.00     0.315 C 
BRANCH  31  32
HETATM   32  N   UNL     1      35.708  50.611  42.331  1.00  0.00    -0.064 N 
HETATM   33  H   UNL     1      35.402  49.897  43.016  1.00  0.00     0.280 HD
HETATM   34  C   UNL     1      37.220  50.574  42.331  1.00  0.00     0.235 C 
HETATM   35  C   UNL     1      37.741  50.908  43.720  1.00  0.00     0.028 C 
HETATM   36  C   UNL     1      37.205  52.248  44.211  1.00  0.00     0.003 C 
HETATM   37  C   UNL     1      35.681  52.282  44.155  1.00  0.00     0.028 C 
HETATM   38  C   UNL     1      35.158  51.940  42.768  1.00  0.00     0.235 C 
ENDBRANCH  31  32
ENDBRANCH   3  31
TORSDOF 8
ENDMDL
MODEL 9
REMARK VINA RESULT:      -8.2      6.087     11.240
REMARK  8 active torsions:
REMARK  status: ('A' for Active; 'I' for Inactive)
REMARK    1  A    between atoms: C_2  and  N_3 
REMARK       I    between atoms: N_3  and  C_4 
REMARK       I    between atoms: C_4  and  N_5 
REMARK       I    between atoms: N_5  and  C_6 
REMARK    2  A    between atoms: C_6  and  C_7 
REMARK    3  A    between atoms: C_7  and  S_8 
REMARK    4  A    between atoms: C_7  and  C_29 
REMARK    5  A    between atoms: S_8  and  C_9 
REMARK    6  A    between atoms: N_10  and  C_11 
REMARK    7  A    between atoms: C_18  and  C_19 
REMARK    8  A    between atoms: C_19  and  N_20 
ROOT
HETATM    1  C   UNL     1      20.125  47.680  47.413  1.00  0.00     0.197 A 
HETATM    2  N   UNL     1      20.581  48.858  47.979  1.00  0.00    -0.274 N 
HETATM    3  C   UNL     1      21.964  48.748  47.894  1.00  0.00     0.161 A 
HETATM    4  N   UNL     1      22.287  47.616  47.297  1.00  0.00    -0.132 NA
HETATM    5  N   UNL     1      21.137  46.962  46.984  1.00  0.00    -0.122 NA
ENDROOT
BRANCH   1   6
HETATM    6  S   UNL     1      18.478  47.299  47.045  1.00  0.00    -0.070 SA
BRANCH   6   7
HETATM    7  C   UNL     1      18.118  48.364  45.595  1.00  0.00     0.180 C 
BRANCH   7   8
HETATM    8  C   UNL     1      17.557  47.613  44.377  1.00  0.00     0.244 C 
HETATM    9  N   UNL     1      16.188  47.432  44.320  1.00  0.00    -0.278 N 
HETATM   10  C   UNL     1      15.501  46.469  43.630  1.00  0.00     0.322 C 
HETATM   11  H   UNL     1      15.627  47.798  45.078  1.00  0.00     0.173 HD
HETATM   12  N   UNL     1      16.166  45.871  42.607  1.00  0.00    -0.343 N 
HETATM   13  O   UNL     1      14.361  46.174  43.982  1.00  0.00    -0.247 OA
HETATM   14  H   UNL     1      17.099  46.215  42.390  1.00  0.00     0.164 HD
HETATM   15  O   UNL     1      18.297  47.289  43.443  1.00  0.00    -0.271 OA
BRANCH  12  16
HETATM   16  C   UNL     1      15.604  44.802  41.813  1.00  0.00     0.120 C 
HETATM   17  C   UNL     1      15.916  43.431  42.387  1.00  0.00     0.026 C 
ENDBRANCH  12  16
ENDBRANCH   7   8
BRANCH   7  18
HETATM   18  C   UNL     1      17.391  49.647  45.970  1.00  0.00    -0.035 A 
HETATM   19  C   UNL     1      16.452  49.622  47.018  1.00  0.00     0.009 A 
HETATM   20  C   UNL     1      15.739  50.768  47.371  1.00  0.00     0.001 A 
HETATM   21  C   UNL     1      15.954  51.959  46.683  1.00  0.00     0.000 A 
HETATM   22  C   UNL     1      16.881  52.004  45.645  1.00  0.00     0.001 A 
HETATM   23  C   UNL     1      17.595  50.857  45.289  1.00  0.00     0.009 A 
ENDBRANCH   7  18
ENDBRANCH   6   7
ENDBRANCH   1   6
BRANCH   2  24
HETATM   24  C   UNL     1      19.839  49.927  48.537  1.00  0.00     0.043 A 
HETATM   25  C   UNL     1      19.966  51.220  48.013  1.00  0.00     0.033 A 
HETATM   26  C   UNL     1      19.227  52.269  48.564  1.00  0.00     0.044 A 
HETATM   27  C   UNL     1      18.376  52.024  49.635  1.00  0.00     0.116 A 
HETATM   28  F   UNL     1      17.670  53.031  50.162  1.00  0.00    -0.206 F 
HETATM   29  C   UNL     1      18.251  50.748  50.171  1.00  0.00     0.044 A 
HETATM   30  C   UNL     1      18.984  49.692  49.625  1.00  0.00     0.033 A 
ENDBRANCH   2  24
BRANCH   3  31
HETATM   31  C   UNL     1      22.974  49.640  48.523  1.00  0.00     0.315 C 
BRANCH  31  32
HETATM   32  N   UNL     1      24.309  48.917  48.690  1.00  0.00    -0.064 N 
HETATM   33  H   UNL     1      24.374  48.308  47.855  1.00  0.00     0.280 HD
HETATM   34  C   UNL     1      25.484  49.865  48.612  1.00  0.00     0.235 C 
HETATM   35  C   UNL     1      26.783  49.074  48.629  1.00  0.00     0.028 C 
HETATM   36  C   UNL     1      26.867  48.163  49.847  1.00  0.00     0.003 C 
HETATM   37  C   UNL     1      25.648  47.251  49.935  1.00  0.00     0.028 C 
HETATM   38  C   UNL     1      24.347  48.040  49.910  1.00  0.00     0.235 C 
ENDBRANCH  31  32
ENDBRANCH   3  31
TORSDOF 8
ENDMDL
MODEL 10
REMARK VINA RESULT:      -8.2     11.511     14.422
REMARK  8 active torsions:
REMARK  status: ('A' for Active; 'I' for Inactive)
REMARK    1  A    between atoms: C_2  and  N_3 
REMARK       I    between atoms: N_3  and  C_4 
REMARK       I    between atoms: C_4  and  N_5 
REMARK       I    between atoms: N_5  and  C_6 
REMARK    2  A    between atoms: C_6  and  C_7 
REMARK    3  A    between atoms: C_7  and  S_8 
REMARK    4  A    between atoms: C_7  and  C_29 
REMARK    5  A    between atoms: S_8  and  C_9 
REMARK    6  A    between atoms: N_10  and  C_11 
REMARK    7  A    between atoms: C_18  and  C_19 
REMARK    8  A    between atoms: C_19  and  N_20 
ROOT
HETATM    1  C   UNL     1      27.562  50.411  39.555  1.00  0.00     0.197 A 
HETATM    2  N   UNL     1      28.354  49.466  40.183  1.00  0.00    -0.274 N 
HETATM    3  C   UNL     1      28.847  50.139  41.295  1.00  0.00     0.161 A 
HETATM    4  N   UNL     1      28.355  51.363  41.332  1.00  0.00    -0.132 NA
HETATM    5  N   UNL     1      27.543  51.522  40.254  1.00  0.00    -0.122 NA
ENDROOT
BRANCH   1   6
HETATM    6  S   UNL     1      26.511  50.127  38.210  1.00  0.00    -0.070 SA
BRANCH   6   7
HETATM    7  C   UNL     1      25.087  49.256  38.971  1.00  0.00     0.180 C 
BRANCH   7   8
HETATM    8  C   UNL     1      23.724  49.921  38.716  1.00  0.00     0.244 C 
HETATM    9  N   UNL     1      23.136  50.587  39.774  1.00  0.00    -0.278 N 
HETATM   10  C   UNL     1      21.807  50.864  39.953  1.00  0.00     0.322 C 
HETATM   11  H   UNL     1      23.626  50.603  40.659  1.00  0.00     0.173 HD
HETATM   12  N   UNL     1      21.032  50.834  38.837  1.00  0.00    -0.343 N 
HETATM   13  O   UNL     1      21.384  51.082  41.085  1.00  0.00    -0.247 OA
HETATM   14  H   UNL     1      21.496  50.665  37.947  1.00  0.00     0.164 HD
HETATM   15  O   UNL     1      23.241  49.946  37.580  1.00  0.00    -0.271 OA
BRANCH  12  16
HETATM   16  C   UNL     1      19.602  51.052  38.858  1.00  0.00     0.120 C 
HETATM   17  C   UNL     1      18.991  51.005  37.469  1.00  0.00     0.026 C 
ENDBRANCH  12  16
ENDBRANCH   7   8
BRANCH   7  18
HETATM   18  C   UNL     1      25.134  47.750  38.763  1.00  0.00    -0.035 A 
HETATM   19  C   UNL     1      25.782  47.235  37.624  1.00  0.00     0.009 A 
HETATM   20  C   UNL     1      25.818  45.863  37.378  1.00  0.00     0.001 A 
HETATM   21  C   UNL     1      25.209  44.981  38.266  1.00  0.00     0.000 A 
HETATM   22  C   UNL     1      24.566  45.471  39.399  1.00  0.00     0.001 A 
HETATM   23  C   UNL     1      24.526  46.845  39.647  1.00  0.00     0.009 A 
ENDBRANCH   7  18
ENDBRANCH   6   7
ENDBRANCH   1   6
BRANCH   2  24
HETATM   24  C   UNL     1      28.631  48.132  39.797  1.00  0.00     0.043 A 
HETATM   25  C   UNL     1      28.124  47.063  40.548  1.00  0.00     0.033 A 
HETATM   26  C   UNL     1      28.394  45.750  40.157  1.00  0.00     0.044 A 
HETATM   27  C   UNL     1      29.173  45.512  39.031  1.00  0.00     0.116 A 
HETATM   28  F   UNL     1      29.432  44.253  38.660  1.00  0.00    -0.206 F 
HETATM   29  C   UNL     1      29.691  46.564  38.285  1.00  0.00     0.044 A 
HETATM   30  C   UNL     1      29.423  47.881  38.665  1.00  0.00     0.033 A 
ENDBRANCH   2  24
BRANCH   3  31
HETATM   31  C   UNL     1      29.906  49.671  42.229  1.00  0.00     0.315 C 
BRANCH  31  32
HETATM   32  N   UNL     1      31.141  50.564  42.141  1.00  0.00    -0.064 N 
HETATM   33  H   UNL     1      30.768  51.525  42.235  1.00  0.00     0.280 HD
HETATM   34  C   UNL     1      32.078  50.359  43.310  1.00  0.00     0.235 C 
HETATM   35  C   UNL     1      33.205  51.378  43.249  1.00  0.00     0.028 C 
HETATM   36  C   UNL     1      33.940  51.320  41.915  1.00  0.00     0.003 C 
HETATM   37  C   UNL     1      32.971  51.478  40.748  1.00  0.00     0.028 C 
HETATM   38  C   UNL     1      31.838  50.464  40.812  1.00  0.00     0.235 C 
ENDBRANCH  31  32
ENDBRANCH   3  31
TORSDOF 8
ENDMDL
