MODEL 1
REMARK VINA RESULT:     -10.5      0.000      0.000
REMARK  5 active torsions:
REMARK  status: ('A' for Active; 'I' for Inactive)
REMARK    1  A    between atoms: O_2  and  C_3 
REMARK    2  A    between atoms: C_5  and  C_6 
REMARK    3  A    between atoms: C_6  and  N_7 
REMARK       I    between atoms: N_7  and  C_8 
REMARK    4  A    between atoms: C_8  and  C_9 
REMARK    5  A    between atoms: C_19  and  C_20 
ROOT
HETATM    1  C   UNL     1      26.760  45.298  53.280  1.00  0.00     0.159 A 
HETATM    2  O   UNL     1      26.942  46.277  54.297  1.00  0.00    -0.268 OA
HETATM    3  C   UNL     1      27.947  46.251  55.207  1.00  0.00     0.299 A 
HETATM    4  O   UNL     1      28.076  47.122  56.057  1.00  0.00    -0.259 OA
HETATM    5  C   UNL     1      28.881  45.115  55.109  1.00  0.00     0.051 A 
HETATM    6  C   UNL     1      28.727  44.160  54.101  1.00  0.00    -0.006 A 
HETATM    7  C   UNL     1      29.923  45.019  56.045  1.00  0.00     0.018 A 
HETATM    8  C   UNL     1      30.827  43.963  55.981  1.00  0.00     0.001 A 
HETATM    9  C   UNL     1      30.692  43.004  54.982  1.00  0.00     0.001 A 
HETATM   10  C   UNL     1      29.653  43.102  54.051  1.00  0.00     0.013 A 
HETATM   11  C   UNL     1      27.612  44.260  53.122  1.00  0.00     0.025 A 
ENDROOT
BRANCH   1  12
HETATM   12  C   UNL     1      25.537  45.544  52.422  1.00  0.00     0.276 C 
HETATM   13  N   UNL     1      25.678  46.647  51.608  1.00  0.00    -0.351 N 
HETATM   14  H   UNL     1      26.599  47.058  51.531  1.00  0.00     0.163 HD
HETATM   15  O   UNL     1      24.520  44.866  52.446  1.00  0.00    -0.265 OA
BRANCH  13  16
HETATM   16  C   UNL     1      24.647  47.016  50.670  1.00  0.00     0.161 C 
BRANCH  16  17
HETATM   17  C   UNL     1      25.022  48.087  49.671  1.00  0.00    -0.038 A 
HETATM   18  C   UNL     1      24.102  48.777  48.868  1.00  0.00     0.045 A 
HETATM   19  C   UNL     1      24.515  49.778  47.979  1.00  0.00     0.068 A 
HETATM   20  C   UNL     1      25.870  50.081  47.866  1.00  0.00     0.037 A 
HETATM   21  C   UNL     1      26.803  49.397  48.645  1.00  0.00     0.003 A 
HETATM   22  C   UNL     1      26.382  48.414  49.541  1.00  0.00     0.009 A 
BRANCH  19  23
HETATM   23  O   UNL     1      23.498  50.375  47.283  1.00  0.00    -0.356 OA
HETATM   24  C   UNL     1      22.189  50.245  47.821  1.00  0.00     0.210 C 
ENDBRANCH  19  23
ENDBRANCH  16  17
ENDBRANCH  13  16
ENDBRANCH   1  12
BRANCH  11  25
HETATM   25  C   UNL     1      27.444  43.294  52.012  1.00  0.00    -0.022 A 
HETATM   26  C   UNL     1      27.266  41.932  52.291  1.00  0.00     0.012 A 
HETATM   27  C   UNL     1      27.061  41.023  51.250  1.00  0.00     0.001 A 
HETATM   28  C   UNL     1      27.031  41.470  49.930  1.00  0.00     0.000 A 
HETATM   29  C   UNL     1      27.206  42.823  49.646  1.00  0.00     0.001 A 
HETATM   30  C   UNL     1      27.410  43.736  50.682  1.00  0.00     0.012 A 
ENDBRANCH  11  25
TORSDOF 5
ENDMDL
MODEL 2
REMARK VINA RESULT:     -10.0      1.081      2.027
REMARK  5 active torsions:
REMARK  status: ('A' for Active; 'I' for Inactive)
REMARK    1  A    between atoms: O_2  and  C_3 
REMARK    2  A    between atoms: C_5  and  C_6 
REMARK    3  A    between atoms: C_6  and  N_7 
REMARK       I    between atoms: N_7  and  C_8 
REMARK    4  A    between atoms: C_8  and  C_9 
REMARK    5  A    between atoms: C_19  and  C_20 
ROOT
HETATM    1  C   UNL     1      26.704  45.222  53.657  1.00  0.00     0.159 A 
HETATM    2  O   UNL     1      26.707  46.368  54.501  1.00  0.00    -0.268 OA
HETATM    3  C   UNL     1      27.657  46.624  55.434  1.00  0.00     0.299 A 
HETATM    4  O   UNL     1      27.630  47.630  56.129  1.00  0.00    -0.259 OA
HETATM    5  C   UNL     1      28.730  45.621  55.558  1.00  0.00     0.051 A 
HETATM    6  C   UNL     1      28.752  44.503  54.720  1.00  0.00    -0.006 A 
HETATM    7  C   UNL     1      29.725  45.818  56.529  1.00  0.00     0.018 A 
HETATM    8  C   UNL     1      30.756  44.895  56.673  1.00  0.00     0.001 A 
HETATM    9  C   UNL     1      30.796  43.778  55.845  1.00  0.00     0.001 A 
HETATM   10  C   UNL     1      29.805  43.584  54.878  1.00  0.00     0.013 A 
HETATM   11  C   UNL     1      27.687  44.295  53.704  1.00  0.00     0.025 A 
ENDROOT
BRANCH   1  12
HETATM   12  C   UNL     1      25.508  45.161  52.732  1.00  0.00     0.276 C 
HETATM   13  N   UNL     1      25.581  46.089  51.715  1.00  0.00    -0.351 N 
HETATM   14  H   UNL     1      26.459  46.572  51.584  1.00  0.00     0.163 HD
HETATM   15  O   UNL     1      24.563  44.396  52.862  1.00  0.00    -0.265 OA
BRANCH  13  16
HETATM   16  C   UNL     1      24.567  46.152  50.692  1.00  0.00     0.161 C 
BRANCH  16  17
HETATM   17  C   UNL     1      24.549  47.417  49.864  1.00  0.00    -0.038 A 
HETATM   18  C   UNL     1      25.684  48.188  49.573  1.00  0.00     0.045 A 
HETATM   19  C   UNL     1      25.602  49.337  48.776  1.00  0.00     0.068 A 
HETATM   20  C   UNL     1      24.365  49.745  48.283  1.00  0.00     0.037 A 
HETATM   21  C   UNL     1      23.221  49.000  48.572  1.00  0.00     0.003 A 
HETATM   22  C   UNL     1      23.314  47.846  49.350  1.00  0.00     0.009 A 
BRANCH  19  23
HETATM   23  O   UNL     1      26.798  49.969  48.563  1.00  0.00    -0.356 OA
HETATM   24  C   UNL     1      27.962  49.322  49.061  1.00  0.00     0.210 C 
ENDBRANCH  19  23
ENDBRANCH  16  17
ENDBRANCH  13  16
ENDBRANCH   1  12
BRANCH  11  25
HETATM   25  C   UNL     1      27.702  43.148  52.766  1.00  0.00    -0.022 A 
HETATM   26  C   UNL     1      27.743  43.375  51.383  1.00  0.00     0.012 A 
HETATM   27  C   UNL     1      27.802  42.298  50.496  1.00  0.00     0.001 A 
HETATM   28  C   UNL     1      27.823  40.992  50.985  1.00  0.00     0.000 A 
HETATM   29  C   UNL     1      27.784  40.759  52.358  1.00  0.00     0.001 A 
HETATM   30  C   UNL     1      27.726  41.833  53.249  1.00  0.00     0.012 A 
ENDBRANCH  11  25
TORSDOF 5
ENDMDL
MODEL 3
REMARK VINA RESULT:      -9.6      3.600      7.141
REMARK  5 active torsions:
REMARK  status: ('A' for Active; 'I' for Inactive)
REMARK    1  A    between atoms: O_2  and  C_3 
REMARK    2  A    between atoms: C_5  and  C_6 
REMARK    3  A    between atoms: C_6  and  N_7 
REMARK       I    between atoms: N_7  and  C_8 
REMARK    4  A    between atoms: C_8  and  C_9 
REMARK    5  A    between atoms: C_19  and  C_20 
ROOT
HETATM    1  C   UNL     1      25.362  44.202  52.431  1.00  0.00     0.159 A 
HETATM    2  O   UNL     1      24.068  44.413  51.877  1.00  0.00    -0.268 OA
HETATM    3  C   UNL     1      23.568  43.719  50.825  1.00  0.00     0.299 A 
HETATM    4  O   UNL     1      22.443  43.923  50.389  1.00  0.00    -0.259 OA
HETATM    5  C   UNL     1      24.457  42.699  50.241  1.00  0.00     0.051 A 
HETATM    6  C   UNL     1      25.720  42.465  50.790  1.00  0.00    -0.006 A 
HETATM    7  C   UNL     1      24.004  41.970  49.129  1.00  0.00     0.018 A 
HETATM    8  C   UNL     1      24.813  40.996  48.554  1.00  0.00     0.001 A 
HETATM    9  C   UNL     1      26.072  40.747  49.088  1.00  0.00     0.001 A 
HETATM   10  C   UNL     1      26.521  41.473  50.196  1.00  0.00     0.013 A 
HETATM   11  C   UNL     1      26.198  43.251  51.957  1.00  0.00     0.025 A 
ENDROOT
BRANCH   1  12
HETATM   12  C   UNL     1      25.686  45.139  53.575  1.00  0.00     0.276 C 
HETATM   13  N   UNL     1      26.729  45.991  53.279  1.00  0.00    -0.351 N 
HETATM   14  H   UNL     1      27.042  46.031  52.319  1.00  0.00     0.163 HD
HETATM   15  O   UNL     1      25.114  45.146  54.655  1.00  0.00    -0.265 OA
BRANCH  13  16
HETATM   16  C   UNL     1      27.152  47.002  54.216  1.00  0.00     0.161 C 
BRANCH  16  17
HETATM   17  C   UNL     1      28.039  46.522  55.342  1.00  0.00    -0.038 A 
HETATM   18  C   UNL     1      29.171  45.712  55.167  1.00  0.00     0.045 A 
HETATM   19  C   UNL     1      29.967  45.325  56.253  1.00  0.00     0.068 A 
HETATM   20  C   UNL     1      29.615  45.724  57.540  1.00  0.00     0.037 A 
HETATM   21  C   UNL     1      28.484  46.517  57.738  1.00  0.00     0.003 A 
HETATM   22  C   UNL     1      27.708  46.915  56.649  1.00  0.00     0.009 A 
BRANCH  19  23
HETATM   23  O   UNL     1      31.049  44.556  55.919  1.00  0.00    -0.356 OA
HETATM   24  C   UNL     1      31.590  43.730  56.942  1.00  0.00     0.210 C 
ENDBRANCH  19  23
ENDBRANCH  16  17
ENDBRANCH  13  16
ENDBRANCH   1  12
BRANCH  11  25
HETATM   25  C   UNL     1      27.511  43.000  52.596  1.00  0.00    -0.022 A 
HETATM   26  C   UNL     1      27.586  42.219  53.758  1.00  0.00     0.012 A 
HETATM   27  C   UNL     1      28.826  41.942  54.339  1.00  0.00     0.001 A 
HETATM   28  C   UNL     1      29.993  42.440  53.762  1.00  0.00     0.000 A 
HETATM   29  C   UNL     1      29.926  43.215  52.606  1.00  0.00     0.001 A 
HETATM   30  C   UNL     1      28.690  43.494  52.021  1.00  0.00     0.012 A 
ENDBRANCH  11  25
TORSDOF 5
ENDMDL
MODEL 4
REMARK VINA RESULT:      -9.5      3.947      8.163
REMARK  5 active torsions:
REMARK  status: ('A' for Active; 'I' for Inactive)
REMARK    1  A    between atoms: O_2  and  C_3 
REMARK    2  A    between atoms: C_5  and  C_6 
REMARK    3  A    between atoms: C_6  and  N_7 
REMARK       I    between atoms: N_7  and  C_8 
REMARK    4  A    between atoms: C_8  and  C_9 
REMARK    5  A    between atoms: C_19  and  C_20 
ROOT
HETATM    1  C   UNL     1      26.879  41.773  51.510  1.00  0.00     0.159 A 
HETATM    2  O   UNL     1      26.958  40.656  50.632  1.00  0.00    -0.268 OA
HETATM    3  C   UNL     1      26.101  40.433  49.605  1.00  0.00     0.299 A 
HETATM    4  O   UNL     1      26.215  39.467  48.863  1.00  0.00    -0.259 OA
HETATM    5  C   UNL     1      25.029  41.429  49.428  1.00  0.00     0.051 A 
HETATM    6  C   UNL     1      24.954  42.542  50.269  1.00  0.00    -0.006 A 
HETATM    7  C   UNL     1      24.093  41.233  48.399  1.00  0.00     0.018 A 
HETATM    8  C   UNL     1      23.070  42.154  48.199  1.00  0.00     0.001 A 
HETATM    9  C   UNL     1      22.980  43.270  49.024  1.00  0.00     0.001 A 
HETATM   10  C   UNL     1      23.914  43.463  50.048  1.00  0.00     0.013 A 
HETATM   11  C   UNL     1      25.939  42.735  51.365  1.00  0.00     0.025 A 
ENDROOT
BRANCH   1  12
HETATM   12  C   UNL     1      27.934  41.760  52.595  1.00  0.00     0.276 C 
HETATM   13  N   UNL     1      29.117  42.338  52.186  1.00  0.00    -0.351 N 
HETATM   14  H   UNL     1      29.111  42.850  51.314  1.00  0.00     0.163 HD
HETATM   15  O   UNL     1      27.785  41.279  53.709  1.00  0.00    -0.265 OA
BRANCH  13  16
HETATM   16  C   UNL     1      30.229  42.479  53.094  1.00  0.00     0.161 C 
BRANCH  16  17
HETATM   17  C   UNL     1      30.034  43.467  54.221  1.00  0.00    -0.038 A 
HETATM   18  C   UNL     1      30.715  43.412  55.447  1.00  0.00     0.045 A 
HETATM   19  C   UNL     1      30.506  44.376  56.441  1.00  0.00     0.068 A 
HETATM   20  C   UNL     1      29.583  45.397  56.227  1.00  0.00     0.037 A 
HETATM   21  C   UNL     1      28.885  45.461  55.021  1.00  0.00     0.003 A 
HETATM   22  C   UNL     1      29.113  44.508  54.027  1.00  0.00     0.009 A 
BRANCH  19  23
HETATM   23  O   UNL     1      31.261  44.201  57.571  1.00  0.00    -0.356 OA
HETATM   24  C   UNL     1      31.142  45.193  58.582  1.00  0.00     0.210 C 
ENDBRANCH  19  23
ENDBRANCH  16  17
ENDBRANCH  13  16
ENDBRANCH   1  12
BRANCH  11  25
HETATM   25  C   UNL     1      25.920  43.925  52.246  1.00  0.00    -0.022 A 
HETATM   26  C   UNL     1      26.368  45.162  51.761  1.00  0.00     0.012 A 
HETATM   27  C   UNL     1      26.311  46.297  52.572  1.00  0.00     0.001 A 
HETATM   28  C   UNL     1      25.804  46.203  53.868  1.00  0.00     0.000 A 
HETATM   29  C   UNL     1      25.356  44.978  54.356  1.00  0.00     0.001 A 
HETATM   30  C   UNL     1      25.410  43.840  53.549  1.00  0.00     0.012 A 
ENDBRANCH  11  25
TORSDOF 5
ENDMDL
MODEL 5
REMARK VINA RESULT:      -9.4      3.200      4.169
REMARK  5 active torsions:
REMARK  status: ('A' for Active; 'I' for Inactive)
REMARK    1  A    between atoms: O_2  and  C_3 
REMARK    2  A    between atoms: C_5  and  C_6 
REMARK    3  A    between atoms: C_6  and  N_7 
REMARK       I    between atoms: N_7  and  C_8 
REMARK    4  A    between atoms: C_8  and  C_9 
REMARK    5  A    between atoms: C_19  and  C_20 
ROOT
HETATM    1  C   UNL     1      27.624  45.082  55.065  1.00  0.00     0.159 A 
HETATM    2  O   UNL     1      27.652  46.098  56.061  1.00  0.00    -0.268 OA
HETATM    3  C   UNL     1      28.626  46.218  56.998  1.00  0.00     0.299 A 
HETATM    4  O   UNL     1      28.619  47.117  57.828  1.00  0.00    -0.259 OA
HETATM    5  C   UNL     1      29.697  45.207  56.952  1.00  0.00     0.051 A 
HETATM    6  C   UNL     1      29.693  44.219  55.965  1.00  0.00    -0.006 A 
HETATM    7  C   UNL     1      30.715  45.264  57.917  1.00  0.00     0.018 A 
HETATM    8  C   UNL     1      31.746  44.329  57.904  1.00  0.00     0.001 A 
HETATM    9  C   UNL     1      31.761  43.340  56.927  1.00  0.00     0.001 A 
HETATM   10  C   UNL     1      30.746  43.286  55.966  1.00  0.00     0.013 A 
HETATM   11  C   UNL     1      28.604  44.156  54.956  1.00  0.00     0.025 A 
ENDROOT
BRANCH   1  12
HETATM   12  C   UNL     1      26.406  45.152  54.170  1.00  0.00     0.276 C 
HETATM   13  N   UNL     1      26.644  45.860  53.011  1.00  0.00    -0.351 N 
HETATM   14  H   UNL     1      27.603  46.096  52.795  1.00  0.00     0.163 HD
HETATM   15  O   UNL     1      25.317  44.662  54.432  1.00  0.00    -0.265 OA
BRANCH  13  16
HETATM   16  C   UNL     1      25.627  45.991  51.997  1.00  0.00     0.161 C 
BRANCH  16  17
HETATM   17  C   UNL     1      25.407  44.774  51.127  1.00  0.00    -0.038 A 
HETATM   18  C   UNL     1      26.388  44.204  50.302  1.00  0.00     0.045 A 
HETATM   19  C   UNL     1      26.126  43.058  49.541  1.00  0.00     0.068 A 
HETATM   20  C   UNL     1      24.857  42.484  49.577  1.00  0.00     0.037 A 
HETATM   21  C   UNL     1      23.863  43.044  50.380  1.00  0.00     0.003 A 
HETATM   22  C   UNL     1      24.138  44.174  51.150  1.00  0.00     0.009 A 
BRANCH  19  23
HETATM   23  O   UNL     1      27.189  42.608  48.805  1.00  0.00    -0.356 OA
HETATM   24  C   UNL     1      27.013  41.383  48.105  1.00  0.00     0.210 C 
ENDBRANCH  19  23
ENDBRANCH  16  17
ENDBRANCH  13  16
ENDBRANCH   1  12
BRANCH  11  25
HETATM   25  C   UNL     1      28.591  43.153  53.866  1.00  0.00    -0.022 A 
HETATM   26  C   UNL     1      27.867  41.962  54.021  1.00  0.00     0.012 A 
HETATM   27  C   UNL     1      27.814  41.032  52.980  1.00  0.00     0.001 A 
HETATM   28  C   UNL     1      28.479  41.289  51.781  1.00  0.00     0.000 A 
HETATM   29  C   UNL     1      29.198  42.472  51.620  1.00  0.00     0.001 A 
HETATM   30  C   UNL     1      29.253  43.405  52.657  1.00  0.00     0.012 A 
ENDBRANCH  11  25
TORSDOF 5
ENDMDL
MODEL 6
REMARK VINA RESULT:      -9.2      1.564      2.455
REMARK  5 active torsions:
REMARK  status: ('A' for Active; 'I' for Inactive)
REMARK    1  A    between atoms: O_2  and  C_3 
REMARK    2  A    between atoms: C_5  and  C_6 
REMARK    3  A    between atoms: C_6  and  N_7 
REMARK       I    between atoms: N_7  and  C_8 
REMARK    4  A    between atoms: C_8  and  C_9 
REMARK    5  A    between atoms: C_19  and  C_20 
ROOT
HETATM    1  C   UNL     1      25.849  43.992  51.979  1.00  0.00     0.159 A 
HETATM    2  O   UNL     1      25.914  45.005  52.976  1.00  0.00    -0.268 OA
HETATM    3  C   UNL     1      26.954  45.166  53.831  1.00  0.00     0.299 A 
HETATM    4  O   UNL     1      26.976  46.061  54.665  1.00  0.00    -0.259 OA
HETATM    5  C   UNL     1      28.061  44.204  53.692  1.00  0.00     0.051 A 
HETATM    6  C   UNL     1      28.021  43.219  52.702  1.00  0.00    -0.006 A 
HETATM    7  C   UNL     1      29.152  44.304  54.571  1.00  0.00     0.018 A 
HETATM    8  C   UNL     1      30.218  43.416  54.468  1.00  0.00     0.001 A 
HETATM    9  C   UNL     1      30.197  42.431  53.487  1.00  0.00     0.001 A 
HETATM   10  C   UNL     1      29.111  42.334  52.611  1.00  0.00     0.013 A 
HETATM   11  C   UNL     1      26.857  43.111  51.784  1.00  0.00     0.025 A 
ENDROOT
BRANCH   1  12
HETATM   12  C   UNL     1      24.560  44.010  51.186  1.00  0.00     0.276 C 
HETATM   13  N   UNL     1      24.502  45.065  50.299  1.00  0.00    -0.351 N 
HETATM   14  H   UNL     1      25.351  45.590  50.141  1.00  0.00     0.163 HD
HETATM   15  O   UNL     1      23.650  43.204  51.313  1.00  0.00    -0.265 OA
BRANCH  13  16
HETATM   16  C   UNL     1      23.381  45.226  49.407  1.00  0.00     0.161 C 
BRANCH  16  17
HETATM   17  C   UNL     1      23.113  46.638  48.939  1.00  0.00    -0.038 A 
HETATM   18  C   UNL     1      23.963  47.727  49.185  1.00  0.00     0.045 A 
HETATM   19  C   UNL     1      23.668  49.008  48.699  1.00  0.00     0.068 A 
HETATM   20  C   UNL     1      22.492  49.217  47.982  1.00  0.00     0.037 A 
HETATM   21  C   UNL     1      21.626  48.150  47.740  1.00  0.00     0.003 A 
HETATM   22  C   UNL     1      21.936  46.874  48.209  1.00  0.00     0.009 A 
BRANCH  19  23
HETATM   23  O   UNL     1      24.604  49.960  49.000  1.00  0.00    -0.356 OA
HETATM   24  C   UNL     1      25.824  49.913  48.272  1.00  0.00     0.210 C 
ENDBRANCH  19  23
ENDBRANCH  16  17
ENDBRANCH  13  16
ENDBRANCH   1  12
BRANCH  11  25
HETATM   25  C   UNL     1      26.799  42.111  50.693  1.00  0.00    -0.022 A 
HETATM   26  C   UNL     1      26.400  40.796  50.970  1.00  0.00     0.012 A 
HETATM   27  C   UNL     1      26.301  39.860  49.937  1.00  0.00     0.001 A 
HETATM   28  C   UNL     1      26.595  40.234  48.627  1.00  0.00     0.000 A 
HETATM   29  C   UNL     1      26.990  41.541  48.344  1.00  0.00     0.001 A 
HETATM   30  C   UNL     1      27.090  42.479  49.373  1.00  0.00     0.012 A 
ENDBRANCH  11  25
TORSDOF 5
ENDMDL
MODEL 7
REMARK VINA RESULT:      -9.1      2.357      7.702
REMARK  5 active torsions:
REMARK  status: ('A' for Active; 'I' for Inactive)
REMARK    1  A    between atoms: O_2  and  C_3 
REMARK    2  A    between atoms: C_5  and  C_6 
REMARK    3  A    between atoms: C_6  and  N_7 
REMARK       I    between atoms: N_7  and  C_8 
REMARK    4  A    between atoms: C_8  and  C_9 
REMARK    5  A    between atoms: C_19  and  C_20 
ROOT
HETATM    1  C   UNL     1      24.489  47.286  50.251  1.00  0.00     0.159 A 
HETATM    2  O   UNL     1      23.798  48.510  50.026  1.00  0.00    -0.268 OA
HETATM    3  C   UNL     1      22.763  48.652  49.161  1.00  0.00     0.299 A 
HETATM    4  O   UNL     1      22.186  49.720  49.009  1.00  0.00    -0.259 OA
HETATM    5  C   UNL     1      22.368  47.441  48.420  1.00  0.00     0.051 A 
HETATM    6  C   UNL     1      23.022  46.228  48.648  1.00  0.00    -0.006 A 
HETATM    7  C   UNL     1      21.322  47.536  47.487  1.00  0.00     0.018 A 
HETATM    8  C   UNL     1      20.918  46.414  46.771  1.00  0.00     0.001 A 
HETATM    9  C   UNL     1      21.556  45.197  46.987  1.00  0.00     0.001 A 
HETATM   10  C   UNL     1      22.597  45.104  47.917  1.00  0.00     0.013 A 
HETATM   11  C   UNL     1      24.138  46.139  49.626  1.00  0.00     0.025 A 
ENDROOT
BRANCH   1  12
HETATM   12  C   UNL     1      25.629  47.413  51.238  1.00  0.00     0.276 C 
HETATM   13  N   UNL     1      25.236  47.151  52.533  1.00  0.00    -0.351 N 
HETATM   14  H   UNL     1      24.320  46.747  52.672  1.00  0.00     0.163 HD
HETATM   15  O   UNL     1      26.774  47.729  50.946  1.00  0.00    -0.265 OA
BRANCH  13  16
HETATM   16  C   UNL     1      26.189  47.160  53.616  1.00  0.00     0.161 C 
BRANCH  16  17
HETATM   17  C   UNL     1      26.868  45.840  53.902  1.00  0.00    -0.038 A 
HETATM   18  C   UNL     1      28.127  45.714  54.507  1.00  0.00     0.045 A 
HETATM   19  C   UNL     1      28.688  44.457  54.769  1.00  0.00     0.068 A 
HETATM   20  C   UNL     1      27.999  43.305  54.397  1.00  0.00     0.037 A 
HETATM   21  C   UNL     1      26.751  43.409  53.781  1.00  0.00     0.003 A 
HETATM   22  C   UNL     1      26.190  44.664  53.542  1.00  0.00     0.009 A 
BRANCH  19  23
HETATM   23  O   UNL     1      29.911  44.497  55.384  1.00  0.00    -0.356 OA
HETATM   24  C   UNL     1      30.164  45.606  56.236  1.00  0.00     0.210 C 
ENDBRANCH  19  23
ENDBRANCH  16  17
ENDBRANCH  13  16
ENDBRANCH   1  12
BRANCH  11  25
HETATM   25  C   UNL     1      24.825  44.862  49.930  1.00  0.00    -0.022 A 
HETATM   26  C   UNL     1      24.140  43.844  50.608  1.00  0.00     0.012 A 
HETATM   27  C   UNL     1      24.767  42.621  50.858  1.00  0.00     0.001 A 
HETATM   28  C   UNL     1      26.077  42.409  50.429  1.00  0.00     0.000 A 
HETATM   29  C   UNL     1      26.763  43.416  49.752  1.00  0.00     0.001 A 
HETATM   30  C   UNL     1      26.139  44.640  49.499  1.00  0.00     0.012 A 
ENDBRANCH  11  25
TORSDOF 5
ENDMDL
MODEL 8
REMARK VINA RESULT:      -9.0      1.405      1.787
REMARK  5 active torsions:
REMARK  status: ('A' for Active; 'I' for Inactive)
REMARK    1  A    between atoms: O_2  and  C_3 
REMARK    2  A    between atoms: C_5  and  C_6 
REMARK    3  A    between atoms: C_6  and  N_7 
REMARK       I    between atoms: N_7  and  C_8 
REMARK    4  A    between atoms: C_8  and  C_9 
REMARK    5  A    between atoms: C_19  and  C_20 
ROOT
HETATM    1  C   UNL     1      25.808  45.065  52.223  1.00  0.00     0.159 A 
HETATM    2  O   UNL     1      25.870  46.138  53.156  1.00  0.00    -0.268 OA
HETATM    3  C   UNL     1      26.819  46.257  54.117  1.00  0.00     0.299 A 
HETATM    4  O   UNL     1      26.844  47.206  54.890  1.00  0.00    -0.259 OA
HETATM    5  C   UNL     1      27.824  45.181  54.172  1.00  0.00     0.051 A 
HETATM    6  C   UNL     1      27.788  44.134  53.248  1.00  0.00    -0.006 A 
HETATM    7  C   UNL     1      28.813  45.235  55.168  1.00  0.00     0.018 A 
HETATM    8  C   UNL     1      29.781  44.240  55.249  1.00  0.00     0.001 A 
HETATM    9  C   UNL     1      29.764  43.191  54.336  1.00  0.00     0.001 A 
HETATM   10  C   UNL     1      28.778  43.139  53.344  1.00  0.00     0.013 A 
HETATM   11  C   UNL     1      26.730  44.075  52.207  1.00  0.00     0.025 A 
ENDROOT
BRANCH   1  12
HETATM   12  C   UNL     1      24.626  45.154  51.282  1.00  0.00     0.276 C 
HETATM   13  N   UNL     1      24.711  46.234  50.430  1.00  0.00    -0.351 N 
HETATM   14  H   UNL     1      25.590  46.732  50.392  1.00  0.00     0.163 HD
HETATM   15  O   UNL     1      23.681  44.379  51.273  1.00  0.00    -0.265 OA
BRANCH  13  16
HETATM   16  C   UNL     1      23.713  46.462  49.415  1.00  0.00     0.161 C 
BRANCH  16  17
HETATM   17  C   UNL     1      23.369  47.910  49.147  1.00  0.00    -0.038 A 
HETATM   18  C   UNL     1      22.061  48.413  49.083  1.00  0.00     0.045 A 
HETATM   19  C   UNL     1      21.813  49.773  48.856  1.00  0.00     0.068 A 
HETATM   20  C   UNL     1      22.883  50.644  48.661  1.00  0.00     0.037 A 
HETATM   21  C   UNL     1      24.191  50.161  48.706  1.00  0.00     0.003 A 
HETATM   22  C   UNL     1      24.430  48.808  48.951  1.00  0.00     0.009 A 
BRANCH  19  23
HETATM   23  O   UNL     1      20.488  50.115  48.844  1.00  0.00    -0.356 OA
HETATM   24  C   UNL     1      20.019  50.827  47.707  1.00  0.00     0.210 C 
ENDBRANCH  19  23
ENDBRANCH  16  17
ENDBRANCH  13  16
ENDBRANCH   1  12
BRANCH  11  25
HETATM   25  C   UNL     1      26.687  43.007  51.181  1.00  0.00    -0.022 A 
HETATM   26  C   UNL     1      26.158  41.749  51.503  1.00  0.00     0.012 A 
HETATM   27  C   UNL     1      26.073  40.752  50.528  1.00  0.00     0.001 A 
HETATM   28  C   UNL     1      26.512  41.008  49.229  1.00  0.00     0.000 A 
HETATM   29  C   UNL     1      27.036  42.257  48.902  1.00  0.00     0.001 A 
HETATM   30  C   UNL     1      27.122  43.257  49.873  1.00  0.00     0.012 A 
ENDBRANCH  11  25
TORSDOF 5
ENDMDL
MODEL 9
REMARK VINA RESULT:      -8.9     11.084     13.533
REMARK  5 active torsions:
REMARK  status: ('A' for Active; 'I' for Inactive)
REMARK    1  A    between atoms: O_2  and  C_3 
REMARK    2  A    between atoms: C_5  and  C_6 
REMARK    3  A    between atoms: C_6  and  N_7 
REMARK       I    between atoms: N_7  and  C_8 
REMARK    4  A    between atoms: C_8  and  C_9 
REMARK    5  A    between atoms: C_19  and  C_20 
ROOT
HETATM    1  C   UNL     1      26.319  49.136  39.535  1.00  0.00     0.159 A 
HETATM    2  O   UNL     1      24.900  49.220  39.467  1.00  0.00    -0.268 OA
HETATM    3  C   UNL     1      24.056  48.329  40.044  1.00  0.00     0.299 A 
HETATM    4  O   UNL     1      22.840  48.447  39.974  1.00  0.00    -0.259 OA
HETATM    5  C   UNL     1      24.690  47.212  40.768  1.00  0.00     0.051 A 
HETATM    6  C   UNL     1      26.081  47.131  40.862  1.00  0.00    -0.006 A 
HETATM    7  C   UNL     1      23.865  46.241  41.359  1.00  0.00     0.018 A 
HETATM    8  C   UNL     1      24.427  45.175  42.054  1.00  0.00     0.001 A 
HETATM    9  C   UNL     1      25.810  45.079  42.161  1.00  0.00     0.001 A 
HETATM   10  C   UNL     1      26.629  46.047  41.572  1.00  0.00     0.013 A 
HETATM   11  C   UNL     1      26.947  48.154  40.221  1.00  0.00     0.025 A 
ENDROOT
BRANCH   1  12
HETATM   12  C   UNL     1      27.023  50.237  38.771  1.00  0.00     0.276 C 
HETATM   13  N   UNL     1      27.594  51.174  39.605  1.00  0.00    -0.351 N 
HETATM   14  H   UNL     1      27.643  50.955  40.591  1.00  0.00     0.163 HD
HETATM   15  O   UNL     1      27.076  50.318  37.552  1.00  0.00    -0.265 OA
BRANCH  13  16
HETATM   16  C   UNL     1      28.364  52.272  39.074  1.00  0.00     0.161 C 
BRANCH  16  17
HETATM   17  C   UNL     1      29.862  52.073  39.054  1.00  0.00    -0.038 A 
HETATM   18  C   UNL     1      30.714  52.369  40.128  1.00  0.00     0.045 A 
HETATM   19  C   UNL     1      32.093  52.135  40.052  1.00  0.00     0.068 A 
HETATM   20  C   UNL     1      32.641  51.625  38.877  1.00  0.00     0.037 A 
HETATM   21  C   UNL     1      31.813  51.338  37.792  1.00  0.00     0.003 A 
HETATM   22  C   UNL     1      30.437  51.555  37.882  1.00  0.00     0.009 A 
BRANCH  19  23
HETATM   23  O   UNL     1      32.787  52.453  41.189  1.00  0.00    -0.356 OA
HETATM   24  C   UNL     1      33.154  51.375  42.039  1.00  0.00     0.210 C 
ENDBRANCH  19  23
ENDBRANCH  16  17
ENDBRANCH  13  16
ENDBRANCH   1  12
BRANCH  11  25
HETATM   25  C   UNL     1      28.424  48.128  40.338  1.00  0.00    -0.022 A 
HETATM   26  C   UNL     1      29.202  47.652  39.272  1.00  0.00     0.012 A 
HETATM   27  C   UNL     1      30.596  47.667  39.360  1.00  0.00     0.001 A 
HETATM   28  C   UNL     1      31.218  48.158  40.507  1.00  0.00     0.000 A 
HETATM   29  C   UNL     1      30.450  48.634  41.569  1.00  0.00     0.001 A 
HETATM   30  C   UNL     1      29.057  48.623  41.486  1.00  0.00     0.012 A 
ENDBRANCH  11  25
TORSDOF 5
ENDMDL
MODEL 10
REMARK VINA RESULT:      -8.9      4.059      7.956
REMARK  5 active torsions:
REMARK  status: ('A' for Active; 'I' for Inactive)
REMARK    1  A    between atoms: O_2  and  C_3 
REMARK    2  A    between atoms: C_5  and  C_6 
REMARK    3  A    between atoms: C_6  and  N_7 
REMARK       I    between atoms: N_7  and  C_8 
REMARK    4  A    between atoms: C_8  and  C_9 
REMARK    5  A    between atoms: C_19  and  C_20 
ROOT
HETATM    1  C   UNL     1      26.377  41.766  51.070  1.00  0.00     0.159 A 
HETATM    2  O   UNL     1      25.509  42.802  51.516  1.00  0.00    -0.268 OA
HETATM    3  C   UNL     1      24.402  43.207  50.846  1.00  0.00     0.299 A 
HETATM    4  O   UNL     1      23.674  44.093  51.273  1.00  0.00    -0.259 OA
HETATM    5  C   UNL     1      24.122  42.513  49.577  1.00  0.00     0.051 A 
HETATM    6  C   UNL     1      24.952  41.478  49.140  1.00  0.00    -0.006 A 
HETATM    7  C   UNL     1      23.005  42.912  48.825  1.00  0.00     0.018 A 
HETATM    8  C   UNL     1      22.706  42.277  47.624  1.00  0.00     0.001 A 
HETATM    9  C   UNL     1      23.519  41.242  47.175  1.00  0.00     0.001 A 
HETATM   10  C   UNL     1      24.631  40.846  47.925  1.00  0.00     0.013 A 
HETATM   11  C   UNL     1      26.141  41.071  49.934  1.00  0.00     0.025 A 
ENDROOT
BRANCH   1  12
HETATM   12  C   UNL     1      27.561  41.539  51.985  1.00  0.00     0.276 C 
HETATM   13  N   UNL     1      28.479  42.566  51.922  1.00  0.00    -0.351 N 
HETATM   14  H   UNL     1      28.206  43.410  51.437  1.00  0.00     0.163 HD
HETATM   15  O   UNL     1      27.718  40.556  52.695  1.00  0.00    -0.265 OA
BRANCH  13  16
HETATM   16  C   UNL     1      29.651  42.569  52.764  1.00  0.00     0.161 C 
BRANCH  16  17
HETATM   17  C   UNL     1      29.624  43.542  53.921  1.00  0.00    -0.038 A 
HETATM   18  C   UNL     1      30.524  43.516  54.997  1.00  0.00     0.045 A 
HETATM   19  C   UNL     1      30.460  44.464  56.025  1.00  0.00     0.068 A 
HETATM   20  C   UNL     1      29.465  45.439  56.001  1.00  0.00     0.037 A 
HETATM   21  C   UNL     1      28.551  45.473  54.948  1.00  0.00     0.003 A 
HETATM   22  C   UNL     1      28.633  44.537  53.916  1.00  0.00     0.009 A 
BRANCH  19  23
HETATM   23  O   UNL     1      31.420  44.322  56.991  1.00  0.00    -0.356 OA
HETATM   24  C   UNL     1      31.076  44.743  58.305  1.00  0.00     0.210 C 
ENDBRANCH  19  23
ENDBRANCH  16  17
ENDBRANCH  13  16
ENDBRANCH   1  12
BRANCH  11  25
HETATM   25  C   UNL     1      27.018  39.948  49.528  1.00  0.00    -0.022 A 
HETATM   26  C   UNL     1      28.225  40.208  48.865  1.00  0.00     0.012 A 
HETATM   27  C   UNL     1      29.077  39.157  48.519  1.00  0.00     0.001 A 
HETATM   28  C   UNL     1      28.730  37.844  48.837  1.00  0.00     0.000 A 
HETATM   29  C   UNL     1      27.532  37.579  49.498  1.00  0.00     0.001 A 
HETATM   30  C   UNL     1      26.677  38.627  49.846  1.00  0.00     0.012 A 
ENDBRANCH  11  25
TORSDOF 5
ENDMDL
