MODEL 1
REMARK VINA RESULT:      -9.4      0.000      0.000
REMARK  5 active torsions:
REMARK  status: ('A' for Active; 'I' for Inactive)
REMARK    1  A    between atoms: C_2  and  C_3 
REMARK    2  A    between atoms: C_8  and  C_9 
REMARK       I    between atoms: C_9  and  N_10 
REMARK    3  A    between atoms: N_10  and  C_11 
REMARK    4  A    between atoms: C_11  and  C_12 
REMARK    5  A    between atoms: C_19  and  C_20 
ROOT
HETATM    1  C   UNL     1      28.557  43.146  53.069  1.00  0.00     0.118 C 
HETATM    2  N   UNL     1      28.460  43.969  51.871  1.00  0.00    -0.366 N 
HETATM    3  C   UNL     1      27.295  44.521  51.467  1.00  0.00     0.123 A 
HETATM    4  N   UNL     1      26.110  44.234  52.085  1.00  0.00    -0.240 N 
HETATM    5  N   UNL     1      25.044  44.824  51.517  1.00  0.00    -0.165 NA
HETATM    6  C   UNL     1      25.584  45.582  50.536  1.00  0.00     0.148 A 
HETATM    7  C   UNL     1      26.992  45.402  50.464  1.00  0.00     0.088 A 
HETATM    8  C   UNL     1      25.972  43.339  53.216  1.00  0.00     0.221 C 
HETATM    9  C   UNL     1      27.217  42.440  53.352  1.00  0.00     0.066 C 
HETATM   10  H   UNL     1      29.346  44.268  51.466  1.00  0.00     0.161 HD
ENDROOT
BRANCH   6  11
HETATM   11  C   UNL     1      24.768  46.465  49.685  1.00  0.00     0.272 C 
HETATM   12  N   UNL     1      25.210  47.768  49.671  1.00  0.00    -0.353 N 
HETATM   13  H   UNL     1      25.935  47.994  50.346  1.00  0.00     0.162 HD
HETATM   14  O   UNL     1      23.795  46.070  49.049  1.00  0.00    -0.266 OA
BRANCH  12  15
HETATM   15  C   UNL     1      24.520  48.826  48.968  1.00  0.00     0.155 C 
BRANCH  15  16
HETATM   16  C   UNL     1      23.098  49.049  49.488  1.00  0.00     0.139 C 
HETATM   17  O   UNL     1      22.958  50.375  50.038  1.00  0.00    -0.384 OA
HETATM   18  C   UNL     1      21.603  50.799  49.837  1.00  0.00     0.168 C 
HETATM   19  C   UNL     1      20.908  49.743  48.998  1.00  0.00     0.029 C 
HETATM   20  C   UNL     1      22.055  48.977  48.388  1.00  0.00     0.035 C 
ENDBRANCH  15  16
ENDBRANCH  12  15
ENDBRANCH   6  11
BRANCH   8  21
HETATM   21  C   UNL     1      25.645  44.119  54.469  1.00  0.00     0.409 C 
HETATM   22  F   UNL     1      24.318  44.142  54.728  1.00  0.00    -0.169 F 
HETATM   23  F   UNL     1      26.229  43.526  55.546  1.00  0.00    -0.169 F 
HETATM   24  F   UNL     1      26.077  45.393  54.445  1.00  0.00    -0.169 F 
ENDBRANCH   8  21
BRANCH   1  25
HETATM   25  C   UNL     1      29.158  43.894  54.248  1.00  0.00    -0.034 A 
HETATM   26  C   UNL     1      28.731  45.206  54.516  1.00  0.00     0.011 A 
HETATM   27  C   UNL     1      29.241  45.922  55.604  1.00  0.00     0.026 A 
HETATM   28  C   UNL     1      30.189  45.341  56.449  1.00  0.00     0.055 A 
HETATM   29  C   UNL     1      30.625  44.037  56.203  1.00  0.00     0.056 A 
HETATM   30 CL   UNL     1      30.770  46.282  57.775  1.00  0.00    -0.083 Cl
HETATM   31  C   UNL     1      30.106  43.322  55.116  1.00  0.00     0.034 A 
HETATM   32 CL   UNL     1      31.795  43.249  57.201  1.00  0.00    -0.083 Cl
ENDBRANCH   1  25
TORSDOF 5
ENDMDL
MODEL 2
REMARK VINA RESULT:      -9.3      6.906     11.603
REMARK  5 active torsions:
REMARK  status: ('A' for Active; 'I' for Inactive)
REMARK    1  A    between atoms: C_2  and  C_3 
REMARK    2  A    between atoms: C_8  and  C_9 
REMARK       I    between atoms: C_9  and  N_10 
REMARK    3  A    between atoms: N_10  and  C_11 
REMARK    4  A    between atoms: C_11  and  C_12 
REMARK    5  A    between atoms: C_19  and  C_20 
ROOT
HETATM    1  C   UNL     1      18.495  51.497  49.241  1.00  0.00     0.118 C 
HETATM    2  N   UNL     1      19.815  51.945  48.817  1.00  0.00    -0.366 N 
HETATM    3  C   UNL     1      20.886  51.123  48.806  1.00  0.00     0.123 A 
HETATM    4  N   UNL     1      20.828  49.856  49.313  1.00  0.00    -0.240 N 
HETATM    5  N   UNL     1      22.000  49.199  49.274  1.00  0.00    -0.165 NA
HETATM    6  C   UNL     1      22.829  50.062  48.643  1.00  0.00     0.148 A 
HETATM    7  C   UNL     1      22.168  51.287  48.351  1.00  0.00     0.088 A 
HETATM    8  C   UNL     1      19.642  49.262  49.897  1.00  0.00     0.221 C 
HETATM    9  C   UNL     1      18.614  50.351  50.263  1.00  0.00     0.066 C 
HETATM   10  H   UNL     1      19.846  52.849  48.347  1.00  0.00     0.161 HD
ENDROOT
BRANCH   6  11
HETATM   11  C   UNL     1      24.225  49.721  48.322  1.00  0.00     0.272 C 
HETATM   12  N   UNL     1      24.810  48.893  49.252  1.00  0.00    -0.353 N 
HETATM   13  H   UNL     1      24.276  48.740  50.103  1.00  0.00     0.162 HD
HETATM   14  O   UNL     1      24.801  50.132  47.320  1.00  0.00    -0.266 OA
BRANCH  12  15
HETATM   15  C   UNL     1      26.197  48.490  49.185  1.00  0.00     0.155 C 
BRANCH  15  16
HETATM   16  C   UNL     1      26.583  47.520  50.304  1.00  0.00     0.139 C 
HETATM   17  O   UNL     1      25.663  47.625  51.410  1.00  0.00    -0.384 OA
HETATM   18  C   UNL     1      25.576  46.339  52.039  1.00  0.00     0.168 C 
HETATM   19  C   UNL     1      26.369  45.359  51.198  1.00  0.00     0.029 C 
HETATM   20  C   UNL     1      26.501  46.067  49.873  1.00  0.00     0.035 C 
ENDBRANCH  15  16
ENDBRANCH  12  15
ENDBRANCH   6  11
BRANCH   8  21
HETATM   21  C   UNL     1      19.090  48.185  48.991  1.00  0.00     0.409 C 
HETATM   22  F   UNL     1      19.276  48.471  47.682  1.00  0.00    -0.169 F 
HETATM   23  F   UNL     1      19.743  47.013  49.217  1.00  0.00    -0.169 F 
HETATM   24  F   UNL     1      17.779  47.941  49.172  1.00  0.00    -0.169 F 
ENDBRANCH   8  21
BRANCH   1  25
HETATM   25  C   UNL     1      17.563  51.227  48.069  1.00  0.00    -0.034 A 
HETATM   26  C   UNL     1      16.304  50.653  48.314  1.00  0.00     0.011 A 
HETATM   27  C   UNL     1      15.407  50.410  47.269  1.00  0.00     0.026 A 
HETATM   28  C   UNL     1      15.751  50.735  45.954  1.00  0.00     0.055 A 
HETATM   29  C   UNL     1      16.996  51.308  45.689  1.00  0.00     0.056 A 
HETATM   30 CL   UNL     1      14.592  50.410  44.716  1.00  0.00    -0.083 Cl
HETATM   31  C   UNL     1      17.888  51.556  46.740  1.00  0.00     0.034 A 
HETATM   32 CL   UNL     1      17.496  51.737  44.091  1.00  0.00    -0.083 Cl
ENDBRANCH   1  25
TORSDOF 5
ENDMDL
MODEL 3
REMARK VINA RESULT:      -9.2      4.372      8.342
REMARK  5 active torsions:
REMARK  status: ('A' for Active; 'I' for Inactive)
REMARK    1  A    between atoms: C_2  and  C_3 
REMARK    2  A    between atoms: C_8  and  C_9 
REMARK       I    between atoms: C_9  and  N_10 
REMARK    3  A    between atoms: N_10  and  C_11 
REMARK    4  A    between atoms: C_11  and  C_12 
REMARK    5  A    between atoms: C_19  and  C_20 
ROOT
HETATM    1  C   UNL     1      24.405  45.947  51.533  1.00  0.00     0.118 C 
HETATM    2  N   UNL     1      25.382  45.893  52.613  1.00  0.00    -0.366 N 
HETATM    3  C   UNL     1      26.354  44.956  52.658  1.00  0.00     0.123 A 
HETATM    4  N   UNL     1      26.403  43.923  51.765  1.00  0.00    -0.240 N 
HETATM    5  N   UNL     1      27.400  43.052  51.992  1.00  0.00    -0.165 NA
HETATM    6  C   UNL     1      28.066  43.596  53.037  1.00  0.00     0.148 A 
HETATM    7  C   UNL     1      27.426  44.781  53.492  1.00  0.00     0.088 A 
HETATM    8  C   UNL     1      25.450  43.724  50.691  1.00  0.00     0.221 C 
HETATM    9  C   UNL     1      24.168  44.544  50.944  1.00  0.00     0.066 C 
HETATM   10  H   UNL     1      25.415  46.708  53.222  1.00  0.00     0.161 HD
ENDROOT
BRANCH   6  11
HETATM   11  C   UNL     1      29.292  42.995  53.587  1.00  0.00     0.272 C 
HETATM   12  N   UNL     1      29.701  43.573  54.767  1.00  0.00    -0.353 N 
HETATM   13  H   UNL     1      29.208  44.421  55.035  1.00  0.00     0.162 HD
HETATM   14  O   UNL     1      29.884  42.066  53.045  1.00  0.00    -0.266 OA
BRANCH  12  15
HETATM   15  C   UNL     1      30.920  43.199  55.447  1.00  0.00     0.155 C 
BRANCH  15  16
HETATM   16  C   UNL     1      31.397  44.268  56.433  1.00  0.00     0.139 C 
HETATM   17  O   UNL     1      30.510  45.405  56.420  1.00  0.00    -0.384 OA
HETATM   18  C   UNL     1      30.516  45.988  57.731  1.00  0.00     0.168 C 
HETATM   19  C   UNL     1      31.335  45.086  58.634  1.00  0.00     0.029 C 
HETATM   20  C   UNL     1      31.382  43.785  57.872  1.00  0.00     0.035 C 
ENDBRANCH  15  16
ENDBRANCH  12  15
ENDBRANCH   6  11
BRANCH   8  21
HETATM   21  C   UNL     1      26.096  44.005  49.353  1.00  0.00     0.409 C 
HETATM   22  F   UNL     1      25.234  44.568  48.475  1.00  0.00    -0.169 F 
HETATM   23  F   UNL     1      27.111  44.898  49.510  1.00  0.00    -0.169 F 
HETATM   24  F   UNL     1      26.622  42.916  48.764  1.00  0.00    -0.169 F 
ENDBRANCH   8  21
BRANCH   1  25
HETATM   25  C   UNL     1      24.714  47.034  50.516  1.00  0.00    -0.034 A 
HETATM   26  C   UNL     1      23.668  47.571  49.747  1.00  0.00     0.011 A 
HETATM   27  C   UNL     1      23.905  48.588  48.816  1.00  0.00     0.026 A 
HETATM   28  C   UNL     1      25.195  49.091  48.635  1.00  0.00     0.055 A 
HETATM   29  C   UNL     1      26.249  48.574  49.391  1.00  0.00     0.056 A 
HETATM   30 CL   UNL     1      25.412  50.349  47.473  1.00  0.00    -0.083 Cl
HETATM   31  C   UNL     1      26.006  47.560  50.326  1.00  0.00     0.034 A 
HETATM   32 CL   UNL     1      27.873  49.142  49.223  1.00  0.00    -0.083 Cl
ENDBRANCH   1  25
TORSDOF 5
ENDMDL
MODEL 4
REMARK VINA RESULT:      -9.2      1.718      2.376
REMARK  5 active torsions:
REMARK  status: ('A' for Active; 'I' for Inactive)
REMARK    1  A    between atoms: C_2  and  C_3 
REMARK    2  A    between atoms: C_8  and  C_9 
REMARK       I    between atoms: C_9  and  N_10 
REMARK    3  A    between atoms: N_10  and  C_11 
REMARK    4  A    between atoms: C_11  and  C_12 
REMARK    5  A    between atoms: C_19  and  C_20 
ROOT
HETATM    1  C   UNL     1      28.314  43.501  52.912  1.00  0.00     0.118 C 
HETATM    2  N   UNL     1      28.129  44.450  51.822  1.00  0.00    -0.366 N 
HETATM    3  C   UNL     1      26.930  45.006  51.546  1.00  0.00     0.123 A 
HETATM    4  N   UNL     1      25.789  44.616  52.190  1.00  0.00    -0.240 N 
HETATM    5  N   UNL     1      24.678  45.231  51.750  1.00  0.00    -0.165 NA
HETATM    6  C   UNL     1      25.142  46.111  50.833  1.00  0.00     0.148 A 
HETATM    7  C   UNL     1      26.548  45.984  50.667  1.00  0.00     0.088 A 
HETATM    8  C   UNL     1      25.738  43.596  53.218  1.00  0.00     0.221 C 
HETATM    9  C   UNL     1      27.011  42.727  53.185  1.00  0.00     0.066 C 
HETATM   10  H   UNL     1      28.983  44.819  51.406  1.00  0.00     0.161 HD
ENDROOT
BRANCH   6  11
HETATM   11  C   UNL     1      24.258  47.057  50.133  1.00  0.00     0.272 C 
HETATM   12  N   UNL     1      23.245  46.441  49.434  1.00  0.00    -0.353 N 
HETATM   13  H   UNL     1      23.313  45.429  49.362  1.00  0.00     0.162 HD
HETATM   14  O   UNL     1      24.410  48.274  50.176  1.00  0.00    -0.266 OA
BRANCH  12  15
HETATM   15  C   UNL     1      22.304  47.164  48.609  1.00  0.00     0.155 C 
BRANCH  15  16
HETATM   16  C   UNL     1      21.851  46.360  47.389  1.00  0.00     0.139 C 
HETATM   17  O   UNL     1      21.300  45.090  47.791  1.00  0.00    -0.384 OA
HETATM   18  C   UNL     1      20.295  44.720  46.837  1.00  0.00     0.168 C 
HETATM   19  C   UNL     1      20.118  45.881  45.878  1.00  0.00     0.029 C 
HETATM   20  C   UNL     1      20.731  47.040  46.623  1.00  0.00     0.035 C 
ENDBRANCH  15  16
ENDBRANCH  12  15
ENDBRANCH   6  11
BRANCH   8  21
HETATM   21  C   UNL     1      25.464  44.221  54.568  1.00  0.00     0.409 C 
HETATM   22  F   UNL     1      26.155  43.618  55.562  1.00  0.00    -0.169 F 
HETATM   23  F   UNL     1      25.865  45.521  54.564  1.00  0.00    -0.169 F 
HETATM   24  F   UNL     1      24.164  44.216  54.916  1.00  0.00    -0.169 F 
ENDBRANCH   8  21
BRANCH   1  25
HETATM   25  C   UNL     1      28.962  44.132  54.135  1.00  0.00    -0.034 A 
HETATM   26  C   UNL     1      28.615  45.446  54.493  1.00  0.00     0.011 A 
HETATM   27  C   UNL     1      29.169  46.056  55.623  1.00  0.00     0.026 A 
HETATM   28  C   UNL     1      30.085  45.365  56.420  1.00  0.00     0.055 A 
HETATM   29  C   UNL     1      30.443  44.058  56.083  1.00  0.00     0.056 A 
HETATM   30 CL   UNL     1      30.725  46.179  57.801  1.00  0.00    -0.083 Cl
HETATM   31  C   UNL     1      29.879  43.449  54.955  1.00  0.00     0.034 A 
HETATM   32 CL   UNL     1      31.569  43.137  57.017  1.00  0.00    -0.083 Cl
ENDBRANCH   1  25
TORSDOF 5
ENDMDL
MODEL 5
REMARK VINA RESULT:      -9.0     13.381     15.955
REMARK  5 active torsions:
REMARK  status: ('A' for Active; 'I' for Inactive)
REMARK    1  A    between atoms: C_2  and  C_3 
REMARK    2  A    between atoms: C_8  and  C_9 
REMARK       I    between atoms: C_9  and  N_10 
REMARK    3  A    between atoms: N_10  and  C_11 
REMARK    4  A    between atoms: C_11  and  C_12 
REMARK    5  A    between atoms: C_19  and  C_20 
ROOT
HETATM    1  C   UNL     1      30.669  49.462  38.874  1.00  0.00     0.118 C 
HETATM    2  N   UNL     1      31.653  49.148  39.902  1.00  0.00    -0.366 N 
HETATM    3  C   UNL     1      32.133  50.083  40.750  1.00  0.00     0.123 A 
HETATM    4  N   UNL     1      31.823  51.407  40.614  1.00  0.00    -0.240 N 
HETATM    5  N   UNL     1      32.433  52.204  41.507  1.00  0.00    -0.165 NA
HETATM    6  C   UNL     1      33.106  51.338  42.299  1.00  0.00     0.148 A 
HETATM    7  C   UNL     1      32.955  50.001  41.842  1.00  0.00     0.088 A 
HETATM    8  C   UNL     1      30.962  51.943  39.578  1.00  0.00     0.221 C 
HETATM    9  C   UNL     1      30.800  50.930  38.428  1.00  0.00     0.066 C 
HETATM   10  H   UNL     1      31.812  48.156  40.074  1.00  0.00     0.161 HD
ENDROOT
BRANCH   6  11
HETATM   11  C   UNL     1      33.877  51.782  43.473  1.00  0.00     0.272 C 
HETATM   12  N   UNL     1      35.179  52.111  43.177  1.00  0.00    -0.353 N 
HETATM   13  H   UNL     1      35.491  51.873  42.239  1.00  0.00     0.162 HD
HETATM   14  O   UNL     1      33.397  51.855  44.600  1.00  0.00    -0.266 OA
BRANCH  12  15
HETATM   15  C   UNL     1      36.142  52.498  44.183  1.00  0.00     0.155 C 
BRANCH  15  16
HETATM   16  C   UNL     1      37.313  53.294  43.602  1.00  0.00     0.139 C 
HETATM   17  O   UNL     1      36.929  53.942  42.373  1.00  0.00    -0.384 OA
HETATM   18  C   UNL     1      37.683  55.157  42.257  1.00  0.00     0.168 C 
HETATM   19  C   UNL     1      38.466  55.340  43.543  1.00  0.00     0.029 C 
HETATM   20  C   UNL     1      37.758  54.426  44.511  1.00  0.00     0.035 C 
ENDBRANCH  15  16
ENDBRANCH  12  15
ENDBRANCH   6  11
BRANCH   8  21
HETATM   21  C   UNL     1      29.649  52.405  40.170  1.00  0.00     0.409 C 
HETATM   22  F   UNL     1      29.688  53.700  40.558  1.00  0.00    -0.169 F 
HETATM   23  F   UNL     1      28.667  52.322  39.233  1.00  0.00    -0.169 F 
HETATM   24  F   UNL     1      29.243  51.676  41.227  1.00  0.00    -0.169 F 
ENDBRANCH   8  21
BRANCH   1  25
HETATM   25  C   UNL     1      29.264  49.022  39.253  1.00  0.00    -0.034 A 
HETATM   26  C   UNL     1      29.056  48.383  40.488  1.00  0.00     0.011 A 
HETATM   27  C   UNL     1      27.777  47.982  40.886  1.00  0.00     0.026 A 
HETATM   28  C   UNL     1      26.676  48.213  40.058  1.00  0.00     0.055 A 
HETATM   29  C   UNL     1      26.859  48.848  38.828  1.00  0.00     0.056 A 
HETATM   30 CL   UNL     1      25.126  47.695  40.616  1.00  0.00    -0.083 Cl
HETATM   31  C   UNL     1      28.142  49.253  38.436  1.00  0.00     0.034 A 
HETATM   32 CL   UNL     1      25.549  49.167  37.747  1.00  0.00    -0.083 Cl
ENDBRANCH   1  25
TORSDOF 5
ENDMDL
MODEL 6
REMARK VINA RESULT:      -9.0     12.981     14.015
REMARK  5 active torsions:
REMARK  status: ('A' for Active; 'I' for Inactive)
REMARK    1  A    between atoms: C_2  and  C_3 
REMARK    2  A    between atoms: C_8  and  C_9 
REMARK       I    between atoms: C_9  and  N_10 
REMARK    3  A    between atoms: N_10  and  C_11 
REMARK    4  A    between atoms: C_11  and  C_12 
REMARK    5  A    between atoms: C_19  and  C_20 
ROOT
HETATM    1  C   UNL     1      31.059  51.527  39.132  1.00  0.00     0.118 C 
HETATM    2  N   UNL     1      29.650  51.846  38.939  1.00  0.00    -0.366 N 
HETATM    3  C   UNL     1      28.708  50.890  38.787  1.00  0.00     0.123 A 
HETATM    4  N   UNL     1      29.035  49.568  38.676  1.00  0.00    -0.240 N 
HETATM    5  N   UNL     1      27.979  48.761  38.472  1.00  0.00    -0.165 NA
HETATM    6  C   UNL     1      26.920  49.601  38.531  1.00  0.00     0.148 A 
HETATM    7  C   UNL     1      27.342  50.947  38.709  1.00  0.00     0.088 A 
HETATM    8  C   UNL     1      30.389  49.053  38.716  1.00  0.00     0.221 C 
HETATM    9  C   UNL     1      31.407  50.183  38.464  1.00  0.00     0.066 C 
HETATM   10  H   UNL     1      29.387  52.814  39.119  1.00  0.00     0.161 HD
ENDROOT
BRANCH   6  11
HETATM   11  C   UNL     1      25.531  49.125  38.421  1.00  0.00     0.272 C 
HETATM   12  N   UNL     1      24.623  50.137  38.214  1.00  0.00    -0.353 N 
HETATM   13  H   UNL     1      24.988  51.081  38.308  1.00  0.00     0.162 HD
HETATM   14  O   UNL     1      25.222  47.940  38.502  1.00  0.00    -0.266 OA
BRANCH  12  15
HETATM   15  C   UNL     1      23.196  49.915  38.154  1.00  0.00     0.155 C 
BRANCH  15  16
HETATM   16  C   UNL     1      22.446  50.582  39.308  1.00  0.00     0.139 C 
HETATM   17  O   UNL     1      21.310  51.322  38.817  1.00  0.00    -0.384 OA
HETATM   18  C   UNL     1      20.295  51.302  39.831  1.00  0.00     0.168 C 
HETATM   19  C   UNL     1      20.771  50.387  40.943  1.00  0.00     0.029 C 
HETATM   20  C   UNL     1      21.859  49.578  40.283  1.00  0.00     0.035 C 
ENDBRANCH  15  16
ENDBRANCH  12  15
ENDBRANCH   6  11
BRANCH   8  21
HETATM   21  C   UNL     1      30.628  48.296  40.003  1.00  0.00     0.409 C 
HETATM   22  F   UNL     1      30.309  46.986  39.894  1.00  0.00    -0.169 F 
HETATM   23  F   UNL     1      31.950  48.336  40.322  1.00  0.00    -0.169 F 
HETATM   24  F   UNL     1      29.957  48.791  41.059  1.00  0.00    -0.169 F 
ENDBRANCH   8  21
BRANCH   1  25
HETATM   25  C   UNL     1      31.497  51.664  40.582  1.00  0.00    -0.034 A 
HETATM   26  C   UNL     1      30.560  52.075  41.545  1.00  0.00     0.011 A 
HETATM   27  C   UNL     1      30.915  52.192  42.893  1.00  0.00     0.026 A 
HETATM   28  C   UNL     1      32.216  51.899  43.308  1.00  0.00     0.055 A 
HETATM   29  C   UNL     1      33.163  51.486  42.368  1.00  0.00     0.056 A 
HETATM   30 CL   UNL     1      32.582  52.061  44.987  1.00  0.00    -0.083 Cl
HETATM   31  C   UNL     1      32.801  51.365  41.020  1.00  0.00     0.034 A 
HETATM   32 CL   UNL     1      34.793  51.108  42.800  1.00  0.00    -0.083 Cl
ENDBRANCH   1  25
TORSDOF 5
ENDMDL
MODEL 7
REMARK VINA RESULT:      -8.9      4.354      7.381
REMARK  5 active torsions:
REMARK  status: ('A' for Active; 'I' for Inactive)
REMARK    1  A    between atoms: C_2  and  C_3 
REMARK    2  A    between atoms: C_8  and  C_9 
REMARK       I    between atoms: C_9  and  N_10 
REMARK    3  A    between atoms: N_10  and  C_11 
REMARK    4  A    between atoms: C_11  and  C_12 
REMARK    5  A    between atoms: C_19  and  C_20 
ROOT
HETATM    1  C   UNL     1      24.883  44.389  52.539  1.00  0.00     0.118 C 
HETATM    2  N   UNL     1      25.179  43.020  52.136  1.00  0.00    -0.366 N 
HETATM    3  C   UNL     1      25.759  42.727  50.953  1.00  0.00     0.123 A 
HETATM    4  N   UNL     1      25.987  43.684  50.004  1.00  0.00    -0.240 N 
HETATM    5  N   UNL     1      26.518  43.207  48.865  1.00  0.00    -0.165 NA
HETATM    6  C   UNL     1      26.707  41.893  49.127  1.00  0.00     0.148 A 
HETATM    7  C   UNL     1      26.225  41.554  50.421  1.00  0.00     0.088 A 
HETATM    8  C   UNL     1      25.650  45.085  50.158  1.00  0.00     0.221 C 
HETATM    9  C   UNL     1      24.637  45.277  51.305  1.00  0.00     0.066 C 
HETATM   10  H   UNL     1      25.105  42.317  52.870  1.00  0.00     0.161 HD
ENDROOT
BRANCH   6  11
HETATM   11  C   UNL     1      27.339  40.982  48.160  1.00  0.00     0.272 C 
HETATM   12  N   UNL     1      27.160  39.653  48.466  1.00  0.00    -0.353 N 
HETATM   13  H   UNL     1      26.754  39.463  49.378  1.00  0.00     0.162 HD
HETATM   14  O   UNL     1      27.958  41.375  47.175  1.00  0.00    -0.266 OA
BRANCH  12  15
HETATM   15  C   UNL     1      27.757  38.581  47.702  1.00  0.00     0.155 C 
BRANCH  15  16
HETATM   16  C   UNL     1      28.711  37.723  48.536  1.00  0.00     0.139 C 
HETATM   17  O   UNL     1      29.916  38.452  48.844  1.00  0.00    -0.384 OA
HETATM   18  C   UNL     1      30.403  37.992  50.113  1.00  0.00     0.168 C 
HETATM   19  C   UNL     1      29.375  37.033  50.681  1.00  0.00     0.029 C 
HETATM   20  C   UNL     1      28.131  37.350  49.889  1.00  0.00     0.035 C 
ENDBRANCH  15  16
ENDBRANCH  12  15
ENDBRANCH   6  11
BRANCH   8  21
HETATM   21  C   UNL     1      26.904  45.916  50.311  1.00  0.00     0.409 C 
HETATM   22  F   UNL     1      26.692  47.036  51.039  1.00  0.00    -0.169 F 
HETATM   23  F   UNL     1      27.850  45.204  50.980  1.00  0.00    -0.169 F 
HETATM   24  F   UNL     1      27.453  46.291  49.140  1.00  0.00    -0.169 F 
ENDBRANCH   8  21
BRANCH   1  25
HETATM   25  C   UNL     1      25.887  44.935  53.542  1.00  0.00    -0.034 A 
HETATM   26  C   UNL     1      26.925  44.102  53.995  1.00  0.00     0.011 A 
HETATM   27  C   UNL     1      27.883  44.571  54.899  1.00  0.00     0.026 A 
HETATM   28  C   UNL     1      27.826  45.885  55.370  1.00  0.00     0.055 A 
HETATM   29  C   UNL     1      26.804  46.731  54.931  1.00  0.00     0.056 A 
HETATM   30 CL   UNL     1      29.045  46.396  56.480  1.00  0.00    -0.083 Cl
HETATM   31  C   UNL     1      25.851  46.258  54.020  1.00  0.00     0.034 A 
HETATM   32 CL   UNL     1      26.663  48.367  55.468  1.00  0.00    -0.083 Cl
ENDBRANCH   1  25
TORSDOF 5
ENDMDL
MODEL 8
REMARK VINA RESULT:      -8.9      3.039      4.657
REMARK  5 active torsions:
REMARK  status: ('A' for Active; 'I' for Inactive)
REMARK    1  A    between atoms: C_2  and  C_3 
REMARK    2  A    between atoms: C_8  and  C_9 
REMARK       I    between atoms: C_9  and  N_10 
REMARK    3  A    between atoms: N_10  and  C_11 
REMARK    4  A    between atoms: C_11  and  C_12 
REMARK    5  A    between atoms: C_19  and  C_20 
ROOT
HETATM    1  C   UNL     1      26.274  45.915  49.850  1.00  0.00     0.118 C 
HETATM    2  N   UNL     1      25.399  47.045  49.569  1.00  0.00    -0.366 N 
HETATM    3  C   UNL     1      24.079  46.892  49.329  1.00  0.00     0.123 A 
HETATM    4  N   UNL     1      23.506  45.657  49.207  1.00  0.00    -0.240 N 
HETATM    5  N   UNL     1      22.196  45.690  48.911  1.00  0.00    -0.165 NA
HETATM    6  C   UNL     1      21.901  47.011  48.917  1.00  0.00     0.148 A 
HETATM    7  C   UNL     1      23.063  47.794  49.157  1.00  0.00     0.088 A 
HETATM    8  C   UNL     1      24.227  44.405  49.327  1.00  0.00     0.221 C 
HETATM    9  C   UNL     1      25.744  44.636  49.175  1.00  0.00     0.066 C 
HETATM   10  H   UNL     1      25.791  47.966  49.754  1.00  0.00     0.161 HD
ENDROOT
BRANCH   6  11
HETATM   11  C   UNL     1      20.534  47.513  48.700  1.00  0.00     0.272 C 
HETATM   12  N   UNL     1      20.097  48.352  49.699  1.00  0.00    -0.353 N 
HETATM   13  H   UNL     1      20.694  48.406  50.520  1.00  0.00     0.162 HD
HETATM   14  O   UNL     1      19.858  47.213  47.720  1.00  0.00    -0.266 OA
BRANCH  12  15
HETATM   15  C   UNL     1      18.761  48.902  49.738  1.00  0.00     0.155 C 
BRANCH  15  16
HETATM   16  C   UNL     1      18.624  50.178  48.905  1.00  0.00     0.139 C 
HETATM   17  O   UNL     1      17.591  51.028  49.441  1.00  0.00    -0.384 OA
HETATM   18  C   UNL     1      17.948  52.390  49.167  1.00  0.00     0.168 C 
HETATM   19  C   UNL     1      19.337  52.388  48.558  1.00  0.00     0.029 C 
HETATM   20  C   UNL     1      19.878  51.032  48.935  1.00  0.00     0.035 C 
ENDBRANCH  15  16
ENDBRANCH  12  15
ENDBRANCH   6  11
BRANCH   8  21
HETATM   21  C   UNL     1      23.846  43.697  50.608  1.00  0.00     0.409 C 
HETATM   22  F   UNL     1      23.686  44.556  51.641  1.00  0.00    -0.169 F 
HETATM   23  F   UNL     1      22.649  43.071  50.449  1.00  0.00    -0.169 F 
HETATM   24  F   UNL     1      24.730  42.758  50.994  1.00  0.00    -0.169 F 
ENDBRANCH   8  21
BRANCH   1  25
HETATM   25  C   UNL     1      26.599  45.779  51.330  1.00  0.00    -0.034 A 
HETATM   26  C   UNL     1      27.308  44.650  51.775  1.00  0.00     0.011 A 
HETATM   27  C   UNL     1      27.647  44.497  53.123  1.00  0.00     0.026 A 
HETATM   28  C   UNL     1      27.286  45.472  54.057  1.00  0.00     0.055 A 
HETATM   29  C   UNL     1      26.584  46.603  53.636  1.00  0.00     0.056 A 
HETATM   30 CL   UNL     1      27.742  45.218  55.702  1.00  0.00    -0.083 Cl
HETATM   31  C   UNL     1      26.252  46.754  52.283  1.00  0.00     0.034 A 
HETATM   32 CL   UNL     1      26.099  47.851  54.728  1.00  0.00    -0.083 Cl
ENDBRANCH   1  25
TORSDOF 5
ENDMDL
MODEL 9
REMARK VINA RESULT:      -8.8     14.278     16.236
REMARK  5 active torsions:
REMARK  status: ('A' for Active; 'I' for Inactive)
REMARK    1  A    between atoms: C_2  and  C_3 
REMARK    2  A    between atoms: C_8  and  C_9 
REMARK       I    between atoms: C_9  and  N_10 
REMARK    3  A    between atoms: N_10  and  C_11 
REMARK    4  A    between atoms: C_11  and  C_12 
REMARK    5  A    between atoms: C_19  and  C_20 
ROOT
HETATM    1  C   UNL     1      29.342  51.922  38.253  1.00  0.00     0.118 C 
HETATM    2  N   UNL     1      30.742  51.597  38.015  1.00  0.00    -0.366 N 
HETATM    3  C   UNL     1      31.705  51.840  38.931  1.00  0.00     0.123 A 
HETATM    4  N   UNL     1      31.445  52.524  40.086  1.00  0.00    -0.240 N 
HETATM    5  N   UNL     1      32.529  52.726  40.854  1.00  0.00    -0.165 NA
HETATM    6  C   UNL     1      33.514  52.075  40.194  1.00  0.00     0.148 A 
HETATM    7  C   UNL     1      33.036  51.523  38.974  1.00  0.00     0.088 A 
HETATM    8  C   UNL     1      30.144  53.044  40.453  1.00  0.00     0.221 C 
HETATM    9  C   UNL     1      29.219  53.114  39.221  1.00  0.00     0.066 C 
HETATM   10  H   UNL     1      30.928  51.003  37.209  1.00  0.00     0.161 HD
ENDROOT
BRANCH   6  11
HETATM   11  C   UNL     1      34.885  51.981  40.722  1.00  0.00     0.272 C 
HETATM   12  N   UNL     1      34.940  51.515  42.015  1.00  0.00    -0.353 N 
HETATM   13  H   UNL     1      34.046  51.435  42.492  1.00  0.00     0.162 HD
HETATM   14  O   UNL     1      35.878  52.283  40.066  1.00  0.00    -0.266 OA
BRANCH  12  15
HETATM   15  C   UNL     1      36.172  51.413  42.764  1.00  0.00     0.155 C 
BRANCH  15  16
HETATM   16  C   UNL     1      36.354  52.563  43.757  1.00  0.00     0.139 C 
HETATM   17  O   UNL     1      37.062  52.115  44.931  1.00  0.00    -0.384 OA
HETATM   18  C   UNL     1      37.819  53.221  45.442  1.00  0.00     0.168 C 
HETATM   19  C   UNL     1      37.684  54.367  44.458  1.00  0.00     0.029 C 
HETATM   20  C   UNL     1      37.208  53.687  43.199  1.00  0.00     0.035 C 
ENDBRANCH  15  16
ENDBRANCH  12  15
ENDBRANCH   6  11
BRANCH   8  21
HETATM   21  C   UNL     1      29.564  52.252  41.604  1.00  0.00     0.409 C 
HETATM   22  F   UNL     1      29.908  52.768  42.806  1.00  0.00    -0.169 F 
HETATM   23  F   UNL     1      28.205  52.292  41.552  1.00  0.00    -0.169 F 
HETATM   24  F   UNL     1      29.917  50.953  41.602  1.00  0.00    -0.169 F 
ENDBRANCH   8  21
BRANCH   1  25
HETATM   25  C   UNL     1      28.511  50.702  38.617  1.00  0.00    -0.034 A 
HETATM   26  C   UNL     1      27.109  50.805  38.621  1.00  0.00     0.011 A 
HETATM   27  C   UNL     1      26.305  49.702  38.927  1.00  0.00     0.026 A 
HETATM   28  C   UNL     1      26.887  48.470  39.236  1.00  0.00     0.055 A 
HETATM   29  C   UNL     1      28.278  48.344  39.234  1.00  0.00     0.056 A 
HETATM   30 CL   UNL     1      25.834  47.151  39.599  1.00  0.00    -0.083 Cl
HETATM   31  C   UNL     1      29.078  49.451  38.921  1.00  0.00     0.034 A 
HETATM   32 CL   UNL     1      29.073  46.856  39.606  1.00  0.00    -0.083 Cl
ENDBRANCH   1  25
TORSDOF 5
ENDMDL
MODEL 10
REMARK VINA RESULT:      -8.7      7.089      9.619
REMARK  5 active torsions:
REMARK  status: ('A' for Active; 'I' for Inactive)
REMARK    1  A    between atoms: C_2  and  C_3 
REMARK    2  A    between atoms: C_8  and  C_9 
REMARK       I    between atoms: C_9  and  N_10 
REMARK    3  A    between atoms: N_10  and  C_11 
REMARK    4  A    between atoms: C_11  and  C_12 
REMARK    5  A    between atoms: C_19  and  C_20 
ROOT
HETATM    1  C   UNL     1      26.349  38.042  47.875  1.00  0.00     0.118 C 
HETATM    2  N   UNL     1      25.748  39.300  48.299  1.00  0.00    -0.366 N 
HETATM    3  C   UNL     1      26.260  40.039  49.307  1.00  0.00     0.123 A 
HETATM    4  N   UNL     1      27.296  39.590  50.076  1.00  0.00    -0.240 N 
HETATM    5  N   UNL     1      27.640  40.427  51.070  1.00  0.00    -0.165 NA
HETATM    6  C   UNL     1      26.833  41.496  50.879  1.00  0.00     0.148 A 
HETATM    7  C   UNL     1      25.942  41.279  49.793  1.00  0.00     0.088 A 
HETATM    8  C   UNL     1      27.952  38.309  49.899  1.00  0.00     0.221 C 
HETATM    9  C   UNL     1      27.078  37.365  49.051  1.00  0.00     0.066 C 
HETATM   10  H   UNL     1      25.044  39.688  47.673  1.00  0.00     0.161 HD
ENDROOT
BRANCH   6  11
HETATM   11  C   UNL     1      26.915  42.703  51.718  1.00  0.00     0.272 C 
HETATM   12  N   UNL     1      27.212  42.433  53.034  1.00  0.00    -0.353 N 
HETATM   13  H   UNL     1      27.191  41.451  53.297  1.00  0.00     0.162 HD
HETATM   14  O   UNL     1      26.741  43.836  51.280  1.00  0.00    -0.266 OA
BRANCH  12  15
HETATM   15  C   UNL     1      27.266  43.454  54.055  1.00  0.00     0.155 C 
BRANCH  15  16
HETATM   16  C   UNL     1      28.680  44.001  54.267  1.00  0.00     0.139 C 
HETATM   17  O   UNL     1      28.694  44.979  55.326  1.00  0.00    -0.384 OA
HETATM   18  C   UNL     1      29.977  44.923  55.966  1.00  0.00     0.168 C 
HETATM   19  C   UNL     1      30.741  43.758  55.366  1.00  0.00     0.029 C 
HETATM   20  C   UNL     1      29.659  42.932  54.717  1.00  0.00     0.035 C 
ENDBRANCH  15  16
ENDBRANCH  12  15
ENDBRANCH   6  11
BRANCH   8  21
HETATM   21  C   UNL     1      29.348  38.503  49.351  1.00  0.00     0.409 C 
HETATM   22  F   UNL     1      30.288  38.481  50.322  1.00  0.00    -0.169 F 
HETATM   23  F   UNL     1      29.655  37.483  48.505  1.00  0.00    -0.169 F 
HETATM   24  F   UNL     1      29.506  39.645  48.657  1.00  0.00    -0.169 F 
ENDBRANCH   8  21
BRANCH   1  25
HETATM   25  C   UNL     1      27.165  38.182  46.599  1.00  0.00    -0.034 A 
HETATM   26  C   UNL     1      27.706  37.031  46.002  1.00  0.00     0.011 A 
HETATM   27  C   UNL     1      28.444  37.112  44.816  1.00  0.00     0.026 A 
HETATM   28  C   UNL     1      28.657  38.349  44.202  1.00  0.00     0.055 A 
HETATM   29  C   UNL     1      28.126  39.505  44.777  1.00  0.00     0.056 A 
HETATM   30 CL   UNL     1      29.573  38.373  42.738  1.00  0.00    -0.083 Cl
HETATM   31  C   UNL     1      27.383  39.417  45.961  1.00  0.00     0.034 A 
HETATM   32 CL   UNL     1      28.347  41.071  44.079  1.00  0.00    -0.083 Cl
ENDBRANCH   1  25
TORSDOF 5
ENDMDL
