MODEL 1
REMARK VINA RESULT:      -8.5      0.000      0.000
REMARK  5 active torsions:
REMARK  status: ('A' for Active; 'I' for Inactive)
REMARK    1  A    between atoms: O_2  and  C_3 
REMARK    2  A    between atoms: C_7  and  C_8 
REMARK       I    between atoms: C_8  and  N_9 
REMARK    3  A    between atoms: N_9  and  C_10 
REMARK    4  A    between atoms: C_10  and  C_11 
REMARK    5  A    between atoms: C_11  and  C_12 
ROOT
HETATM    1  C   UNL     1      28.753  41.752  53.216  1.00  0.00     0.251 C 
HETATM    2  N   UNL     1      28.833  41.978  51.862  1.00  0.00    -0.356 N 
HETATM    3  O   UNL     1      28.371  40.694  53.704  1.00  0.00    -0.268 OA
HETATM    4  H   UNL     1      29.027  42.900  51.492  1.00  0.00     0.162 HD
ENDROOT
BRANCH   2   5
HETATM    5  C   UNL     1      28.332  41.015  50.898  1.00  0.00     0.130 C 
BRANCH   5   6
HETATM    6  C   UNL     1      26.939  41.384  50.387  1.00  0.00     0.098 C 
BRANCH   6   7
HETATM    7  C   UNL     1      26.680  42.853  50.496  1.00  0.00     0.106 A 
HETATM    8  N   UNL     1      27.132  43.804  49.700  1.00  0.00    -0.233 NA
HETATM    9  C   UNL     1      26.616  44.978  50.197  1.00  0.00     0.085 A 
HETATM   10  C   UNL     1      25.833  44.739  51.321  1.00  0.00     0.062 A 
HETATM   11  C   UNL     1      26.771  46.294  49.739  1.00  0.00     0.034 A 
HETATM   12  N   UNL     1      25.898  43.382  51.496  1.00  0.00    -0.343 N 
HETATM   13  C   UNL     1      25.176  45.748  52.028  1.00  0.00     0.032 A 
HETATM   14  H   UNL     1      25.443  42.861  52.230  1.00  0.00     0.167 HD
HETATM   15  C   UNL     1      25.340  47.055  51.555  1.00  0.00     0.002 A 
HETATM   16  C   UNL     1      26.123  47.327  50.431  1.00  0.00     0.002 A 
ENDBRANCH   6   7
ENDBRANCH   5   6
ENDBRANCH   2   5
BRANCH   1  17
HETATM   17  C   UNL     1      29.186  42.857  54.114  1.00  0.00     0.035 A 
HETATM   18  C   UNL     1      30.251  42.724  55.010  1.00  0.00     0.044 A 
HETATM   19  C   UNL     1      30.600  43.798  55.835  1.00  0.00     0.070 A 
HETATM   20  C   UNL     1      29.909  45.016  55.754  1.00  0.00     0.111 A 
HETATM   21 CL   UNL     1      31.904  43.579  56.948  1.00  0.00    -0.081 Cl
HETATM   22  C   UNL     1      28.838  45.139  54.862  1.00  0.00     0.070 A 
HETATM   23  C   UNL     1      28.489  44.070  54.035  1.00  0.00     0.044 A 
HETATM   24 CL   UNL     1      27.900  46.584  54.760  1.00  0.00    -0.081 Cl
BRANCH  20  25
HETATM   25  O   UNL     1      30.229  46.041  56.610  1.00  0.00    -0.352 OA
HETATM   26  C   UNL     1      29.455  45.962  57.809  1.00  0.00     0.210 C 
ENDBRANCH  20  25
ENDBRANCH   1  17
TORSDOF 5
ENDMDL
MODEL 2
REMARK VINA RESULT:      -8.5      0.184      2.209
REMARK  5 active torsions:
REMARK  status: ('A' for Active; 'I' for Inactive)
REMARK    1  A    between atoms: O_2  and  C_3 
REMARK    2  A    between atoms: C_7  and  C_8 
REMARK       I    between atoms: C_8  and  N_9 
REMARK    3  A    between atoms: N_9  and  C_10 
REMARK    4  A    between atoms: C_10  and  C_11 
REMARK    5  A    between atoms: C_11  and  C_12 
ROOT
HETATM    1  C   UNL     1      28.747  41.780  53.197  1.00  0.00     0.251 C 
HETATM    2  N   UNL     1      28.738  42.026  51.844  1.00  0.00    -0.356 N 
HETATM    3  O   UNL     1      28.481  40.687  53.687  1.00  0.00    -0.268 OA
HETATM    4  H   UNL     1      28.835  42.965  51.478  1.00  0.00     0.162 HD
ENDROOT
BRANCH   2   5
HETATM    5  C   UNL     1      28.274  41.034  50.891  1.00  0.00     0.130 C 
BRANCH   5   6
HETATM    6  C   UNL     1      26.988  41.470  50.188  1.00  0.00     0.098 C 
BRANCH   6   7
HETATM    7  C   UNL     1      26.631  42.886  50.513  1.00  0.00     0.106 A 
HETATM    8  N   UNL     1      26.001  43.323  51.588  1.00  0.00    -0.233 NA
HETATM    9  C   UNL     1      25.919  44.687  51.438  1.00  0.00     0.085 A 
HETATM   10  C   UNL     1      26.509  45.092  50.246  1.00  0.00     0.062 A 
HETATM   11  C   UNL     1      25.353  45.652  52.283  1.00  0.00     0.034 A 
HETATM   12  N   UNL     1      26.945  43.928  49.673  1.00  0.00    -0.343 N 
HETATM   13  C   UNL     1      26.579  46.425  49.837  1.00  0.00     0.032 A 
HETATM   14  H   UNL     1      27.422  43.850  48.786  1.00  0.00     0.167 HD
HETATM   15  C   UNL     1      26.011  47.375  50.695  1.00  0.00     0.002 A 
HETATM   16  C   UNL     1      25.407  46.999  51.897  1.00  0.00     0.002 A 
ENDBRANCH   6   7
ENDBRANCH   5   6
ENDBRANCH   2   5
BRANCH   1  17
HETATM   17  C   UNL     1      29.129  42.908  54.088  1.00  0.00     0.035 A 
HETATM   18  C   UNL     1      28.468  44.140  54.069  1.00  0.00     0.044 A 
HETATM   19  C   UNL     1      28.886  45.163  54.925  1.00  0.00     0.070 A 
HETATM   20  C   UNL     1      29.944  44.958  55.822  1.00  0.00     0.111 A 
HETATM   21 CL   UNL     1      28.058  46.678  54.846  1.00  0.00    -0.081 Cl
HETATM   22  C   UNL     1      30.608  43.726  55.829  1.00  0.00     0.070 A 
HETATM   23  C   UNL     1      30.192  42.701  54.978  1.00  0.00     0.044 A 
HETATM   24 CL   UNL     1      31.963  43.429  56.857  1.00  0.00    -0.081 Cl
BRANCH  20  25
HETATM   25  O   UNL     1      30.377  45.991  56.615  1.00  0.00    -0.352 OA
HETATM   26  C   UNL     1      29.738  45.953  57.894  1.00  0.00     0.210 C 
ENDBRANCH  20  25
ENDBRANCH   1  17
TORSDOF 5
ENDMDL
MODEL 3
REMARK VINA RESULT:      -7.9      1.977      2.825
REMARK  5 active torsions:
REMARK  status: ('A' for Active; 'I' for Inactive)
REMARK    1  A    between atoms: O_2  and  C_3 
REMARK    2  A    between atoms: C_7  and  C_8 
REMARK       I    between atoms: C_8  and  N_9 
REMARK    3  A    between atoms: N_9  and  C_10 
REMARK    4  A    between atoms: C_10  and  C_11 
REMARK    5  A    between atoms: C_11  and  C_12 
ROOT
HETATM    1  C   UNL     1      27.213  43.731  52.464  1.00  0.00     0.251 C 
HETATM    2  N   UNL     1      25.896  44.098  52.324  1.00  0.00    -0.356 N 
HETATM    3  O   UNL     1      27.787  42.965  51.697  1.00  0.00    -0.268 OA
HETATM    4  H   UNL     1      25.416  44.627  53.042  1.00  0.00     0.162 HD
ENDROOT
BRANCH   2   5
HETATM    5  C   UNL     1      25.037  43.492  51.323  1.00  0.00     0.130 C 
BRANCH   5   6
HETATM    6  C   UNL     1      23.951  44.453  50.838  1.00  0.00     0.098 C 
BRANCH   6   7
HETATM    7  C   UNL     1      24.532  45.727  50.314  1.00  0.00     0.106 A 
HETATM    8  N   UNL     1      25.810  46.043  50.223  1.00  0.00    -0.233 NA
HETATM    9  C   UNL     1      25.841  47.303  49.673  1.00  0.00     0.085 A 
HETATM   10  C   UNL     1      24.554  47.767  49.424  1.00  0.00     0.062 A 
HETATM   11  C   UNL     1      26.935  48.118  49.353  1.00  0.00     0.034 A 
HETATM   12  N   UNL     1      23.740  46.751  49.850  1.00  0.00    -0.343 N 
HETATM   13  C   UNL     1      24.283  49.015  48.860  1.00  0.00     0.032 A 
HETATM   14  H   UNL     1      22.731  46.753  49.820  1.00  0.00     0.167 HD
HETATM   15  C   UNL     1      25.388  49.814  48.545  1.00  0.00     0.002 A 
HETATM   16  C   UNL     1      26.693  49.378  48.786  1.00  0.00     0.002 A 
ENDBRANCH   6   7
ENDBRANCH   5   6
ENDBRANCH   2   5
BRANCH   1  17
HETATM   17  C   UNL     1      27.966  44.329  53.598  1.00  0.00     0.035 A 
HETATM   18  C   UNL     1      29.057  43.692  54.198  1.00  0.00     0.044 A 
HETATM   19  C   UNL     1      29.714  44.305  55.269  1.00  0.00     0.070 A 
HETATM   20  C   UNL     1      29.307  45.564  55.733  1.00  0.00     0.111 A 
HETATM   21 CL   UNL     1      31.039  43.466  55.997  1.00  0.00    -0.081 Cl
HETATM   22  C   UNL     1      28.208  46.192  55.135  1.00  0.00     0.070 A 
HETATM   23  C   UNL     1      27.552  45.585  54.064  1.00  0.00     0.044 A 
HETATM   24 CL   UNL     1      27.610  47.709  55.700  1.00  0.00    -0.081 Cl
BRANCH  20  25
HETATM   25  O   UNL     1      29.928  46.125  56.821  1.00  0.00    -0.352 OA
HETATM   26  C   UNL     1      29.213  45.829  58.023  1.00  0.00     0.210 C 
ENDBRANCH  20  25
ENDBRANCH   1  17
TORSDOF 5
ENDMDL
MODEL 4
REMARK VINA RESULT:      -7.8      3.513      6.964
REMARK  5 active torsions:
REMARK  status: ('A' for Active; 'I' for Inactive)
REMARK    1  A    between atoms: O_2  and  C_3 
REMARK    2  A    between atoms: C_7  and  C_8 
REMARK       I    between atoms: C_8  and  N_9 
REMARK    3  A    between atoms: N_9  and  C_10 
REMARK    4  A    between atoms: C_10  and  C_11 
REMARK    5  A    between atoms: C_11  and  C_12 
ROOT
HETATM    1  C   UNL     1      25.881  44.247  49.835  1.00  0.00     0.251 C 
HETATM    2  N   UNL     1      27.012  43.920  50.545  1.00  0.00    -0.356 N 
HETATM    3  O   UNL     1      25.120  43.414  49.354  1.00  0.00    -0.268 OA
HETATM    4  H   UNL     1      27.686  44.625  50.818  1.00  0.00     0.162 HD
ENDROOT
BRANCH   2   5
HETATM    5  C   UNL     1      27.469  42.547  50.661  1.00  0.00     0.130 C 
BRANCH   5   6
HETATM    6  C   UNL     1      27.283  41.997  52.076  1.00  0.00     0.098 C 
BRANCH   6   7
HETATM    7  C   UNL     1      28.037  42.800  53.087  1.00  0.00     0.106 A 
HETATM    8  N   UNL     1      27.763  44.023  53.499  1.00  0.00    -0.233 NA
HETATM    9  C   UNL     1      28.727  44.322  54.434  1.00  0.00     0.085 A 
HETATM   10  C   UNL     1      29.609  43.260  54.595  1.00  0.00     0.062 A 
HETATM   11  C   UNL     1      28.913  45.486  55.193  1.00  0.00     0.034 A 
HETATM   12  N   UNL     1      29.155  42.309  53.720  1.00  0.00    -0.343 N 
HETATM   13  C   UNL     1      30.683  43.281  55.486  1.00  0.00     0.032 A 
HETATM   14  H   UNL     1      29.567  41.399  53.572  1.00  0.00     0.167 HD
HETATM   15  C   UNL     1      30.852  44.450  56.237  1.00  0.00     0.002 A 
HETATM   16  C   UNL     1      29.986  45.536  56.095  1.00  0.00     0.002 A 
ENDBRANCH   6   7
ENDBRANCH   5   6
ENDBRANCH   2   5
BRANCH   1  17
HETATM   17  C   UNL     1      25.572  45.694  49.681  1.00  0.00     0.035 A 
HETATM   18  C   UNL     1      24.265  46.178  49.568  1.00  0.00     0.044 A 
HETATM   19  C   UNL     1      24.045  47.550  49.414  1.00  0.00     0.070 A 
HETATM   20  C   UNL     1      25.120  48.450  49.397  1.00  0.00     0.111 A 
HETATM   21 CL   UNL     1      22.414  48.098  49.249  1.00  0.00    -0.081 Cl
HETATM   22  C   UNL     1      26.427  47.958  49.500  1.00  0.00     0.070 A 
HETATM   23  C   UNL     1      26.650  46.590  49.658  1.00  0.00     0.044 A 
HETATM   24 CL   UNL     1      27.800  49.001  49.417  1.00  0.00    -0.081 Cl
BRANCH  20  25
HETATM   25  O   UNL     1      24.889  49.786  49.189  1.00  0.00    -0.352 OA
HETATM   26  C   UNL     1      24.902  50.094  47.793  1.00  0.00     0.210 C 
ENDBRANCH  20  25
ENDBRANCH   1  17
TORSDOF 5
ENDMDL
MODEL 5
REMARK VINA RESULT:      -7.7      1.830      2.779
REMARK  5 active torsions:
REMARK  status: ('A' for Active; 'I' for Inactive)
REMARK    1  A    between atoms: O_2  and  C_3 
REMARK    2  A    between atoms: C_7  and  C_8 
REMARK       I    between atoms: C_8  and  N_9 
REMARK    3  A    between atoms: N_9  and  C_10 
REMARK    4  A    between atoms: C_10  and  C_11 
REMARK    5  A    between atoms: C_11  and  C_12 
ROOT
HETATM    1  C   UNL     1      26.149  43.558  52.674  1.00  0.00     0.251 C 
HETATM    2  N   UNL     1      26.643  42.511  51.930  1.00  0.00    -0.356 N 
HETATM    3  O   UNL     1      24.973  43.905  52.654  1.00  0.00    -0.268 OA
HETATM    4  H   UNL     1      27.638  42.331  51.869  1.00  0.00     0.162 HD
ENDROOT
BRANCH   2   5
HETATM    5  C   UNL     1      25.826  41.820  50.950  1.00  0.00     0.130 C 
BRANCH   5   6
HETATM    6  C   UNL     1      25.992  42.406  49.547  1.00  0.00     0.098 C 
BRANCH   6   7
HETATM    7  C   UNL     1      25.929  43.900  49.560  1.00  0.00     0.106 A 
HETATM    8  N   UNL     1      26.946  44.741  49.580  1.00  0.00    -0.233 NA
HETATM    9  C   UNL     1      26.387  45.997  49.572  1.00  0.00     0.085 A 
HETATM   10  C   UNL     1      24.999  45.922  49.548  1.00  0.00     0.062 A 
HETATM   11  C   UNL     1      27.003  47.256  49.583  1.00  0.00     0.034 A 
HETATM   12  N   UNL     1      24.733  44.578  49.551  1.00  0.00    -0.343 N 
HETATM   13  C   UNL     1      24.169  47.044  49.527  1.00  0.00     0.032 A 
HETATM   14  H   UNL     1      23.814  44.160  49.541  1.00  0.00     0.167 HD
HETATM   15  C   UNL     1      24.802  48.293  49.535  1.00  0.00     0.002 A 
HETATM   16  C   UNL     1      26.194  48.401  49.563  1.00  0.00     0.002 A 
ENDBRANCH   6   7
ENDBRANCH   5   6
ENDBRANCH   2   5
BRANCH   1  17
HETATM   17  C   UNL     1      27.107  44.270  53.561  1.00  0.00     0.035 A 
HETATM   18  C   UNL     1      26.896  45.582  53.997  1.00  0.00     0.044 A 
HETATM   19  C   UNL     1      27.843  46.198  54.821  1.00  0.00     0.070 A 
HETATM   20  C   UNL     1      28.990  45.506  55.236  1.00  0.00     0.111 A 
HETATM   21 CL   UNL     1      27.554  47.830  55.312  1.00  0.00    -0.081 Cl
HETATM   22  C   UNL     1      29.199  44.196  54.787  1.00  0.00     0.070 A 
HETATM   23  C   UNL     1      28.255  43.577  53.968  1.00  0.00     0.044 A 
HETATM   24 CL   UNL     1      30.622  43.310  55.202  1.00  0.00    -0.081 Cl
BRANCH  20  25
HETATM   25  O   UNL     1      29.935  46.145  55.999  1.00  0.00    -0.352 OA
HETATM   26  C   UNL     1      29.749  45.856  57.386  1.00  0.00     0.210 C 
ENDBRANCH  20  25
ENDBRANCH   1  17
TORSDOF 5
ENDMDL
MODEL 6
REMARK VINA RESULT:      -7.6      5.176      6.725
REMARK  5 active torsions:
REMARK  status: ('A' for Active; 'I' for Inactive)
REMARK    1  A    between atoms: O_2  and  C_3 
REMARK    2  A    between atoms: C_7  and  C_8 
REMARK       I    between atoms: C_8  and  N_9 
REMARK    3  A    between atoms: N_9  and  C_10 
REMARK    4  A    between atoms: C_10  and  C_11 
REMARK    5  A    between atoms: C_11  and  C_12 
ROOT
HETATM    1  C   UNL     1      24.936  46.265  50.731  1.00  0.00     0.251 C 
HETATM    2  N   UNL     1      24.660  47.564  50.375  1.00  0.00    -0.356 N 
HETATM    3  O   UNL     1      24.605  45.295  50.057  1.00  0.00    -0.268 OA
HETATM    4  H   UNL     1      24.832  48.333  51.012  1.00  0.00     0.162 HD
ENDROOT
BRANCH   2   5
HETATM    5  C   UNL     1      23.825  47.881  49.231  1.00  0.00     0.130 C 
BRANCH   5   6
HETATM    6  C   UNL     1      23.840  49.375  48.905  1.00  0.00     0.098 C 
BRANCH   6   7
HETATM    7  C   UNL     1      22.478  49.982  49.023  1.00  0.00     0.106 A 
HETATM    8  N   UNL     1      22.016  51.036  48.377  1.00  0.00    -0.233 NA
HETATM    9  C   UNL     1      20.720  51.195  48.810  1.00  0.00     0.085 A 
HETATM   10  C   UNL     1      20.384  50.219  49.740  1.00  0.00     0.062 A 
HETATM   11  C   UNL     1      19.763  52.154  48.450  1.00  0.00     0.034 A 
HETATM   12  N   UNL     1      21.522  49.466  49.866  1.00  0.00    -0.343 N 
HETATM   13  C   UNL     1      19.128  50.132  50.343  1.00  0.00     0.032 A 
HETATM   14  H   UNL     1      21.634  48.665  50.470  1.00  0.00     0.167 HD
HETATM   15  C   UNL     1      18.185  51.096  49.970  1.00  0.00     0.002 A 
HETATM   16  C   UNL     1      18.493  52.092  49.041  1.00  0.00     0.002 A 
ENDBRANCH   6   7
ENDBRANCH   5   6
ENDBRANCH   2   5
BRANCH   1  17
HETATM   17  C   UNL     1      25.702  46.055  51.988  1.00  0.00     0.035 A 
HETATM   18  C   UNL     1      26.402  44.874  52.255  1.00  0.00     0.044 A 
HETATM   19  C   UNL     1      27.093  44.736  53.463  1.00  0.00     0.070 A 
HETATM   20  C   UNL     1      27.113  45.779  54.399  1.00  0.00     0.111 A 
HETATM   21 CL   UNL     1      27.920  43.248  53.761  1.00  0.00    -0.081 Cl
HETATM   22  C   UNL     1      26.402  46.955  54.130  1.00  0.00     0.070 A 
HETATM   23  C   UNL     1      25.714  47.097  52.925  1.00  0.00     0.044 A 
HETATM   24 CL   UNL     1      26.325  48.252  55.267  1.00  0.00    -0.081 Cl
BRANCH  20  25
HETATM   25  O   UNL     1      27.749  45.606  55.603  1.00  0.00    -0.352 OA
HETATM   26  C   UNL     1      29.097  46.077  55.538  1.00  0.00     0.210 C 
ENDBRANCH  20  25
ENDBRANCH   1  17
TORSDOF 5
ENDMDL
MODEL 7
REMARK VINA RESULT:      -7.5      5.087      6.730
REMARK  5 active torsions:
REMARK  status: ('A' for Active; 'I' for Inactive)
REMARK    1  A    between atoms: O_2  and  C_3 
REMARK    2  A    between atoms: C_7  and  C_8 
REMARK       I    between atoms: C_8  and  N_9 
REMARK    3  A    between atoms: N_9  and  C_10 
REMARK    4  A    between atoms: C_10  and  C_11 
REMARK    5  A    between atoms: C_11  and  C_12 
ROOT
HETATM    1  C   UNL     1      24.999  46.206  51.061  1.00  0.00     0.251 C 
HETATM    2  N   UNL     1      24.592  47.456  50.655  1.00  0.00    -0.356 N 
HETATM    3  O   UNL     1      24.788  45.184  50.416  1.00  0.00    -0.268 OA
HETATM    4  H   UNL     1      24.667  48.259  51.268  1.00  0.00     0.162 HD
ENDROOT
BRANCH   2   5
HETATM    5  C   UNL     1      23.752  47.643  49.486  1.00  0.00     0.130 C 
BRANCH   5   6
HETATM    6  C   UNL     1      23.832  49.070  48.944  1.00  0.00     0.098 C 
BRANCH   6   7
HETATM    7  C   UNL     1      22.515  49.774  49.040  1.00  0.00     0.106 A 
HETATM    8  N   UNL     1      22.126  50.835  48.358  1.00  0.00    -0.233 NA
HETATM    9  C   UNL     1      20.846  51.099  48.784  1.00  0.00     0.085 A 
HETATM   10  C   UNL     1      20.444  50.180  49.748  1.00  0.00     0.062 A 
HETATM   11  C   UNL     1      19.957  52.109  48.391  1.00  0.00     0.034 A 
HETATM   12  N   UNL     1      21.527  49.356  49.900  1.00  0.00    -0.343 N 
HETATM   13  C   UNL     1      19.187  50.202  50.353  1.00  0.00     0.032 A 
HETATM   14  H   UNL     1      21.585  48.570  50.531  1.00  0.00     0.167 HD
HETATM   15  C   UNL     1      18.312  51.216  49.946  1.00  0.00     0.002 A 
HETATM   16  C   UNL     1      18.687  52.155  48.983  1.00  0.00     0.002 A 
ENDBRANCH   6   7
ENDBRANCH   5   6
ENDBRANCH   2   5
BRANCH   1  17
HETATM   17  C   UNL     1      25.756  46.121  52.338  1.00  0.00     0.035 A 
HETATM   18  C   UNL     1      25.821  47.182  53.247  1.00  0.00     0.044 A 
HETATM   19  C   UNL     1      26.561  47.041  54.424  1.00  0.00     0.070 A 
HETATM   20  C   UNL     1      27.219  45.837  54.716  1.00  0.00     0.111 A 
HETATM   21 CL   UNL     1      26.637  48.389  55.504  1.00  0.00    -0.081 Cl
HETATM   22  C   UNL     1      27.158  44.783  53.798  1.00  0.00     0.070 A 
HETATM   23  C   UNL     1      26.418  44.919  52.623  1.00  0.00     0.044 A 
HETATM   24 CL   UNL     1      27.999  43.298  54.060  1.00  0.00    -0.081 Cl
BRANCH  20  25
HETATM   25  O   UNL     1      27.986  45.735  55.850  1.00  0.00    -0.352 OA
HETATM   26  C   UNL     1      29.335  46.128  55.588  1.00  0.00     0.210 C 
ENDBRANCH  20  25
ENDBRANCH   1  17
TORSDOF 5
ENDMDL
MODEL 8
REMARK VINA RESULT:      -7.5      4.460      8.397
REMARK  5 active torsions:
REMARK  status: ('A' for Active; 'I' for Inactive)
REMARK    1  A    between atoms: O_2  and  C_3 
REMARK    2  A    between atoms: C_7  and  C_8 
REMARK       I    between atoms: C_8  and  N_9 
REMARK    3  A    between atoms: N_9  and  C_10 
REMARK    4  A    between atoms: C_10  and  C_11 
REMARK    5  A    between atoms: C_11  and  C_12 
ROOT
HETATM    1  C   UNL     1      24.989  45.188  51.516  1.00  0.00     0.251 C 
HETATM    2  N   UNL     1      26.132  45.806  51.964  1.00  0.00    -0.356 N 
HETATM    3  O   UNL     1      24.549  44.148  51.998  1.00  0.00    -0.268 OA
HETATM    4  H   UNL     1      26.539  46.588  51.465  1.00  0.00     0.162 HD
ENDROOT
BRANCH   2   5
HETATM    5  C   UNL     1      26.991  45.194  52.962  1.00  0.00     0.130 C 
BRANCH   5   6
HETATM    6  C   UNL     1      27.145  46.071  54.204  1.00  0.00     0.098 C 
BRANCH   6   7
HETATM    7  C   UNL     1      28.263  45.601  55.079  1.00  0.00     0.106 A 
HETATM    8  N   UNL     1      28.641  46.113  56.235  1.00  0.00    -0.233 NA
HETATM    9  C   UNL     1      29.694  45.336  56.657  1.00  0.00     0.085 A 
HETATM   10  C   UNL     1      29.966  44.328  55.739  1.00  0.00     0.062 A 
HETATM   11  C   UNL     1      30.471  45.428  57.821  1.00  0.00     0.034 A 
HETATM   12  N   UNL     1      29.049  44.524  54.741  1.00  0.00    -0.343 N 
HETATM   13  C   UNL     1      30.979  43.383  55.913  1.00  0.00     0.032 A 
HETATM   14  H   UNL     1      28.963  43.968  53.903  1.00  0.00     0.167 HD
HETATM   15  C   UNL     1      31.743  43.490  57.081  1.00  0.00     0.002 A 
HETATM   16  C   UNL     1      31.497  44.494  58.021  1.00  0.00     0.002 A 
ENDBRANCH   6   7
ENDBRANCH   5   6
ENDBRANCH   2   5
BRANCH   1  17
HETATM   17  C   UNL     1      24.250  45.849  50.408  1.00  0.00     0.035 A 
HETATM   18  C   UNL     1      23.398  45.150  49.548  1.00  0.00     0.044 A 
HETATM   19  C   UNL     1      22.742  45.831  48.518  1.00  0.00     0.070 A 
HETATM   20  C   UNL     1      22.910  47.213  48.353  1.00  0.00     0.111 A 
HETATM   21 CL   UNL     1      21.721  44.919  47.462  1.00  0.00    -0.081 Cl
HETATM   22  C   UNL     1      23.773  47.905  49.211  1.00  0.00     0.070 A 
HETATM   23  C   UNL     1      24.426  47.230  50.242  1.00  0.00     0.044 A 
HETATM   24 CL   UNL     1      24.080  49.594  49.023  1.00  0.00    -0.081 Cl
BRANCH  20  25
HETATM   25  O   UNL     1      22.303  47.855  47.303  1.00  0.00    -0.352 OA
HETATM   26  C   UNL     1      21.034  48.384  47.695  1.00  0.00     0.210 C 
ENDBRANCH  20  25
ENDBRANCH   1  17
TORSDOF 5
ENDMDL
MODEL 9
REMARK VINA RESULT:      -7.5      3.308      6.933
REMARK  5 active torsions:
REMARK  status: ('A' for Active; 'I' for Inactive)
REMARK    1  A    between atoms: O_2  and  C_3 
REMARK    2  A    between atoms: C_7  and  C_8 
REMARK       I    between atoms: C_8  and  N_9 
REMARK    3  A    between atoms: N_9  and  C_10 
REMARK    4  A    between atoms: C_10  and  C_11 
REMARK    5  A    between atoms: C_11  and  C_12 
ROOT
HETATM    1  C   UNL     1      25.479  44.607  51.895  1.00  0.00     0.251 C 
HETATM    2  N   UNL     1      26.462  45.541  52.125  1.00  0.00    -0.356 N 
HETATM    3  O   UNL     1      24.287  44.818  52.091  1.00  0.00    -0.268 OA
HETATM    4  H   UNL     1      27.444  45.295  52.077  1.00  0.00     0.162 HD
ENDROOT
BRANCH   2   5
HETATM    5  C   UNL     1      26.172  46.815  52.756  1.00  0.00     0.130 C 
BRANCH   5   6
HETATM    6  C   UNL     1      26.139  46.707  54.281  1.00  0.00     0.098 C 
BRANCH   6   7
HETATM    7  C   UNL     1      27.361  46.030  54.815  1.00  0.00     0.106 A 
HETATM    8  N   UNL     1      27.951  44.952  54.333  1.00  0.00    -0.233 NA
HETATM    9  C   UNL     1      29.032  44.726  55.152  1.00  0.00     0.085 A 
HETATM   10  C   UNL     1      29.105  45.686  56.155  1.00  0.00     0.062 A 
HETATM   11  C   UNL     1      30.005  43.718  55.100  1.00  0.00     0.034 A 
HETATM   12  N   UNL     1      28.026  46.497  55.925  1.00  0.00    -0.343 N 
HETATM   13  C   UNL     1      30.108  45.708  57.126  1.00  0.00     0.032 A 
HETATM   14  H   UNL     1      27.768  47.304  56.474  1.00  0.00     0.167 HD
HETATM   15  C   UNL     1      31.071  44.695  57.056  1.00  0.00     0.002 A 
HETATM   16  C   UNL     1      31.023  43.715  56.063  1.00  0.00     0.002 A 
ENDBRANCH   6   7
ENDBRANCH   5   6
ENDBRANCH   2   5
BRANCH   1  17
HETATM   17  C   UNL     1      25.909  43.290  51.353  1.00  0.00     0.035 A 
HETATM   18  C   UNL     1      25.257  42.667  50.284  1.00  0.00     0.044 A 
HETATM   19  C   UNL     1      25.705  41.423  49.831  1.00  0.00     0.070 A 
HETATM   20  C   UNL     1      26.817  40.804  50.420  1.00  0.00     0.111 A 
HETATM   21 CL   UNL     1      24.850  40.677  48.526  1.00  0.00    -0.081 Cl
HETATM   22  C   UNL     1      27.459  41.428  51.495  1.00  0.00     0.070 A 
HETATM   23  C   UNL     1      27.017  42.672  51.949  1.00  0.00     0.044 A 
HETATM   24 CL   UNL     1      28.790  40.692  52.312  1.00  0.00    -0.081 Cl
BRANCH  20  25
HETATM   25  O   UNL     1      27.208  39.557  49.999  1.00  0.00    -0.352 OA
HETATM   26  C   UNL     1      28.243  39.654  49.018  1.00  0.00     0.210 C 
ENDBRANCH  20  25
ENDBRANCH   1  17
TORSDOF 5
ENDMDL
MODEL 10
REMARK VINA RESULT:      -7.4      2.041      4.346
REMARK  5 active torsions:
REMARK  status: ('A' for Active; 'I' for Inactive)
REMARK    1  A    between atoms: O_2  and  C_3 
REMARK    2  A    between atoms: C_7  and  C_8 
REMARK       I    between atoms: C_8  and  N_9 
REMARK    3  A    between atoms: N_9  and  C_10 
REMARK    4  A    between atoms: C_10  and  C_11 
REMARK    5  A    between atoms: C_11  and  C_12 
ROOT
HETATM    1  C   UNL     1      27.624  43.079  52.904  1.00  0.00     0.251 C 
HETATM    2  N   UNL     1      26.892  43.811  51.999  1.00  0.00    -0.356 N 
HETATM    3  O   UNL     1      27.721  41.857  52.864  1.00  0.00    -0.268 OA
HETATM    4  H   UNL     1      26.726  44.801  52.133  1.00  0.00     0.162 HD
ENDROOT
BRANCH   2   5
HETATM    5  C   UNL     1      26.056  43.172  50.998  1.00  0.00     0.130 C 
BRANCH   5   6
HETATM    6  C   UNL     1      26.674  43.245  49.602  1.00  0.00     0.098 C 
BRANCH   6   7
HETATM    7  C   UNL     1      27.244  41.929  49.178  1.00  0.00     0.106 A 
HETATM    8  N   UNL     1      27.285  41.433  47.956  1.00  0.00    -0.233 NA
HETATM    9  C   UNL     1      27.910  40.214  48.072  1.00  0.00     0.085 A 
HETATM   10  C   UNL     1      28.259  39.959  49.394  1.00  0.00     0.062 A 
HETATM   11  C   UNL     1      28.220  39.264  47.089  1.00  0.00     0.034 A 
HETATM   12  N   UNL     1      27.815  41.060  50.078  1.00  0.00    -0.343 N 
HETATM   13  C   UNL     1      28.914  38.798  49.806  1.00  0.00     0.032 A 
HETATM   14  H   UNL     1      27.901  41.209  51.073  1.00  0.00     0.167 HD
HETATM   15  C   UNL     1      29.218  37.862  48.810  1.00  0.00     0.002 A 
HETATM   16  C   UNL     1      28.878  38.087  47.474  1.00  0.00     0.002 A 
ENDBRANCH   6   7
ENDBRANCH   5   6
ENDBRANCH   2   5
BRANCH   1  17
HETATM   17  C   UNL     1      28.349  43.836  53.959  1.00  0.00     0.035 A 
HETATM   18  C   UNL     1      29.452  43.310  54.640  1.00  0.00     0.044 A 
HETATM   19  C   UNL     1      30.081  44.070  55.630  1.00  0.00     0.070 A 
HETATM   20  C   UNL     1      29.634  45.365  55.931  1.00  0.00     0.111 A 
HETATM   21 CL   UNL     1      31.422  43.368  56.464  1.00  0.00    -0.081 Cl
HETATM   22  C   UNL     1      28.524  45.881  55.253  1.00  0.00     0.070 A 
HETATM   23  C   UNL     1      27.895  45.127  54.262  1.00  0.00     0.044 A 
HETATM   24 CL   UNL     1      27.878  47.440  55.620  1.00  0.00    -0.081 Cl
BRANCH  20  25
HETATM   25  O   UNL     1      30.229  46.075  56.944  1.00  0.00    -0.352 OA
HETATM   26  C   UNL     1      29.537  45.875  58.179  1.00  0.00     0.210 C 
ENDBRANCH  20  25
ENDBRANCH   1  17
TORSDOF 5
ENDMDL
