MODEL 1
REMARK VINA RESULT:      -8.9      0.000      0.000
REMARK  6 active torsions:
REMARK  status: ('A' for Active; 'I' for Inactive)
REMARK    1  A    between atoms: C_2  and  C_3 
REMARK    2  A    between atoms: C_3  and  N_4 
REMARK    3  A    between atoms: C_3  and  C_11 
REMARK    4  A    between atoms: N_4  and  C_5 
REMARK       I    between atoms: C_11  and  N_12 
REMARK    5  A    between atoms: N_12  and  N_13 
REMARK    6  A    between atoms: C_14  and  C_15 
ROOT
HETATM    1  C   UNL     1      26.308  46.524  53.944  1.00  0.00     0.255 C 
HETATM    2  N   UNL     1      26.445  46.530  52.559  1.00  0.00    -0.246 N 
HETATM    3  O   UNL     1      25.765  47.390  54.627  1.00  0.00    -0.270 OA
HETATM    4  H   UNL     1      26.848  45.693  52.139  1.00  0.00     0.192 HD
ENDROOT
BRANCH   2   5
HETATM    5  N   UNL     1      26.069  47.496  51.667  1.00  0.00    -0.184 NA
HETATM    6  C   UNL     1      26.344  47.361  50.410  1.00  0.00     0.152 C 
BRANCH   6   7
HETATM    7  C   UNL     1      25.931  48.397  49.481  1.00  0.00     0.011 A 
HETATM    8  C   UNL     1      24.588  48.743  49.121  1.00  0.00     0.004 A 
HETATM    9  C   UNL     1      24.657  49.803  48.215  1.00  0.00     0.043 A 
HETATM   10  C   UNL     1      23.314  48.255  49.485  1.00  0.00     0.014 A 
HETATM   11  C   UNL     1      23.520  50.402  47.659  1.00  0.00     0.030 A 
HETATM   12  N   UNL     1      25.990  50.087  48.026  1.00  0.00    -0.364 N 
HETATM   13  C   UNL     1      22.272  49.900  48.039  1.00  0.00     0.002 A 
HETATM   14  C   UNL     1      22.168  48.842  48.937  1.00  0.00     0.001 A 
HETATM   15  H   UNL     1      26.340  50.814  47.417  1.00  0.00     0.165 HD
HETATM   16  C   UNL     1      26.764  49.249  48.781  1.00  0.00     0.102 A 
ENDBRANCH   6   7
ENDBRANCH   2   5
BRANCH   1  17
HETATM   17  C   UNL     1      26.904  45.247  54.584  1.00  0.00     0.154 C 
BRANCH  17  18
HETATM   18  C   UNL     1      26.349  43.997  53.883  1.00  0.00     0.025 C 
HETATM   19  C   UNL     1      27.418  42.944  53.627  1.00  0.00     0.007 C 
ENDBRANCH  17  18
BRANCH  17  20
HETATM   20  N   UNL     1      28.390  45.291  54.435  1.00  0.00    -0.280 NA
HETATM   21  H   UNL     1      28.655  46.185  54.009  1.00  0.00     0.128 HD
BRANCH  20  22
HETATM   22  C   UNL     1      29.123  45.210  55.638  1.00  0.00     0.009 A 
HETATM   23  C   UNL     1      30.230  44.357  55.685  1.00  0.00     0.023 A 
HETATM   24  C   UNL     1      31.037  44.292  56.823  1.00  0.00     0.002 A 
HETATM   25  C   UNL     1      30.757  45.102  57.920  1.00  0.00     0.000 A 
HETATM   26  C   UNL     1      29.676  45.981  57.875  1.00  0.00     0.002 A 
HETATM   27  C   UNL     1      28.869  46.041  56.736  1.00  0.00     0.023 A 
ENDBRANCH  20  22
ENDBRANCH  17  20
ENDBRANCH   1  17
TORSDOF 6
ENDMDL
MODEL 2
REMARK VINA RESULT:      -8.8      1.655      2.712
REMARK  6 active torsions:
REMARK  status: ('A' for Active; 'I' for Inactive)
REMARK    1  A    between atoms: C_2  and  C_3 
REMARK    2  A    between atoms: C_3  and  N_4 
REMARK    3  A    between atoms: C_3  and  C_11 
REMARK    4  A    between atoms: N_4  and  C_5 
REMARK       I    between atoms: C_11  and  N_12 
REMARK    5  A    between atoms: N_12  and  N_13 
REMARK    6  A    between atoms: C_14  and  C_15 
ROOT
HETATM    1  C   UNL     1      26.840  44.085  53.886  1.00  0.00     0.255 C 
HETATM    2  N   UNL     1      27.224  44.852  52.789  1.00  0.00    -0.246 N 
HETATM    3  O   UNL     1      25.744  44.106  54.442  1.00  0.00    -0.270 OA
HETATM    4  H   UNL     1      28.144  44.654  52.396  1.00  0.00     0.192 HD
ENDROOT
BRANCH   2   5
HETATM    5  N   UNL     1      26.513  45.817  52.129  1.00  0.00    -0.184 NA
HETATM    6  C   UNL     1      26.168  45.639  50.896  1.00  0.00     0.152 C 
BRANCH   6   7
HETATM    7  C   UNL     1      25.408  46.674  50.218  1.00  0.00     0.011 A 
HETATM    8  C   UNL     1      25.926  47.864  49.613  1.00  0.00     0.004 A 
HETATM    9  C   UNL     1      24.848  48.559  49.063  1.00  0.00     0.043 A 
HETATM   10  C   UNL     1      27.219  48.416  49.475  1.00  0.00     0.014 A 
HETATM   11  C   UNL     1      24.994  49.773  48.382  1.00  0.00     0.030 A 
HETATM   12  N   UNL     1      23.716  47.824  49.330  1.00  0.00    -0.364 N 
HETATM   13  C   UNL     1      26.285  50.296  48.260  1.00  0.00     0.002 A 
HETATM   14  C   UNL     1      27.382  49.630  48.798  1.00  0.00     0.001 A 
HETATM   15  H   UNL     1      22.781  48.089  49.049  1.00  0.00     0.165 HD
HETATM   16  C   UNL     1      24.040  46.690  50.022  1.00  0.00     0.102 A 
ENDBRANCH   6   7
ENDBRANCH   2   5
BRANCH   1  17
HETATM   17  C   UNL     1      27.965  43.130  54.352  1.00  0.00     0.154 C 
BRANCH  17  18
HETATM   18  C   UNL     1      27.949  41.845  53.508  1.00  0.00     0.025 C 
HETATM   19  C   UNL     1      29.280  41.579  52.819  1.00  0.00     0.007 C 
ENDBRANCH  17  18
BRANCH  17  20
HETATM   20  N   UNL     1      29.277  43.825  54.187  1.00  0.00    -0.280 NA
HETATM   21  H   UNL     1      29.118  44.731  53.734  1.00  0.00     0.128 HD
BRANCH  20  22
HETATM   22  C   UNL     1      29.964  44.114  55.385  1.00  0.00     0.009 A 
HETATM   23  C   UNL     1      29.583  45.247  56.112  1.00  0.00     0.023 A 
HETATM   24  C   UNL     1      30.176  45.542  57.341  1.00  0.00     0.002 A 
HETATM   25  C   UNL     1      31.143  44.690  57.869  1.00  0.00     0.000 A 
HETATM   26  C   UNL     1      31.509  43.540  57.171  1.00  0.00     0.002 A 
HETATM   27  C   UNL     1      30.915  43.250  55.940  1.00  0.00     0.023 A 
ENDBRANCH  20  22
ENDBRANCH  17  20
ENDBRANCH   1  17
TORSDOF 6
ENDMDL
MODEL 3
REMARK VINA RESULT:      -8.7      1.793      8.869
REMARK  6 active torsions:
REMARK  status: ('A' for Active; 'I' for Inactive)
REMARK    1  A    between atoms: C_2  and  C_3 
REMARK    2  A    between atoms: C_3  and  N_4 
REMARK    3  A    between atoms: C_3  and  C_11 
REMARK    4  A    between atoms: N_4  and  C_5 
REMARK       I    between atoms: C_11  and  N_12 
REMARK    5  A    between atoms: N_12  and  N_13 
REMARK    6  A    between atoms: C_14  and  C_15 
ROOT
HETATM    1  C   UNL     1      25.248  45.382  52.285  1.00  0.00     0.255 C 
HETATM    2  N   UNL     1      26.276  46.220  52.708  1.00  0.00    -0.246 N 
HETATM    3  O   UNL     1      24.661  44.547  52.968  1.00  0.00    -0.270 OA
HETATM    4  H   UNL     1      26.600  46.917  52.037  1.00  0.00     0.192 HD
ENDROOT
BRANCH   2   5
HETATM    5  N   UNL     1      26.891  46.270  53.929  1.00  0.00    -0.184 NA
HETATM    6  C   UNL     1      27.960  45.574  54.146  1.00  0.00     0.152 C 
BRANCH   6   7
HETATM    7  C   UNL     1      28.599  45.647  55.447  1.00  0.00     0.011 A 
HETATM    8  C   UNL     1      29.681  44.836  55.921  1.00  0.00     0.004 A 
HETATM    9  C   UNL     1      29.988  45.261  57.214  1.00  0.00     0.043 A 
HETATM   10  C   UNL     1      30.434  43.778  55.366  1.00  0.00     0.014 A 
HETATM   11  C   UNL     1      31.011  44.687  57.979  1.00  0.00     0.030 A 
HETATM   12  N   UNL     1      29.123  46.286  57.520  1.00  0.00    -0.364 N 
HETATM   13  C   UNL     1      31.741  43.643  57.405  1.00  0.00     0.002 A 
HETATM   14  C   UNL     1      31.459  43.193  56.119  1.00  0.00     0.001 A 
HETATM   15  H   UNL     1      29.115  46.787  58.397  1.00  0.00     0.165 HD
HETATM   16  C   UNL     1      28.284  46.527  56.466  1.00  0.00     0.102 A 
ENDBRANCH   6   7
ENDBRANCH   2   5
BRANCH   1  17
HETATM   17  C   UNL     1      24.867  45.629  50.805  1.00  0.00     0.154 C 
BRANCH  17  18
HETATM   18  C   UNL     1      23.853  44.572  50.338  1.00  0.00     0.025 C 
HETATM   19  C   UNL     1      23.265  44.887  48.970  1.00  0.00     0.007 C 
ENDBRANCH  17  18
BRANCH  17  20
HETATM   20  N   UNL     1      24.265  46.991  50.690  1.00  0.00    -0.280 NA
HETATM   21  H   UNL     1      24.277  47.438  51.613  1.00  0.00     0.128 HD
BRANCH  20  22
HETATM   22  C   UNL     1      24.939  47.881  49.827  1.00  0.00     0.009 A 
HETATM   23  C   UNL     1      24.181  48.821  49.120  1.00  0.00     0.023 A 
HETATM   24  C   UNL     1      24.799  49.775  48.309  1.00  0.00     0.002 A 
HETATM   25  C   UNL     1      26.188  49.815  48.217  1.00  0.00     0.000 A 
HETATM   26  C   UNL     1      26.956  48.905  48.942  1.00  0.00     0.002 A 
HETATM   27  C   UNL     1      26.334  47.950  49.750  1.00  0.00     0.023 A 
ENDBRANCH  20  22
ENDBRANCH  17  20
ENDBRANCH   1  17
TORSDOF 6
ENDMDL
MODEL 4
REMARK VINA RESULT:      -8.6      2.210      8.790
REMARK  6 active torsions:
REMARK  status: ('A' for Active; 'I' for Inactive)
REMARK    1  A    between atoms: C_2  and  C_3 
REMARK    2  A    between atoms: C_3  and  N_4 
REMARK    3  A    between atoms: C_3  and  C_11 
REMARK    4  A    between atoms: N_4  and  C_5 
REMARK       I    between atoms: C_11  and  N_12 
REMARK    5  A    between atoms: N_12  and  N_13 
REMARK    6  A    between atoms: C_14  and  C_15 
ROOT
HETATM    1  C   UNL     1      26.492  44.832  50.575  1.00  0.00     0.255 C 
HETATM    2  N   UNL     1      26.573  44.705  51.959  1.00  0.00    -0.246 N 
HETATM    3  O   UNL     1      27.332  44.459  49.759  1.00  0.00    -0.270 OA
HETATM    4  H   UNL     1      25.751  44.992  52.490  1.00  0.00     0.192 HD
ENDROOT
BRANCH   2   5
HETATM    5  N   UNL     1      27.598  44.202  52.713  1.00  0.00    -0.184 NA
HETATM    6  C   UNL     1      28.080  44.892  53.695  1.00  0.00     0.152 C 
BRANCH   6   7
HETATM    7  C   UNL     1      29.163  44.335  54.486  1.00  0.00     0.011 A 
HETATM    8  C   UNL     1      29.606  44.782  55.773  1.00  0.00     0.004 A 
HETATM    9  C   UNL     1      30.656  43.950  56.166  1.00  0.00     0.043 A 
HETATM   10  C   UNL     1      29.208  45.818  56.646  1.00  0.00     0.014 A 
HETATM   11  C   UNL     1      31.325  44.098  57.387  1.00  0.00     0.030 A 
HETATM   12  N   UNL     1      30.850  43.038  55.155  1.00  0.00    -0.364 N 
HETATM   13  C   UNL     1      30.909  45.130  58.233  1.00  0.00     0.002 A 
HETATM   14  C   UNL     1      29.868  45.979  57.870  1.00  0.00     0.001 A 
HETATM   15  H   UNL     1      31.550  42.309  55.168  1.00  0.00     0.165 HD
HETATM   16  C   UNL     1      29.958  43.259  54.141  1.00  0.00     0.102 A 
ENDBRANCH   6   7
ENDBRANCH   2   5
BRANCH   1  17
HETATM   17  C   UNL     1      25.166  45.493  50.127  1.00  0.00     0.154 C 
BRANCH  17  18
HETATM   18  C   UNL     1      23.972  44.633  50.570  1.00  0.00     0.025 C 
HETATM   19  C   UNL     1      23.871  43.325  49.797  1.00  0.00     0.007 C 
ENDBRANCH  17  18
BRANCH  17  20
HETATM   20  N   UNL     1      25.074  46.846  50.754  1.00  0.00    -0.280 NA
HETATM   21  H   UNL     1      25.716  46.886  51.552  1.00  0.00     0.128 HD
BRANCH  20  22
HETATM   22  C   UNL     1      25.434  47.926  49.921  1.00  0.00     0.009 A 
HETATM   23  C   UNL     1      26.793  48.211  49.755  1.00  0.00     0.023 A 
HETATM   24  C   UNL     1      27.212  49.220  48.885  1.00  0.00     0.002 A 
HETATM   25  C   UNL     1      26.272  49.940  48.151  1.00  0.00     0.000 A 
HETATM   26  C   UNL     1      24.917  49.644  48.283  1.00  0.00     0.002 A 
HETATM   27  C   UNL     1      24.501  48.636  49.156  1.00  0.00     0.023 A 
ENDBRANCH  20  22
ENDBRANCH  17  20
ENDBRANCH   1  17
TORSDOF 6
ENDMDL
MODEL 5
REMARK VINA RESULT:      -8.5      1.819      2.255
REMARK  6 active torsions:
REMARK  status: ('A' for Active; 'I' for Inactive)
REMARK    1  A    between atoms: C_2  and  C_3 
REMARK    2  A    between atoms: C_3  and  N_4 
REMARK    3  A    between atoms: C_3  and  C_11 
REMARK    4  A    between atoms: N_4  and  C_5 
REMARK       I    between atoms: C_11  and  N_12 
REMARK    5  A    between atoms: N_12  and  N_13 
REMARK    6  A    between atoms: C_14  and  C_15 
ROOT
HETATM    1  C   UNL     1      26.132  44.209  51.461  1.00  0.00     0.255 C 
HETATM    2  N   UNL     1      26.886  44.917  50.530  1.00  0.00    -0.246 N 
HETATM    3  O   UNL     1      24.947  44.391  51.730  1.00  0.00    -0.270 OA
HETATM    4  H   UNL     1      27.836  44.584  50.367  1.00  0.00     0.192 HD
ENDROOT
BRANCH   2   5
HETATM    5  N   UNL     1      26.512  45.985  49.761  1.00  0.00    -0.184 NA
HETATM    6  C   UNL     1      26.514  47.177  50.261  1.00  0.00     0.152 C 
BRANCH   6   7
HETATM    7  C   UNL     1      26.118  48.296  49.425  1.00  0.00     0.011 A 
HETATM    8  C   UNL     1      24.782  48.715  49.124  1.00  0.00     0.004 A 
HETATM    9  C   UNL     1      24.870  49.840  48.302  1.00  0.00     0.043 A 
HETATM   10  C   UNL     1      23.499  48.243  49.479  1.00  0.00     0.014 A 
HETATM   11  C   UNL     1      23.744  50.519  47.821  1.00  0.00     0.030 A 
HETATM   12  N   UNL     1      26.208  50.092  48.104  1.00  0.00    -0.364 N 
HETATM   13  C   UNL     1      22.487  50.031  48.189  1.00  0.00     0.002 A 
HETATM   14  C   UNL     1      22.363  48.911  49.004  1.00  0.00     0.001 A 
HETATM   15  H   UNL     1      26.571  50.852  47.546  1.00  0.00     0.165 HD
HETATM   16  C   UNL     1      26.967  49.172  48.774  1.00  0.00     0.102 A 
ENDBRANCH   6   7
ENDBRANCH   2   5
BRANCH   1  17
HETATM   17  C   UNL     1      26.953  43.088  52.144  1.00  0.00     0.154 C 
BRANCH  17  18
HETATM   18  C   UNL     1      26.776  41.765  51.383  1.00  0.00     0.025 C 
HETATM   19  C   UNL     1      28.090  41.219  50.841  1.00  0.00     0.007 C 
ENDBRANCH  17  18
BRANCH  17  20
HETATM   20  N   UNL     1      28.394  43.484  52.139  1.00  0.00    -0.280 NA
HETATM   21  H   UNL     1      28.499  44.347  51.596  1.00  0.00     0.128 HD
BRANCH  20  22
HETATM   22  C   UNL     1      28.951  43.761  53.405  1.00  0.00     0.009 A 
HETATM   23  C   UNL     1      30.073  43.032  53.810  1.00  0.00     0.023 A 
HETATM   24  C   UNL     1      30.713  43.313  55.019  1.00  0.00     0.002 A 
HETATM   25  C   UNL     1      30.248  44.348  55.827  1.00  0.00     0.000 A 
HETATM   26  C   UNL     1      29.150  45.105  55.420  1.00  0.00     0.002 A 
HETATM   27  C   UNL     1      28.511  44.818  54.211  1.00  0.00     0.023 A 
ENDBRANCH  20  22
ENDBRANCH  17  20
ENDBRANCH   1  17
TORSDOF 6
ENDMDL
MODEL 6
REMARK VINA RESULT:      -8.4      2.754      9.350
REMARK  6 active torsions:
REMARK  status: ('A' for Active; 'I' for Inactive)
REMARK    1  A    between atoms: C_2  and  C_3 
REMARK    2  A    between atoms: C_3  and  N_4 
REMARK    3  A    between atoms: C_3  and  C_11 
REMARK    4  A    between atoms: N_4  and  C_5 
REMARK       I    between atoms: C_11  and  N_12 
REMARK    5  A    between atoms: N_12  and  N_13 
REMARK    6  A    between atoms: C_14  and  C_15 
ROOT
HETATM    1  C   UNL     1      23.530  48.414  49.390  1.00  0.00     0.255 C 
HETATM    2  N   UNL     1      23.776  47.164  49.950  1.00  0.00    -0.246 N 
HETATM    3  O   UNL     1      24.269  49.394  49.440  1.00  0.00    -0.270 OA
HETATM    4  H   UNL     1      23.095  46.432  49.745  1.00  0.00     0.192 HD
ENDROOT
BRANCH   2   5
HETATM    5  N   UNL     1      24.839  46.762  50.712  1.00  0.00    -0.184 NA
HETATM    6  C   UNL     1      24.741  45.714  51.462  1.00  0.00     0.152 C 
BRANCH   6   7
HETATM    7  C   UNL     1      25.885  45.303  52.257  1.00  0.00     0.011 A 
HETATM    8  C   UNL     1      26.477  46.020  53.346  1.00  0.00     0.004 A 
HETATM    9  C   UNL     1      27.536  45.249  53.829  1.00  0.00     0.043 A 
HETATM   10  C   UNL     1      26.207  47.256  53.974  1.00  0.00     0.014 A 
HETATM   11  C   UNL     1      28.336  45.648  54.907  1.00  0.00     0.030 A 
HETATM   12  N   UNL     1      27.592  44.111  53.058  1.00  0.00    -0.364 N 
HETATM   13  C   UNL     1      28.046  46.875  55.510  1.00  0.00     0.002 A 
HETATM   14  C   UNL     1      26.999  47.669  55.052  1.00  0.00     0.001 A 
HETATM   15  H   UNL     1      28.266  43.368  53.181  1.00  0.00     0.165 HD
HETATM   16  C   UNL     1      26.604  44.132  52.111  1.00  0.00     0.102 A 
ENDBRANCH   6   7
ENDBRANCH   2   5
BRANCH   1  17
HETATM   17  C   UNL     1      22.183  48.457  48.629  1.00  0.00     0.154 C 
BRANCH  17  18
HETATM   18  C   UNL     1      21.986  47.159  47.829  1.00  0.00     0.025 C 
HETATM   19  C   UNL     1      20.685  46.448  48.174  1.00  0.00     0.007 C 
ENDBRANCH  17  18
BRANCH  17  20
HETATM   20  N   UNL     1      21.079  48.607  49.625  1.00  0.00    -0.280 NA
HETATM   21  H   UNL     1      21.481  48.605  50.569  1.00  0.00     0.128 HD
BRANCH  20  22
HETATM   22  C   UNL     1      20.335  49.802  49.531  1.00  0.00     0.009 A 
HETATM   23  C   UNL     1      20.773  50.787  48.640  1.00  0.00     0.023 A 
HETATM   24  C   UNL     1      20.036  51.958  48.450  1.00  0.00     0.002 A 
HETATM   25  C   UNL     1      18.837  52.144  49.132  1.00  0.00     0.000 A 
HETATM   26  C   UNL     1      18.373  51.156  49.999  1.00  0.00     0.002 A 
HETATM   27  C   UNL     1      19.114  49.987  50.189  1.00  0.00     0.023 A 
ENDBRANCH  20  22
ENDBRANCH  17  20
ENDBRANCH   1  17
TORSDOF 6
ENDMDL
MODEL 7
REMARK VINA RESULT:      -8.3      1.845      9.224
REMARK  6 active torsions:
REMARK  status: ('A' for Active; 'I' for Inactive)
REMARK    1  A    between atoms: C_2  and  C_3 
REMARK    2  A    between atoms: C_3  and  N_4 
REMARK    3  A    between atoms: C_3  and  C_11 
REMARK    4  A    between atoms: N_4  and  C_5 
REMARK       I    between atoms: C_11  and  N_12 
REMARK    5  A    between atoms: N_12  and  N_13 
REMARK    6  A    between atoms: C_14  and  C_15 
ROOT
HETATM    1  C   UNL     1      25.795  47.279  50.505  1.00  0.00     0.255 C 
HETATM    2  N   UNL     1      25.597  46.951  51.843  1.00  0.00    -0.246 N 
HETATM    3  O   UNL     1      26.865  47.568  49.976  1.00  0.00    -0.270 OA
HETATM    4  H   UNL     1      24.657  46.655  52.104  1.00  0.00     0.192 HD
ENDROOT
BRANCH   2   5
HETATM    5  N   UNL     1      26.510  46.929  52.862  1.00  0.00    -0.184 NA
HETATM    6  C   UNL     1      26.719  45.837  53.523  1.00  0.00     0.152 C 
BRANCH   6   7
HETATM    7  C   UNL     1      27.697  45.836  54.596  1.00  0.00     0.011 A 
HETATM    8  C   UNL     1      28.766  44.901  54.784  1.00  0.00     0.004 A 
HETATM    9  C   UNL     1      29.466  45.290  55.927  1.00  0.00     0.043 A 
HETATM   10  C   UNL     1      29.210  43.758  54.083  1.00  0.00     0.014 A 
HETATM   11  C   UNL     1      30.587  44.599  56.403  1.00  0.00     0.030 A 
HETATM   12  N   UNL     1      28.843  46.413  56.420  1.00  0.00    -0.364 N 
HETATM   13  C   UNL     1      31.004  43.472  55.689  1.00  0.00     0.002 A 
HETATM   14  C   UNL     1      30.328  43.055  54.547  1.00  0.00     0.001 A 
HETATM   15  H   UNL     1      29.136  46.914  57.248  1.00  0.00     0.165 HD
HETATM   16  C   UNL     1      27.780  46.751  55.629  1.00  0.00     0.102 A 
ENDBRANCH   6   7
ENDBRANCH   2   5
BRANCH   1  17
HETATM   17  C   UNL     1      24.481  47.215  49.689  1.00  0.00     0.154 C 
BRANCH  17  18
HETATM   18  C   UNL     1      23.878  45.803  49.770  1.00  0.00     0.025 C 
HETATM   19  C   UNL     1      24.646  44.788  48.933  1.00  0.00     0.007 C 
ENDBRANCH  17  18
BRANCH  17  20
HETATM   20  N   UNL     1      23.520  48.207  50.258  1.00  0.00    -0.280 NA
HETATM   21  H   UNL     1      24.039  48.883  50.827  1.00  0.00     0.128 HD
BRANCH  20  22
HETATM   22  C   UNL     1      22.808  48.974  49.311  1.00  0.00     0.009 A 
HETATM   23  C   UNL     1      21.452  48.693  49.114  1.00  0.00     0.023 A 
HETATM   24  C   UNL     1      20.680  49.466  48.245  1.00  0.00     0.002 A 
HETATM   25  C   UNL     1      21.252  50.548  47.582  1.00  0.00     0.000 A 
HETATM   26  C   UNL     1      22.594  50.859  47.794  1.00  0.00     0.002 A 
HETATM   27  C   UNL     1      23.365  50.081  48.662  1.00  0.00     0.023 A 
ENDBRANCH  20  22
ENDBRANCH  17  20
ENDBRANCH   1  17
TORSDOF 6
ENDMDL
MODEL 8
REMARK VINA RESULT:      -8.2      2.194      3.076
REMARK  6 active torsions:
REMARK  status: ('A' for Active; 'I' for Inactive)
REMARK    1  A    between atoms: C_2  and  C_3 
REMARK    2  A    between atoms: C_3  and  N_4 
REMARK    3  A    between atoms: C_3  and  C_11 
REMARK    4  A    between atoms: N_4  and  C_5 
REMARK       I    between atoms: C_11  and  N_12 
REMARK    5  A    between atoms: N_12  and  N_13 
REMARK    6  A    between atoms: C_14  and  C_15 
ROOT
HETATM    1  C   UNL     1      27.042  44.317  53.606  1.00  0.00     0.255 C 
HETATM    2  N   UNL     1      26.010  43.630  52.975  1.00  0.00    -0.246 N 
HETATM    3  O   UNL     1      27.203  45.535  53.624  1.00  0.00    -0.270 OA
HETATM    4  H   UNL     1      25.975  42.622  53.127  1.00  0.00     0.192 HD
ENDROOT
BRANCH   2   5
HETATM    5  N   UNL     1      24.996  44.130  52.203  1.00  0.00    -0.184 NA
HETATM    6  C   UNL     1      25.231  44.509  50.990  1.00  0.00     0.152 C 
BRANCH   6   7
HETATM    7  C   UNL     1      24.139  45.031  50.188  1.00  0.00     0.011 A 
HETATM    8  C   UNL     1      24.000  46.366  49.687  1.00  0.00     0.004 A 
HETATM    9  C   UNL     1      22.813  46.417  48.954  1.00  0.00     0.043 A 
HETATM   10  C   UNL     1      24.779  47.540  49.785  1.00  0.00     0.014 A 
HETATM   11  C   UNL     1      22.367  47.579  48.312  1.00  0.00     0.030 A 
HETATM   12  N   UNL     1      22.248  45.165  49.012  1.00  0.00    -0.364 N 
HETATM   13  C   UNL     1      23.158  48.726  48.425  1.00  0.00     0.002 A 
HETATM   14  C   UNL     1      24.346  48.710  49.150  1.00  0.00     0.001 A 
HETATM   15  H   UNL     1      21.376  44.909  48.569  1.00  0.00     0.165 HD
HETATM   16  C   UNL     1      23.035  44.324  49.750  1.00  0.00     0.102 A 
ENDBRANCH   6   7
ENDBRANCH   2   5
BRANCH   1  17
HETATM   17  C   UNL     1      28.007  43.364  54.352  1.00  0.00     0.154 C 
BRANCH  17  18
HETATM   18  C   UNL     1      27.942  41.958  53.734  1.00  0.00     0.025 C 
HETATM   19  C   UNL     1      29.163  41.633  52.884  1.00  0.00     0.007 C 
ENDBRANCH  17  18
BRANCH  17  20
HETATM   20  N   UNL     1      29.395  43.904  54.232  1.00  0.00    -0.280 NA
HETATM   21  H   UNL     1      29.357  44.816  53.766  1.00  0.00     0.128 HD
BRANCH  20  22
HETATM   22  C   UNL     1      30.066  44.127  55.453  1.00  0.00     0.009 A 
HETATM   23  C   UNL     1      29.777  45.296  56.164  1.00  0.00     0.023 A 
HETATM   24  C   UNL     1      30.354  45.535  57.414  1.00  0.00     0.002 A 
HETATM   25  C   UNL     1      31.210  44.591  57.976  1.00  0.00     0.000 A 
HETATM   26  C   UNL     1      31.482  43.408  57.292  1.00  0.00     0.002 A 
HETATM   27  C   UNL     1      30.905  43.174  56.041  1.00  0.00     0.023 A 
ENDBRANCH  20  22
ENDBRANCH  17  20
ENDBRANCH   1  17
TORSDOF 6
ENDMDL
MODEL 9
REMARK VINA RESULT:      -8.1      1.976      9.093
REMARK  6 active torsions:
REMARK  status: ('A' for Active; 'I' for Inactive)
REMARK    1  A    between atoms: C_2  and  C_3 
REMARK    2  A    between atoms: C_3  and  N_4 
REMARK    3  A    between atoms: C_3  and  C_11 
REMARK    4  A    between atoms: N_4  and  C_5 
REMARK       I    between atoms: C_11  and  N_12 
REMARK    5  A    between atoms: N_12  and  N_13 
REMARK    6  A    between atoms: C_14  and  C_15 
ROOT
HETATM    1  C   UNL     1      25.730  46.664  50.579  1.00  0.00     0.255 C 
HETATM    2  N   UNL     1      26.301  45.408  50.396  1.00  0.00    -0.246 N 
HETATM    3  O   UNL     1      26.126  47.541  51.342  1.00  0.00    -0.270 OA
HETATM    4  H   UNL     1      25.897  44.827  49.662  1.00  0.00     0.192 HD
ENDROOT
BRANCH   2   5
HETATM    5  N   UNL     1      27.372  44.853  51.043  1.00  0.00    -0.184 NA
HETATM    6  C   UNL     1      27.206  44.259  52.180  1.00  0.00     0.152 C 
BRANCH   6   7
HETATM    7  C   UNL     1      28.356  43.672  52.845  1.00  0.00     0.011 A 
HETATM    8  C   UNL     1      28.991  44.142  54.040  1.00  0.00     0.004 A 
HETATM    9  C   UNL     1      30.039  43.268  54.329  1.00  0.00     0.043 A 
HETATM   10  C   UNL     1      28.768  45.233  54.910  1.00  0.00     0.014 A 
HETATM   11  C   UNL     1      30.873  43.424  55.443  1.00  0.00     0.030 A 
HETATM   12  N   UNL     1      30.047  42.307  53.345  1.00  0.00    -0.364 N 
HETATM   13  C   UNL     1      30.629  44.511  56.287  1.00  0.00     0.002 A 
HETATM   14  C   UNL     1      29.594  45.403  56.027  1.00  0.00     0.001 A 
HETATM   15  H   UNL     1      30.704  41.540  53.298  1.00  0.00     0.165 HD
HETATM   16  C   UNL     1      29.040  42.539  52.448  1.00  0.00     0.102 A 
ENDBRANCH   6   7
ENDBRANCH   2   5
BRANCH   1  17
HETATM   17  C   UNL     1      24.500  46.883  49.665  1.00  0.00     0.154 C 
BRANCH  17  18
HETATM   18  C   UNL     1      23.715  45.570  49.512  1.00  0.00     0.025 C 
HETATM   19  C   UNL     1      22.694  45.625  48.384  1.00  0.00     0.007 C 
ENDBRANCH  17  18
BRANCH  17  20
HETATM   20  N   UNL     1      23.626  47.924  50.287  1.00  0.00    -0.280 NA
HETATM   21  H   UNL     1      24.126  48.350  51.074  1.00  0.00     0.128 HD
BRANCH  20  22
HETATM   22  C   UNL     1      23.262  48.994  49.442  1.00  0.00     0.009 A 
HETATM   23  C   UNL     1      24.258  49.593  48.664  1.00  0.00     0.023 A 
HETATM   24  C   UNL     1      23.944  50.605  47.755  1.00  0.00     0.002 A 
HETATM   25  C   UNL     1      22.622  51.013  47.597  1.00  0.00     0.000 A 
HETATM   26  C   UNL     1      21.615  50.402  48.343  1.00  0.00     0.002 A 
HETATM   27  C   UNL     1      21.934  49.391  49.254  1.00  0.00     0.023 A 
ENDBRANCH  20  22
ENDBRANCH  17  20
ENDBRANCH   1  17
TORSDOF 6
ENDMDL
MODEL 10
REMARK VINA RESULT:      -7.8      2.592      9.792
REMARK  6 active torsions:
REMARK  status: ('A' for Active; 'I' for Inactive)
REMARK    1  A    between atoms: C_2  and  C_3 
REMARK    2  A    between atoms: C_3  and  N_4 
REMARK    3  A    between atoms: C_3  and  C_11 
REMARK    4  A    between atoms: N_4  and  C_5 
REMARK       I    between atoms: C_11  and  N_12 
REMARK    5  A    between atoms: N_12  and  N_13 
REMARK    6  A    between atoms: C_14  and  C_15 
ROOT
HETATM    1  C   UNL     1      23.532  47.578  49.482  1.00  0.00     0.255 C 
HETATM    2  N   UNL     1      24.422  47.530  50.551  1.00  0.00    -0.246 N 
HETATM    3  O   UNL     1      23.267  46.659  48.712  1.00  0.00    -0.270 OA
HETATM    4  H   UNL     1      24.465  48.358  51.145  1.00  0.00     0.192 HD
ENDROOT
BRANCH   2   5
HETATM    5  N   UNL     1      25.226  46.496  50.948  1.00  0.00    -0.184 NA
HETATM    6  C   UNL     1      25.123  46.016  52.144  1.00  0.00     0.152 C 
BRANCH   6   7
HETATM    7  C   UNL     1      25.983  44.915  52.541  1.00  0.00     0.011 A 
HETATM    8  C   UNL     1      27.081  44.969  53.459  1.00  0.00     0.004 A 
HETATM    9  C   UNL     1      27.609  43.680  53.556  1.00  0.00     0.043 A 
HETATM   10  C   UNL     1      27.674  45.996  54.225  1.00  0.00     0.014 A 
HETATM   11  C   UNL     1      28.696  43.366  54.381  1.00  0.00     0.030 A 
HETATM   12  N   UNL     1      26.867  42.875  52.724  1.00  0.00    -0.364 N 
HETATM   13  C   UNL     1      29.263  44.402  55.129  1.00  0.00     0.002 A 
HETATM   14  C   UNL     1      28.763  45.698  55.053  1.00  0.00     0.001 A 
HETATM   15  H   UNL     1      27.026  41.886  52.592  1.00  0.00     0.165 HD
HETATM   16  C   UNL     1      25.887  43.606  52.109  1.00  0.00     0.102 A 
ENDBRANCH   6   7
ENDBRANCH   2   5
BRANCH   1  17
HETATM   17  C   UNL     1      22.843  48.959  49.360  1.00  0.00     0.154 C 
BRANCH  17  18
HETATM   18  C   UNL     1      23.241  49.632  48.036  1.00  0.00     0.025 C 
HETATM   19  C   UNL     1      24.707  50.040  48.002  1.00  0.00     0.007 C 
ENDBRANCH  17  18
BRANCH  17  20
HETATM   20  N   UNL     1      21.363  48.757  49.398  1.00  0.00    -0.280 NA
HETATM   21  H   UNL     1      21.072  48.620  50.372  1.00  0.00     0.128 HD
BRANCH  20  22
HETATM   22  C   UNL     1      20.591  49.837  48.919  1.00  0.00     0.009 A 
HETATM   23  C   UNL     1      19.947  49.695  47.686  1.00  0.00     0.023 A 
HETATM   24  C   UNL     1      19.110  50.700  47.196  1.00  0.00     0.002 A 
HETATM   25  C   UNL     1      18.888  51.849  47.950  1.00  0.00     0.000 A 
HETATM   26  C   UNL     1      19.498  51.989  49.195  1.00  0.00     0.002 A 
HETATM   27  C   UNL     1      20.338  50.983  49.681  1.00  0.00     0.023 A 
ENDBRANCH  20  22
ENDBRANCH  17  20
ENDBRANCH   1  17
TORSDOF 6
ENDMDL
