MODEL 1
REMARK VINA RESULT:      -9.1      0.000      0.000
REMARK  5 active torsions:
REMARK  status: ('A' for Active; 'I' for Inactive)
REMARK    1  A    between atoms: C_9  and  C_10 
REMARK       I    between atoms: C_10  and  N_11 
REMARK    2  A    between atoms: N_11  and  C_12 
REMARK    3  A    between atoms: C_12  and  C_13 
REMARK    4  A    between atoms: C_12  and  C_16 
REMARK    5  A    between atoms: C_19  and  O_20 
ROOT
HETATM    1  C   UNL     1      26.872  44.138  50.503  1.00  0.00     0.273 C 
HETATM    2  N   UNL     1      27.304  44.109  51.807  1.00  0.00    -0.346 N 
HETATM    3  O   UNL     1      27.372  43.478  49.599  1.00  0.00    -0.266 OA
HETATM    4  H   UNL     1      26.752  44.660  52.453  1.00  0.00     0.163 HD
ENDROOT
BRANCH   2   5
HETATM    5  C   UNL     1      28.346  43.239  52.295  1.00  0.00     0.122 C 
BRANCH   5   6
HETATM    6  C   UNL     1      27.849  41.826  52.514  1.00  0.00     0.013 A 
HETATM    7  C   UNL     1      28.019  40.718  51.498  1.00  0.00     0.007 A 
HETATM    8  C   UNL     1      28.780  40.667  52.795  1.00  0.00     0.007 A 
ENDBRANCH   5   6
BRANCH   5   9
HETATM    9  C   UNL     1      28.966  43.760  53.584  1.00  0.00    -0.035 A 
HETATM   10  C   UNL     1      28.377  44.852  54.240  1.00  0.00     0.012 A 
HETATM   11  C   UNL     1      28.938  45.369  55.412  1.00  0.00     0.037 A 
HETATM   12  C   UNL     1      30.091  44.807  55.959  1.00  0.00     0.068 A 
HETATM   13  C   UNL     1      30.695  43.733  55.309  1.00  0.00     0.037 A 
HETATM   14  C   UNL     1      30.141  43.219  54.129  1.00  0.00     0.012 A 
BRANCH  12  15
HETATM   15  O   UNL     1      30.529  45.400  57.111  1.00  0.00    -0.356 OA
HETATM   16  C   UNL     1      29.534  45.965  57.955  1.00  0.00     0.210 C 
ENDBRANCH  12  15
ENDBRANCH   5   9
ENDBRANCH   2   5
BRANCH   1  17
HETATM   17  C   UNL     1      25.723  45.040  50.312  1.00  0.00     0.157 A 
HETATM   18  C   UNL     1      25.750  46.407  49.906  1.00  0.00     0.029 A 
HETATM   19  C   UNL     1      26.744  47.348  49.570  1.00  0.00     0.023 A 
HETATM   20  C   UNL     1      24.418  46.800  49.868  1.00  0.00     0.063 A 
HETATM   21  C   UNL     1      26.369  48.651  49.201  1.00  0.00    -0.061 A 
HETATM   22  C   UNL     1      27.410  49.670  48.842  1.00  0.00     0.048 C 
HETATM   23  C   UNL     1      25.013  49.004  49.178  1.00  0.00     0.009 A 
HETATM   24  C   UNL     1      24.010  48.087  49.510  1.00  0.00     0.032 A 
HETATM   25  N   UNL     1      23.705  45.693  50.236  1.00  0.00    -0.277 N 
HETATM   26  H   UNL     1      22.698  45.614  50.319  1.00  0.00     0.189 HD
HETATM   27  N   UNL     1      24.454  44.610  50.507  1.00  0.00    -0.168 NA
ENDBRANCH   1  17
TORSDOF 5
ENDMDL
MODEL 2
REMARK VINA RESULT:      -8.9      2.705      7.567
REMARK  5 active torsions:
REMARK  status: ('A' for Active; 'I' for Inactive)
REMARK    1  A    between atoms: C_9  and  C_10 
REMARK       I    between atoms: C_10  and  N_11 
REMARK    2  A    between atoms: N_11  and  C_12 
REMARK    3  A    between atoms: C_12  and  C_13 
REMARK    4  A    between atoms: C_12  and  C_16 
REMARK    5  A    between atoms: C_19  and  O_20 
ROOT
HETATM    1  C   UNL     1      25.793  45.757  53.196  1.00  0.00     0.273 C 
HETATM    2  N   UNL     1      26.163  46.364  52.020  1.00  0.00    -0.346 N 
HETATM    3  O   UNL     1      24.898  44.924  53.286  1.00  0.00    -0.266 OA
HETATM    4  H   UNL     1      26.961  46.984  52.091  1.00  0.00     0.163 HD
ENDROOT
BRANCH   2   5
HETATM    5  C   UNL     1      25.602  46.040  50.731  1.00  0.00     0.122 C 
BRANCH   5   6
HETATM    6  C   UNL     1      26.522  45.152  49.919  1.00  0.00     0.013 A 
HETATM    7  C   UNL     1      27.152  43.889  50.463  1.00  0.00     0.007 A 
HETATM    8  C   UNL     1      26.096  43.799  49.394  1.00  0.00     0.007 A 
ENDBRANCH   5   6
BRANCH   5   9
HETATM    9  C   UNL     1      25.268  47.288  49.925  1.00  0.00    -0.035 A 
HETATM   10  C   UNL     1      23.944  47.513  49.520  1.00  0.00     0.012 A 
HETATM   11  C   UNL     1      23.610  48.637  48.758  1.00  0.00     0.037 A 
HETATM   12  C   UNL     1      24.586  49.563  48.389  1.00  0.00     0.068 A 
HETATM   13  C   UNL     1      25.907  49.343  48.770  1.00  0.00     0.037 A 
HETATM   14  C   UNL     1      26.246  48.213  49.525  1.00  0.00     0.012 A 
BRANCH  12  15
HETATM   15  O   UNL     1      24.125  50.620  47.654  1.00  0.00    -0.356 OA
HETATM   16  C   UNL     1      22.910  51.218  48.088  1.00  0.00     0.210 C 
ENDBRANCH  12  15
ENDBRANCH   5   9
ENDBRANCH   2   5
BRANCH   1  17
HETATM   17  C   UNL     1      26.605  46.205  54.339  1.00  0.00     0.157 A 
HETATM   18  C   UNL     1      27.810  45.620  54.831  1.00  0.00     0.029 A 
HETATM   19  C   UNL     1      28.619  44.517  54.488  1.00  0.00     0.023 A 
HETATM   20  C   UNL     1      28.184  46.413  55.908  1.00  0.00     0.063 A 
HETATM   21  C   UNL     1      29.778  44.250  55.234  1.00  0.00    -0.061 A 
HETATM   22  C   UNL     1      30.653  43.080  54.889  1.00  0.00     0.048 C 
HETATM   23  C   UNL     1      30.117  45.075  56.315  1.00  0.00     0.009 A 
HETATM   24  C   UNL     1      29.328  46.173  56.674  1.00  0.00     0.032 A 
HETATM   25  N   UNL     1      27.224  47.382  55.994  1.00  0.00    -0.277 N 
HETATM   26  H   UNL     1      27.175  48.137  56.668  1.00  0.00     0.189 HD
HETATM   27  N   UNL     1      26.257  47.295  55.063  1.00  0.00    -0.168 NA
ENDBRANCH   1  17
TORSDOF 5
ENDMDL
MODEL 3
REMARK VINA RESULT:      -8.4      2.321      7.361
REMARK  5 active torsions:
REMARK  status: ('A' for Active; 'I' for Inactive)
REMARK    1  A    between atoms: C_9  and  C_10 
REMARK       I    between atoms: C_10  and  N_11 
REMARK    2  A    between atoms: N_11  and  C_12 
REMARK    3  A    between atoms: C_12  and  C_13 
REMARK    4  A    between atoms: C_12  and  C_16 
REMARK    5  A    between atoms: C_19  and  O_20 
ROOT
HETATM    1  C   UNL     1      25.892  44.069  52.643  1.00  0.00     0.273 C 
HETATM    2  N   UNL     1      25.751  44.496  51.345  1.00  0.00    -0.346 N 
HETATM    3  O   UNL     1      25.010  44.145  53.491  1.00  0.00    -0.266 OA
HETATM    4  H   UNL     1      26.546  44.310  50.745  1.00  0.00     0.163 HD
ENDROOT
BRANCH   2   5
HETATM    5  C   UNL     1      24.523  45.012  50.792  1.00  0.00     0.122 C 
BRANCH   5   6
HETATM    6  C   UNL     1      23.930  44.079  49.758  1.00  0.00     0.013 A 
HETATM    7  C   UNL     1      23.239  42.779  50.109  1.00  0.00     0.007 A 
HETATM    8  C   UNL     1      22.439  43.926  49.554  1.00  0.00     0.007 A 
ENDBRANCH   5   6
BRANCH   5   9
HETATM    9  C   UNL     1      24.710  46.391  50.176  1.00  0.00    -0.035 A 
HETATM   10  C   UNL     1      23.605  47.056  49.623  1.00  0.00     0.012 A 
HETATM   11  C   UNL     1      23.751  48.313  49.028  1.00  0.00     0.037 A 
HETATM   12  C   UNL     1      24.997  48.937  48.975  1.00  0.00     0.068 A 
HETATM   13  C   UNL     1      26.106  48.280  49.505  1.00  0.00     0.037 A 
HETATM   14  C   UNL     1      25.965  47.017  50.093  1.00  0.00     0.012 A 
BRANCH  12  15
HETATM   15  O   UNL     1      25.000  50.166  48.376  1.00  0.00    -0.356 OA
HETATM   16  C   UNL     1      23.753  50.636  47.880  1.00  0.00     0.210 C 
ENDBRANCH  12  15
ENDBRANCH   5   9
ENDBRANCH   2   5
BRANCH   1  17
HETATM   17  C   UNL     1      27.221  43.490  52.903  1.00  0.00     0.157 A 
HETATM   18  C   UNL     1      28.163  43.888  53.898  1.00  0.00     0.029 A 
HETATM   19  C   UNL     1      28.220  44.868  54.909  1.00  0.00     0.023 A 
HETATM   20  C   UNL     1      29.244  43.031  53.736  1.00  0.00     0.063 A 
HETATM   21  C   UNL     1      29.359  44.953  55.728  1.00  0.00    -0.061 A 
HETATM   22  C   UNL     1      29.443  45.991  56.809  1.00  0.00     0.048 C 
HETATM   23  C   UNL     1      30.428  44.070  55.528  1.00  0.00     0.009 A 
HETATM   24  C   UNL     1      30.393  43.090  54.529  1.00  0.00     0.032 A 
HETATM   25  N   UNL     1      28.901  42.208  52.700  1.00  0.00    -0.277 N 
HETATM   26  H   UNL     1      29.455  41.457  52.306  1.00  0.00     0.189 HD
HETATM   27  N   UNL     1      27.687  42.449  52.173  1.00  0.00    -0.168 NA
ENDBRANCH   1  17
TORSDOF 5
ENDMDL
MODEL 4
REMARK VINA RESULT:      -8.3      3.707      6.462
REMARK  5 active torsions:
REMARK  status: ('A' for Active; 'I' for Inactive)
REMARK    1  A    between atoms: C_9  and  C_10 
REMARK       I    between atoms: C_10  and  N_11 
REMARK    2  A    between atoms: N_11  and  C_12 
REMARK    3  A    between atoms: C_12  and  C_13 
REMARK    4  A    between atoms: C_12  and  C_16 
REMARK    5  A    between atoms: C_19  and  O_20 
ROOT
HETATM    1  C   UNL     1      23.457  49.115  49.049  1.00  0.00     0.273 C 
HETATM    2  N   UNL     1      24.362  48.088  49.174  1.00  0.00    -0.346 N 
HETATM    3  O   UNL     1      23.618  50.235  49.521  1.00  0.00    -0.266 OA
HETATM    4  H   UNL     1      24.118  47.241  48.676  1.00  0.00     0.163 HD
ENDROOT
BRANCH   2   5
HETATM    5  C   UNL     1      25.652  48.220  49.805  1.00  0.00     0.122 C 
BRANCH   5   6
HETATM    6  C   UNL     1      26.721  48.656  48.826  1.00  0.00     0.013 A 
HETATM    7  C   UNL     1      27.037  50.106  48.530  1.00  0.00     0.007 A 
HETATM    8  C   UNL     1      28.037  49.257  49.268  1.00  0.00     0.007 A 
ENDBRANCH   5   6
BRANCH   5   9
HETATM    9  C   UNL     1      26.088  46.929  50.484  1.00  0.00    -0.035 A 
HETATM   10  C   UNL     1      25.994  46.818  51.880  1.00  0.00     0.012 A 
HETATM   11  C   UNL     1      26.411  45.655  52.534  1.00  0.00     0.037 A 
HETATM   12  C   UNL     1      26.922  44.576  51.814  1.00  0.00     0.068 A 
HETATM   13  C   UNL     1      27.036  44.679  50.429  1.00  0.00     0.037 A 
HETATM   14  C   UNL     1      26.629  45.847  49.771  1.00  0.00     0.012 A 
BRANCH  12  15
HETATM   15  O   UNL     1      27.282  43.497  52.572  1.00  0.00    -0.356 OA
HETATM   16  C   UNL     1      26.910  43.529  53.945  1.00  0.00     0.210 C 
ENDBRANCH  12  15
ENDBRANCH   5   9
ENDBRANCH   2   5
BRANCH   1  17
HETATM   17  C   UNL     1      22.272  48.727  48.265  1.00  0.00     0.157 A 
HETATM   18  C   UNL     1      21.099  49.502  48.022  1.00  0.00     0.029 A 
HETATM   19  C   UNL     1      20.634  50.783  48.382  1.00  0.00     0.023 A 
HETATM   20  C   UNL     1      20.291  48.697  47.228  1.00  0.00     0.063 A 
HETATM   21  C   UNL     1      19.377  51.217  47.930  1.00  0.00    -0.061 A 
HETATM   22  C   UNL     1      18.861  52.576  48.304  1.00  0.00     0.048 C 
HETATM   23  C   UNL     1      18.594  50.371  47.133  1.00  0.00     0.009 A 
HETATM   24  C   UNL     1      19.035  49.094  46.765  1.00  0.00     0.032 A 
HETATM   25  N   UNL     1      20.997  47.540  47.051  1.00  0.00    -0.277 N 
HETATM   26  H   UNL     1      20.712  46.724  46.522  1.00  0.00     0.189 HD
HETATM   27  N   UNL     1      22.198  47.520  47.656  1.00  0.00    -0.168 NA
ENDBRANCH   1  17
TORSDOF 5
ENDMDL
MODEL 5
REMARK VINA RESULT:      -8.3      2.595      6.031
REMARK  5 active torsions:
REMARK  status: ('A' for Active; 'I' for Inactive)
REMARK    1  A    between atoms: C_9  and  C_10 
REMARK       I    between atoms: C_10  and  N_11 
REMARK    2  A    between atoms: N_11  and  C_12 
REMARK    3  A    between atoms: C_12  and  C_13 
REMARK    4  A    between atoms: C_12  and  C_16 
REMARK    5  A    between atoms: C_19  and  O_20 
ROOT
HETATM    1  C   UNL     1      26.697  42.121  50.816  1.00  0.00     0.273 C 
HETATM    2  N   UNL     1      27.572  42.922  51.510  1.00  0.00    -0.346 N 
HETATM    3  O   UNL     1      25.509  42.001  51.092  1.00  0.00    -0.266 OA
HETATM    4  H   UNL     1      28.508  42.967  51.125  1.00  0.00     0.163 HD
ENDROOT
BRANCH   2   5
HETATM    5  C   UNL     1      27.188  43.785  52.600  1.00  0.00     0.122 C 
BRANCH   5   6
HETATM    6  C   UNL     1      26.805  45.169  52.121  1.00  0.00     0.013 A 
HETATM    7  C   UNL     1      25.507  45.472  51.405  1.00  0.00     0.007 A 
HETATM    8  C   UNL     1      25.737  46.001  52.795  1.00  0.00     0.007 A 
ENDBRANCH   5   6
BRANCH   5   9
HETATM    9  C   UNL     1      28.285  43.901  53.649  1.00  0.00    -0.035 A 
HETATM   10  C   UNL     1      28.260  44.970  54.557  1.00  0.00     0.012 A 
HETATM   11  C   UNL     1      29.268  45.118  55.515  1.00  0.00     0.037 A 
HETATM   12  C   UNL     1      30.316  44.201  55.594  1.00  0.00     0.068 A 
HETATM   13  C   UNL     1      30.362  43.144  54.688  1.00  0.00     0.037 A 
HETATM   14  C   UNL     1      29.359  42.999  53.721  1.00  0.00     0.012 A 
BRANCH  12  15
HETATM   15  O   UNL     1      31.228  44.455  56.581  1.00  0.00    -0.356 OA
HETATM   16  C   UNL     1      31.816  43.324  57.212  1.00  0.00     0.210 C 
ENDBRANCH  12  15
ENDBRANCH   5   9
ENDBRANCH   2   5
BRANCH   1  17
HETATM   17  C   UNL     1      27.343  41.433  49.685  1.00  0.00     0.157 A 
HETATM   18  C   UNL     1      28.151  40.258  49.730  1.00  0.00     0.029 A 
HETATM   19  C   UNL     1      28.617  39.382  50.731  1.00  0.00     0.023 A 
HETATM   20  C   UNL     1      28.506  40.012  48.410  1.00  0.00     0.063 A 
HETATM   21  C   UNL     1      29.420  38.286  50.375  1.00  0.00    -0.061 A 
HETATM   22  C   UNL     1      29.931  37.343  51.425  1.00  0.00     0.048 C 
HETATM   23  C   UNL     1      29.756  38.078  49.031  1.00  0.00     0.009 A 
HETATM   24  C   UNL     1      29.306  38.936  48.020  1.00  0.00     0.032 A 
HETATM   25  N   UNL     1      27.916  41.011  47.685  1.00  0.00    -0.277 N 
HETATM   26  H   UNL     1      27.962  41.148  46.683  1.00  0.00     0.189 HD
HETATM   27  N   UNL     1      27.202  41.884  48.416  1.00  0.00    -0.168 NA
ENDBRANCH   1  17
TORSDOF 5
ENDMDL
MODEL 6
REMARK VINA RESULT:      -7.9      2.920      6.347
REMARK  5 active torsions:
REMARK  status: ('A' for Active; 'I' for Inactive)
REMARK    1  A    between atoms: C_9  and  C_10 
REMARK       I    between atoms: C_10  and  N_11 
REMARK    2  A    between atoms: N_11  and  C_12 
REMARK    3  A    between atoms: C_12  and  C_13 
REMARK    4  A    between atoms: C_12  and  C_16 
REMARK    5  A    between atoms: C_19  and  O_20 
ROOT
HETATM    1  C   UNL     1      25.711  45.778  51.687  1.00  0.00     0.273 C 
HETATM    2  N   UNL     1      25.975  44.440  51.512  1.00  0.00    -0.346 N 
HETATM    3  O   UNL     1      25.110  46.471  50.874  1.00  0.00    -0.266 OA
HETATM    4  H   UNL     1      26.425  43.987  52.298  1.00  0.00     0.163 HD
ENDROOT
BRANCH   2   5
HETATM    5  C   UNL     1      25.508  43.664  50.390  1.00  0.00     0.122 C 
BRANCH   5   6
HETATM    6  C   UNL     1      24.105  43.138  50.609  1.00  0.00     0.013 A 
HETATM    7  C   UNL     1      22.869  43.807  50.048  1.00  0.00     0.007 A 
HETATM    8  C   UNL     1      23.304  42.468  49.514  1.00  0.00     0.007 A 
ENDBRANCH   5   6
BRANCH   5   9
HETATM    9  C   UNL     1      26.438  42.500  50.076  1.00  0.00    -0.035 A 
HETATM   10  C   UNL     1      26.996  41.760  51.129  1.00  0.00     0.012 A 
HETATM   11  C   UNL     1      27.874  40.702  50.873  1.00  0.00     0.037 A 
HETATM   12  C   UNL     1      28.209  40.355  49.565  1.00  0.00     0.068 A 
HETATM   13  C   UNL     1      27.676  41.093  48.510  1.00  0.00     0.037 A 
HETATM   14  C   UNL     1      26.804  42.159  48.764  1.00  0.00     0.012 A 
BRANCH  12  15
HETATM   15  O   UNL     1      29.068  39.297  49.453  1.00  0.00    -0.356 OA
HETATM   16  C   UNL     1      29.289  38.527  50.628  1.00  0.00     0.210 C 
ENDBRANCH  12  15
ENDBRANCH   5   9
ENDBRANCH   2   5
BRANCH   1  17
HETATM   17  C   UNL     1      26.217  46.286  52.973  1.00  0.00     0.157 A 
HETATM   18  C   UNL     1      27.253  45.731  53.781  1.00  0.00     0.029 A 
HETATM   19  C   UNL     1      28.110  44.614  53.708  1.00  0.00     0.023 A 
HETATM   20  C   UNL     1      27.355  46.580  54.875  1.00  0.00     0.063 A 
HETATM   21  C   UNL     1      29.043  44.388  54.734  1.00  0.00    -0.061 A 
HETATM   22  C   UNL     1      29.963  43.203  54.679  1.00  0.00     0.048 C 
HETATM   23  C   UNL     1      29.109  45.270  55.821  1.00  0.00     0.009 A 
HETATM   24  C   UNL     1      28.267  46.384  55.914  1.00  0.00     0.032 A 
HETATM   25  N   UNL     1      26.414  47.551  54.667  1.00  0.00    -0.277 N 
HETATM   26  H   UNL     1      26.207  48.340  55.268  1.00  0.00     0.189 HD
HETATM   27  N   UNL     1      25.711  47.412  53.529  1.00  0.00    -0.168 NA
ENDBRANCH   1  17
TORSDOF 5
ENDMDL
MODEL 7
REMARK VINA RESULT:      -7.9     15.989     17.834
REMARK  5 active torsions:
REMARK  status: ('A' for Active; 'I' for Inactive)
REMARK    1  A    between atoms: C_9  and  C_10 
REMARK       I    between atoms: C_10  and  N_11 
REMARK    2  A    between atoms: N_11  and  C_12 
REMARK    3  A    between atoms: C_12  and  C_13 
REMARK    4  A    between atoms: C_12  and  C_16 
REMARK    5  A    between atoms: C_19  and  O_20 
ROOT
HETATM    1  C   UNL     1      37.270  45.349  64.406  1.00  0.00     0.273 C 
HETATM    2  N   UNL     1      37.511  44.094  64.911  1.00  0.00    -0.346 N 
HETATM    3  O   UNL     1      36.456  45.590  63.521  1.00  0.00    -0.266 OA
HETATM    4  H   UNL     1      38.165  44.062  65.683  1.00  0.00     0.163 HD
ENDROOT
BRANCH   2   5
HETATM    5  C   UNL     1      36.780  42.913  64.523  1.00  0.00     0.122 C 
BRANCH   5   6
HETATM    6  C   UNL     1      35.857  42.430  65.621  1.00  0.00     0.013 A 
HETATM    7  C   UNL     1      34.540  43.096  65.954  1.00  0.00     0.007 A 
HETATM    8  C   UNL     1      34.550  41.723  65.338  1.00  0.00     0.007 A 
ENDBRANCH   5   6
BRANCH   5   9
HETATM    9  C   UNL     1      37.708  41.779  64.111  1.00  0.00    -0.035 A 
HETATM   10  C   UNL     1      37.956  40.729  65.009  1.00  0.00     0.012 A 
HETATM   11  C   UNL     1      38.824  39.687  64.669  1.00  0.00     0.037 A 
HETATM   12  C   UNL     1      39.458  39.663  63.427  1.00  0.00     0.068 A 
HETATM   13  C   UNL     1      39.234  40.708  62.532  1.00  0.00     0.037 A 
HETATM   14  C   UNL     1      38.373  41.758  62.874  1.00  0.00     0.012 A 
BRANCH  12  15
HETATM   15  O   UNL     1      40.271  38.585  63.217  1.00  0.00    -0.356 OA
HETATM   16  C   UNL     1      41.107  38.196  64.301  1.00  0.00     0.210 C 
ENDBRANCH  12  15
ENDBRANCH   5   9
ENDBRANCH   2   5
BRANCH   1  17
HETATM   17  C   UNL     1      38.088  46.384  65.061  1.00  0.00     0.157 A 
HETATM   18  C   UNL     1      39.508  46.518  65.031  1.00  0.00     0.029 A 
HETATM   19  C   UNL     1      40.583  45.814  64.451  1.00  0.00     0.023 A 
HETATM   20  C   UNL     1      39.782  47.649  65.789  1.00  0.00     0.063 A 
HETATM   21  C   UNL     1      41.897  46.271  64.647  1.00  0.00    -0.061 A 
HETATM   22  C   UNL     1      43.057  45.536  64.042  1.00  0.00     0.048 C 
HETATM   23  C   UNL     1      42.127  47.416  65.422  1.00  0.00     0.009 A 
HETATM   24  C   UNL     1      41.075  48.128  66.009  1.00  0.00     0.032 A 
HETATM   25  N   UNL     1      38.564  48.105  66.211  1.00  0.00    -0.277 N 
HETATM   26  H   UNL     1      38.381  48.916  66.788  1.00  0.00     0.189 HD
HETATM   27  N   UNL     1      37.517  47.373  65.789  1.00  0.00    -0.168 NA
ENDBRANCH   1  17
TORSDOF 5
ENDMDL
MODEL 8
REMARK VINA RESULT:      -7.9      3.196      6.303
REMARK  5 active torsions:
REMARK  status: ('A' for Active; 'I' for Inactive)
REMARK    1  A    between atoms: C_9  and  C_10 
REMARK       I    between atoms: C_10  and  N_11 
REMARK    2  A    between atoms: N_11  and  C_12 
REMARK    3  A    between atoms: C_12  and  C_13 
REMARK    4  A    between atoms: C_12  and  C_16 
REMARK    5  A    between atoms: C_19  and  O_20 
ROOT
HETATM    1  C   UNL     1      27.436  41.012  50.976  1.00  0.00     0.273 C 
HETATM    2  N   UNL     1      28.239  41.991  51.509  1.00  0.00    -0.346 N 
HETATM    3  O   UNL     1      26.211  41.019  51.036  1.00  0.00    -0.266 OA
HETATM    4  H   UNL     1      29.229  41.879  51.326  1.00  0.00     0.163 HD
ENDROOT
BRANCH   2   5
HETATM    5  C   UNL     1      27.742  43.192  52.135  1.00  0.00     0.122 C 
BRANCH   5   6
HETATM    6  C   UNL     1      27.679  44.353  51.165  1.00  0.00     0.013 A 
HETATM    7  C   UNL     1      26.795  44.363  49.937  1.00  0.00     0.007 A 
HETATM    8  C   UNL     1      26.492  45.288  51.086  1.00  0.00     0.007 A 
ENDBRANCH   5   6
BRANCH   5   9
HETATM    9  C   UNL     1      28.578  43.592  53.343  1.00  0.00    -0.035 A 
HETATM   10  C   UNL     1      29.722  42.847  53.667  1.00  0.00     0.012 A 
HETATM   11  C   UNL     1      30.495  43.174  54.786  1.00  0.00     0.037 A 
HETATM   12  C   UNL     1      30.150  44.252  55.601  1.00  0.00     0.068 A 
HETATM   13  C   UNL     1      29.006  44.989  55.300  1.00  0.00     0.037 A 
HETATM   14  C   UNL     1      28.225  44.658  54.186  1.00  0.00     0.012 A 
BRANCH  12  15
HETATM   15  O   UNL     1      30.994  44.470  56.654  1.00  0.00    -0.356 OA
HETATM   16  C   UNL     1      31.822  43.381  57.043  1.00  0.00     0.210 C 
ENDBRANCH  12  15
ENDBRANCH   5   9
ENDBRANCH   2   5
BRANCH   1  17
HETATM   17  C   UNL     1      28.210  39.954  50.304  1.00  0.00     0.157 A 
HETATM   18  C   UNL     1      28.033  39.456  48.979  1.00  0.00     0.029 A 
HETATM   19  C   UNL     1      27.163  39.720  47.902  1.00  0.00     0.023 A 
HETATM   20  C   UNL     1      29.011  38.482  48.825  1.00  0.00     0.063 A 
HETATM   21  C   UNL     1      27.306  39.000  46.704  1.00  0.00    -0.061 A 
HETATM   22  C   UNL     1      26.389  39.262  45.545  1.00  0.00     0.048 C 
HETATM   23  C   UNL     1      28.305  38.024  46.593  1.00  0.00     0.009 A 
HETATM   24  C   UNL     1      29.178  37.744  47.651  1.00  0.00     0.032 A 
HETATM   25  N   UNL     1      29.684  38.454  50.015  1.00  0.00    -0.277 N 
HETATM   26  H   UNL     1      30.465  37.859  50.262  1.00  0.00     0.189 HD
HETATM   27  N   UNL     1      29.236  39.330  50.931  1.00  0.00    -0.168 NA
ENDBRANCH   1  17
TORSDOF 5
ENDMDL
MODEL 9
REMARK VINA RESULT:      -7.8      2.727      4.286
REMARK  5 active torsions:
REMARK  status: ('A' for Active; 'I' for Inactive)
REMARK    1  A    between atoms: C_9  and  C_10 
REMARK       I    between atoms: C_10  and  N_11 
REMARK    2  A    between atoms: N_11  and  C_12 
REMARK    3  A    between atoms: C_12  and  C_13 
REMARK    4  A    between atoms: C_12  and  C_16 
REMARK    5  A    between atoms: C_19  and  O_20 
ROOT
HETATM    1  C   UNL     1      25.777  47.459  49.687  1.00  0.00     0.273 C 
HETATM    2  N   UNL     1      25.135  46.827  50.725  1.00  0.00    -0.346 N 
HETATM    3  O   UNL     1      26.880  47.133  49.261  1.00  0.00    -0.266 OA
HETATM    4  H   UNL     1      24.203  47.170  50.922  1.00  0.00     0.163 HD
ENDROOT
BRANCH   2   5
HETATM    5  C   UNL     1      25.638  45.650  51.390  1.00  0.00     0.122 C 
BRANCH   5   6
HETATM    6  C   UNL     1      24.553  44.619  51.615  1.00  0.00     0.013 A 
HETATM    7  C   UNL     1      23.706  44.045  50.500  1.00  0.00     0.007 A 
HETATM    8  C   UNL     1      24.706  43.170  51.208  1.00  0.00     0.007 A 
ENDBRANCH   5   6
BRANCH   5   9
HETATM    9  C   UNL     1      26.296  45.986  52.721  1.00  0.00    -0.035 A 
HETATM   10  C   UNL     1      27.120  45.035  53.342  1.00  0.00     0.012 A 
HETATM   11  C   UNL     1      27.718  45.305  54.577  1.00  0.00     0.037 A 
HETATM   12  C   UNL     1      27.515  46.528  55.215  1.00  0.00     0.068 A 
HETATM   13  C   UNL     1      26.686  47.475  54.618  1.00  0.00     0.037 A 
HETATM   14  C   UNL     1      26.078  47.204  53.385  1.00  0.00     0.012 A 
BRANCH  12  15
HETATM   15  O   UNL     1      28.165  46.668  56.410  1.00  0.00    -0.356 OA
HETATM   16  C   UNL     1      29.389  45.958  56.557  1.00  0.00     0.210 C 
ENDBRANCH  12  15
ENDBRANCH   5   9
ENDBRANCH   2   5
BRANCH   1  17
HETATM   17  C   UNL     1      24.984  48.567  49.127  1.00  0.00     0.157 A 
HETATM   18  C   UNL     1      23.611  48.544  48.742  1.00  0.00     0.029 A 
HETATM   19  C   UNL     1      22.574  47.589  48.729  1.00  0.00     0.023 A 
HETATM   20  C   UNL     1      23.341  49.829  48.287  1.00  0.00     0.063 A 
HETATM   21  C   UNL     1      21.300  47.955  48.264  1.00  0.00    -0.061 A 
HETATM   22  C   UNL     1      20.183  46.954  48.238  1.00  0.00     0.048 C 
HETATM   23  C   UNL     1      21.073  49.262  47.812  1.00  0.00     0.009 A 
HETATM   24  C   UNL     1      22.088  50.226  47.814  1.00  0.00     0.032 A 
HETATM   25  N   UNL     1      24.517  50.513  48.420  1.00  0.00    -0.277 N 
HETATM   26  H   UNL     1      24.691  51.483  48.183  1.00  0.00     0.189 HD
HETATM   27  N   UNL     1      25.531  49.789  48.927  1.00  0.00    -0.168 NA
ENDBRANCH   1  17
TORSDOF 5
ENDMDL
MODEL 10
REMARK VINA RESULT:      -7.8      3.387      8.824
REMARK  5 active torsions:
REMARK  status: ('A' for Active; 'I' for Inactive)
REMARK    1  A    between atoms: C_9  and  C_10 
REMARK       I    between atoms: C_10  and  N_11 
REMARK    2  A    between atoms: N_11  and  C_12 
REMARK    3  A    between atoms: C_12  and  C_13 
REMARK    4  A    between atoms: C_12  and  C_16 
REMARK    5  A    between atoms: C_19  and  O_20 
ROOT
HETATM    1  C   UNL     1      25.206  46.812  50.492  1.00  0.00     0.273 C 
HETATM    2  N   UNL     1      24.049  47.542  50.363  1.00  0.00    -0.346 N 
HETATM    3  O   UNL     1      25.809  46.309  49.550  1.00  0.00    -0.266 OA
HETATM    4  H   UNL     1      23.701  47.948  51.224  1.00  0.00     0.163 HD
ENDROOT
BRANCH   2   5
HETATM    5  C   UNL     1      23.440  47.878  49.099  1.00  0.00     0.122 C 
BRANCH   5   6
HETATM    6  C   UNL     1      23.068  49.343  49.020  1.00  0.00     0.013 A 
HETATM    7  C   UNL     1      24.040  50.427  48.606  1.00  0.00     0.007 A 
HETATM    8  C   UNL     1      22.887  50.071  47.706  1.00  0.00     0.007 A 
ENDBRANCH   5   6
BRANCH   5   9
HETATM    9  C   UNL     1      22.208  47.030  48.817  1.00  0.00    -0.035 A 
HETATM   10  C   UNL     1      22.365  45.682  48.460  1.00  0.00     0.012 A 
HETATM   11  C   UNL     1      21.254  44.885  48.170  1.00  0.00     0.037 A 
HETATM   12  C   UNL     1      19.963  45.410  48.236  1.00  0.00     0.068 A 
HETATM   13  C   UNL     1      19.794  46.751  48.573  1.00  0.00     0.037 A 
HETATM   14  C   UNL     1      20.906  47.555  48.855  1.00  0.00     0.012 A 
BRANCH  12  15
HETATM   15  O   UNL     1      18.966  44.522  47.939  1.00  0.00    -0.356 OA
HETATM   16  C   UNL     1      18.747  44.247  46.562  1.00  0.00     0.210 C 
ENDBRANCH  12  15
ENDBRANCH   5   9
ENDBRANCH   2   5
BRANCH   1  17
HETATM   17  C   UNL     1      25.657  46.716  51.890  1.00  0.00     0.157 A 
HETATM   18  C   UNL     1      26.524  45.735  52.458  1.00  0.00     0.029 A 
HETATM   19  C   UNL     1      27.217  44.600  51.993  1.00  0.00     0.023 A 
HETATM   20  C   UNL     1      26.642  46.088  53.796  1.00  0.00     0.063 A 
HETATM   21  C   UNL     1      28.009  43.857  52.884  1.00  0.00    -0.061 A 
HETATM   22  C   UNL     1      28.753  42.643  52.412  1.00  0.00     0.048 C 
HETATM   23  C   UNL     1      28.098  44.248  54.227  1.00  0.00     0.009 A 
HETATM   24  C   UNL     1      27.418  45.371  54.711  1.00  0.00     0.032 A 
HETATM   25  N   UNL     1      25.873  47.208  53.944  1.00  0.00    -0.277 N 
HETATM   26  H   UNL     1      25.724  47.740  54.793  1.00  0.00     0.189 HD
HETATM   27  N   UNL     1      25.266  47.622  52.818  1.00  0.00    -0.168 NA
ENDBRANCH   1  17
TORSDOF 5
ENDMDL
