MODEL 1
REMARK VINA RESULT:      -8.2      0.000      0.000
REMARK  9 active torsions:
REMARK  status: ('A' for Active; 'I' for Inactive)
REMARK    1  A    between atoms: C_2  and  C_3 
REMARK    2  A    between atoms: C_3  and  N_4 
REMARK    3  A    between atoms: C_7  and  C_8 
REMARK       I    between atoms: C_8  and  N_9 
REMARK    4  A    between atoms: N_9  and  C_10 
REMARK    5  A    between atoms: C_10  and  C_11 
REMARK    6  A    between atoms: C_13  and  O_14 
REMARK    7  A    between atoms: O_14  and  C_15 
REMARK    8  A    between atoms: C_15  and  C_16 
REMARK       I    between atoms: C_16  and  N_17 
REMARK    9  A    between atoms: C_23  and  C_24 
ROOT
HETATM    1  C   UNL     1      26.334  45.171  52.656  1.00  0.00     0.255 C 
HETATM    2  N   UNL     1      26.565  46.252  51.829  1.00  0.00    -0.353 N 
HETATM    3  O   UNL     1      25.478  44.321  52.426  1.00  0.00    -0.268 OA
HETATM    4  H   UNL     1      27.417  46.779  51.960  1.00  0.00     0.163 HD
ENDROOT
BRANCH   2   5
HETATM    5  C   UNL     1      25.912  46.273  50.539  1.00  0.00     0.161 C 
BRANCH   5   6
HETATM    6  C   UNL     1      25.899  47.599  49.823  1.00  0.00    -0.038 A 
HETATM    7  C   UNL     1      24.738  48.191  49.305  1.00  0.00     0.045 A 
HETATM    8  C   UNL     1      24.802  49.371  48.550  1.00  0.00     0.070 A 
HETATM    9  C   UNL     1      26.041  49.961  48.300  1.00  0.00     0.037 A 
HETATM   10  C   UNL     1      27.205  49.381  48.802  1.00  0.00     0.003 A 
HETATM   11  C   UNL     1      27.134  48.211  49.554  1.00  0.00     0.009 A 
BRANCH   8  12
HETATM   12  O   UNL     1      23.593  49.843  48.108  1.00  0.00    -0.342 OA
BRANCH  12  13
HETATM   13  C   UNL     1      23.120  51.044  48.717  1.00  0.00     0.278 C 
BRANCH  13  14
HETATM   14  C   UNL     1      21.669  50.903  49.169  1.00  0.00     0.239 C 
HETATM   15  N   UNL     1      21.485  50.557  50.476  1.00  0.00    -0.368 N 
HETATM   16  H   UNL     1      22.267  50.213  51.022  1.00  0.00     0.159 HD
HETATM   17  H   UNL     1      20.541  50.397  50.800  1.00  0.00     0.159 HD
HETATM   18  O   UNL     1      20.712  51.135  48.437  1.00  0.00    -0.271 OA
ENDBRANCH  13  14
ENDBRANCH  12  13
ENDBRANCH   8  12
ENDBRANCH   5   6
ENDBRANCH   2   5
BRANCH   1  19
HETATM   19  C   UNL     1      27.236  45.041  53.776  1.00  0.00     0.075 A 
HETATM   20  C   UNL     1      27.081  45.708  55.010  1.00  0.00     0.158 A 
HETATM   21  N   UNL     1      28.121  45.548  55.823  1.00  0.00    -0.183 NA
HETATM   22  N   UNL     1      28.989  44.814  55.097  1.00  0.00    -0.268 N 
HETATM   23  C   UNL     1      28.479  44.432  53.869  1.00  0.00     0.052 A 
BRANCH  22  24
HETATM   24  C   UNL     1      30.364  44.647  55.574  1.00  0.00     0.106 C 
HETATM   25  C   UNL     1      30.623  45.614  56.736  1.00  0.00     0.034 C 
BRANCH  24  26
HETATM   26  C   UNL     1      30.731  43.211  56.007  1.00  0.00     0.022 C 
HETATM   27  C   UNL     1      31.733  43.166  57.152  1.00  0.00     0.007 C 
ENDBRANCH  24  26
ENDBRANCH  22  24
BRANCH  23  28
HETATM   28  C   UNL     1      29.240  43.594  52.839  1.00  0.00     0.038 A 
HETATM   29  C   UNL     1      29.349  42.098  53.023  1.00  0.00     0.011 A 
HETATM   30  C   UNL     1      28.504  42.645  51.923  1.00  0.00     0.011 A 
ENDBRANCH  23  28
ENDBRANCH   1  19
TORSDOF 9
ENDMDL
MODEL 2
REMARK VINA RESULT:      -8.1      2.937      7.956
REMARK  9 active torsions:
REMARK  status: ('A' for Active; 'I' for Inactive)
REMARK    1  A    between atoms: C_2  and  C_3 
REMARK    2  A    between atoms: C_3  and  N_4 
REMARK    3  A    between atoms: C_7  and  C_8 
REMARK       I    between atoms: C_8  and  N_9 
REMARK    4  A    between atoms: N_9  and  C_10 
REMARK    5  A    between atoms: C_10  and  C_11 
REMARK    6  A    between atoms: C_13  and  O_14 
REMARK    7  A    between atoms: O_14  and  C_15 
REMARK    8  A    between atoms: C_15  and  C_16 
REMARK       I    between atoms: C_16  and  N_17 
REMARK    9  A    between atoms: C_23  and  C_24 
ROOT
HETATM    1  C   UNL     1      25.071  44.858  51.421  1.00  0.00     0.255 C 
HETATM    2  N   UNL     1      26.322  44.277  51.368  1.00  0.00    -0.353 N 
HETATM    3  O   UNL     1      24.187  44.479  52.185  1.00  0.00    -0.268 OA
HETATM    4  H   UNL     1      27.058  44.772  50.885  1.00  0.00     0.163 HD
ENDROOT
BRANCH   2   5
HETATM    5  C   UNL     1      26.670  43.318  52.393  1.00  0.00     0.161 C 
BRANCH   5   6
HETATM    6  C   UNL     1      27.582  43.815  53.486  1.00  0.00    -0.038 A 
HETATM    7  C   UNL     1      27.360  44.998  54.204  1.00  0.00     0.045 A 
HETATM    8  C   UNL     1      28.301  45.469  55.132  1.00  0.00     0.070 A 
HETATM    9  C   UNL     1      29.481  44.754  55.337  1.00  0.00     0.037 A 
HETATM   10  C   UNL     1      29.720  43.579  54.625  1.00  0.00     0.003 A 
HETATM   11  C   UNL     1      28.780  43.116  53.707  1.00  0.00     0.009 A 
BRANCH   8  12
HETATM   12  O   UNL     1      27.956  46.634  55.766  1.00  0.00    -0.342 OA
BRANCH  12  13
HETATM   13  C   UNL     1      27.753  47.774  54.932  1.00  0.00     0.278 C 
BRANCH  13  14
HETATM   14  C   UNL     1      26.333  48.317  55.071  1.00  0.00     0.239 C 
HETATM   15  N   UNL     1      26.117  49.149  56.131  1.00  0.00    -0.368 N 
HETATM   16  H   UNL     1      26.804  49.208  56.874  1.00  0.00     0.159 HD
HETATM   17  H   UNL     1      25.177  49.484  56.291  1.00  0.00     0.159 HD
HETATM   18  O   UNL     1      25.441  48.080  54.262  1.00  0.00    -0.271 OA
ENDBRANCH  13  14
ENDBRANCH  12  13
ENDBRANCH   8  12
ENDBRANCH   5   6
ENDBRANCH   2   5
BRANCH   1  19
HETATM   19  C   UNL     1      24.889  46.019  50.582  1.00  0.00     0.075 A 
HETATM   20  C   UNL     1      25.536  47.258  50.779  1.00  0.00     0.158 A 
HETATM   21  N   UNL     1      25.087  48.215  49.972  1.00  0.00    -0.183 NA
HETATM   22  N   UNL     1      24.098  47.614  49.278  1.00  0.00    -0.268 N 
HETATM   23  C   UNL     1      23.974  46.267  49.569  1.00  0.00     0.052 A 
BRANCH  22  24
HETATM   24  C   UNL     1      23.196  48.429  48.460  1.00  0.00     0.106 C 
HETATM   25  C   UNL     1      21.879  48.647  49.215  1.00  0.00     0.034 C 
BRANCH  24  26
HETATM   26  C   UNL     1      23.771  49.793  48.021  1.00  0.00     0.022 C 
HETATM   27  C   UNL     1      23.081  50.977  48.683  1.00  0.00     0.007 C 
ENDBRANCH  24  26
ENDBRANCH  22  24
BRANCH  23  28
HETATM   28  C   UNL     1      22.941  45.336  48.931  1.00  0.00     0.038 A 
HETATM   29  C   UNL     1      23.142  44.852  47.514  1.00  0.00     0.011 A 
HETATM   30  C   UNL     1      23.278  43.892  48.645  1.00  0.00     0.011 A 
ENDBRANCH  23  28
ENDBRANCH   1  19
TORSDOF 9
ENDMDL
MODEL 3
REMARK VINA RESULT:      -8.0      4.817      7.917
REMARK  9 active torsions:
REMARK  status: ('A' for Active; 'I' for Inactive)
REMARK    1  A    between atoms: C_2  and  C_3 
REMARK    2  A    between atoms: C_3  and  N_4 
REMARK    3  A    between atoms: C_7  and  C_8 
REMARK       I    between atoms: C_8  and  N_9 
REMARK    4  A    between atoms: N_9  and  C_10 
REMARK    5  A    between atoms: C_10  and  C_11 
REMARK    6  A    between atoms: C_13  and  O_14 
REMARK    7  A    between atoms: O_14  and  C_15 
REMARK    8  A    between atoms: C_15  and  C_16 
REMARK       I    between atoms: C_16  and  N_17 
REMARK    9  A    between atoms: C_23  and  C_24 
ROOT
HETATM    1  C   UNL     1      27.709  43.474  51.781  1.00  0.00     0.255 C 
HETATM    2  N   UNL     1      26.775  42.484  52.006  1.00  0.00    -0.353 N 
HETATM    3  O   UNL     1      27.670  44.225  50.810  1.00  0.00    -0.268 OA
HETATM    4  H   UNL     1      26.742  42.058  52.921  1.00  0.00     0.163 HD
ENDROOT
BRANCH   2   5
HETATM    5  C   UNL     1      25.593  42.462  51.173  1.00  0.00     0.161 C 
BRANCH   5   6
HETATM    6  C   UNL     1      25.569  41.424  50.080  1.00  0.00    -0.038 A 
HETATM    7  C   UNL     1      26.435  40.322  50.037  1.00  0.00     0.045 A 
HETATM    8  C   UNL     1      26.443  39.450  48.938  1.00  0.00     0.070 A 
HETATM    9  C   UNL     1      25.582  39.687  47.867  1.00  0.00     0.037 A 
HETATM   10  C   UNL     1      24.719  40.782  47.892  1.00  0.00     0.003 A 
HETATM   11  C   UNL     1      24.715  41.642  48.988  1.00  0.00     0.009 A 
BRANCH   8  12
HETATM   12  O   UNL     1      27.336  38.414  49.027  1.00  0.00    -0.342 OA
BRANCH  12  13
HETATM   13  C   UNL     1      28.655  38.749  49.455  1.00  0.00     0.278 C 
BRANCH  13  14
HETATM   14  C   UNL     1      29.276  37.620  50.274  1.00  0.00     0.239 C 
HETATM   15  N   UNL     1      28.429  36.615  50.638  1.00  0.00    -0.368 N 
HETATM   16  H   UNL     1      27.427  36.741  50.547  1.00  0.00     0.159 HD
HETATM   17  H   UNL     1      28.788  35.878  51.230  1.00  0.00     0.159 HD
HETATM   18  O   UNL     1      30.471  37.571  50.552  1.00  0.00    -0.271 OA
ENDBRANCH  13  14
ENDBRANCH  12  13
ENDBRANCH   8  12
ENDBRANCH   5   6
ENDBRANCH   2   5
BRANCH   1  19
HETATM   19  C   UNL     1      28.697  43.645  52.820  1.00  0.00     0.075 A 
HETATM   20  C   UNL     1      29.941  42.979  52.859  1.00  0.00     0.158 A 
HETATM   21  N   UNL     1      30.606  43.183  53.992  1.00  0.00    -0.183 NA
HETATM   22  N   UNL     1      29.769  43.945  54.725  1.00  0.00    -0.268 N 
HETATM   23  C   UNL     1      28.621  44.301  54.040  1.00  0.00     0.052 A 
BRANCH  22  24
HETATM   24  C   UNL     1      30.057  44.168  56.145  1.00  0.00     0.106 C 
HETATM   25  C   UNL     1      31.217  43.264  56.578  1.00  0.00     0.034 C 
BRANCH  24  26
HETATM   26  C   UNL     1      30.373  45.631  56.522  1.00  0.00     0.022 C 
HETATM   27  C   UNL     1      29.937  45.995  57.933  1.00  0.00     0.007 C 
ENDBRANCH  24  26
ENDBRANCH  22  24
BRANCH  23  28
HETATM   28  C   UNL     1      27.498  45.162  54.622  1.00  0.00     0.038 A 
HETATM   29  C   UNL     1      27.577  46.667  54.519  1.00  0.00     0.011 A 
HETATM   30  C   UNL     1      26.564  45.927  53.714  1.00  0.00     0.011 A 
ENDBRANCH  23  28
ENDBRANCH   1  19
TORSDOF 9
ENDMDL
MODEL 4
REMARK VINA RESULT:      -7.9      2.033      3.388
REMARK  9 active torsions:
REMARK  status: ('A' for Active; 'I' for Inactive)
REMARK    1  A    between atoms: C_2  and  C_3 
REMARK    2  A    between atoms: C_3  and  N_4 
REMARK    3  A    between atoms: C_7  and  C_8 
REMARK       I    between atoms: C_8  and  N_9 
REMARK    4  A    between atoms: N_9  and  C_10 
REMARK    5  A    between atoms: C_10  and  C_11 
REMARK    6  A    between atoms: C_13  and  O_14 
REMARK    7  A    between atoms: O_14  and  C_15 
REMARK    8  A    between atoms: C_15  and  C_16 
REMARK       I    between atoms: C_16  and  N_17 
REMARK    9  A    between atoms: C_23  and  C_24 
ROOT
HETATM    1  C   UNL     1      24.755  44.842  50.928  1.00  0.00     0.255 C 
HETATM    2  N   UNL     1      24.878  45.860  50.005  1.00  0.00    -0.353 N 
HETATM    3  O   UNL     1      23.671  44.439  51.342  1.00  0.00    -0.268 OA
HETATM    4  H   UNL     1      25.772  45.986  49.551  1.00  0.00     0.163 HD
ENDROOT
BRANCH   2   5
HETATM    5  C   UNL     1      23.680  46.332  49.350  1.00  0.00     0.161 C 
BRANCH   5   6
HETATM    6  C   UNL     1      23.549  47.827  49.200  1.00  0.00    -0.038 A 
HETATM    7  C   UNL     1      22.321  48.504  49.204  1.00  0.00     0.045 A 
HETATM    8  C   UNL     1      22.252  49.881  48.948  1.00  0.00     0.070 A 
HETATM    9  C   UNL     1      23.424  50.589  48.677  1.00  0.00     0.037 A 
HETATM   10  C   UNL     1      24.652  49.929  48.663  1.00  0.00     0.003 A 
HETATM   11  C   UNL     1      24.713  48.562  48.921  1.00  0.00     0.009 A 
BRANCH   8  12
HETATM   12  O   UNL     1      20.991  50.415  48.986  1.00  0.00    -0.342 OA
BRANCH  12  13
HETATM   13  C   UNL     1      20.465  50.710  50.279  1.00  0.00     0.278 C 
BRANCH  13  14
HETATM   14  C   UNL     1      19.128  50.008  50.508  1.00  0.00     0.239 C 
HETATM   15  N   UNL     1      19.201  48.737  50.997  1.00  0.00    -0.368 N 
HETATM   16  H   UNL     1      20.086  48.244  50.993  1.00  0.00     0.159 HD
HETATM   17  H   UNL     1      18.340  48.218  51.108  1.00  0.00     0.159 HD
HETATM   18  O   UNL     1      18.044  50.552  50.322  1.00  0.00    -0.271 OA
ENDBRANCH  13  14
ENDBRANCH  12  13
ENDBRANCH   8  12
ENDBRANCH   5   6
ENDBRANCH   2   5
BRANCH   1  19
HETATM   19  C   UNL     1      25.989  44.199  51.315  1.00  0.00     0.075 A 
HETATM   20  C   UNL     1      26.723  43.318  50.492  1.00  0.00     0.158 A 
HETATM   21  N   UNL     1      27.737  42.735  51.127  1.00  0.00    -0.183 NA
HETATM   22  N   UNL     1      27.634  43.195  52.391  1.00  0.00    -0.268 N 
HETATM   23  C   UNL     1      26.625  44.129  52.546  1.00  0.00     0.052 A 
BRANCH  22  24
HETATM   24  C   UNL     1      28.436  42.577  53.449  1.00  0.00     0.106 C 
HETATM   25  C   UNL     1      28.393  41.051  53.297  1.00  0.00     0.034 C 
BRANCH  24  26
HETATM   26  C   UNL     1      29.906  43.048  53.509  1.00  0.00     0.022 C 
HETATM   27  C   UNL     1      30.378  43.361  54.921  1.00  0.00     0.007 C 
ENDBRANCH  24  26
ENDBRANCH  22  24
BRANCH  23  28
HETATM   28  C   UNL     1      26.282  44.821  53.867  1.00  0.00     0.038 A 
HETATM   29  C   UNL     1      27.234  45.839  54.449  1.00  0.00     0.011 A 
HETATM   30  C   UNL     1      25.924  46.288  53.898  1.00  0.00     0.011 A 
ENDBRANCH  23  28
ENDBRANCH   1  19
TORSDOF 9
ENDMDL
MODEL 5
REMARK VINA RESULT:      -7.9      2.564      3.985
REMARK  9 active torsions:
REMARK  status: ('A' for Active; 'I' for Inactive)
REMARK    1  A    between atoms: C_2  and  C_3 
REMARK    2  A    between atoms: C_3  and  N_4 
REMARK    3  A    between atoms: C_7  and  C_8 
REMARK       I    between atoms: C_8  and  N_9 
REMARK    4  A    between atoms: N_9  and  C_10 
REMARK    5  A    between atoms: C_10  and  C_11 
REMARK    6  A    between atoms: C_13  and  O_14 
REMARK    7  A    between atoms: O_14  and  C_15 
REMARK    8  A    between atoms: C_15  and  C_16 
REMARK       I    between atoms: C_16  and  N_17 
REMARK    9  A    between atoms: C_23  and  C_24 
ROOT
HETATM    1  C   UNL     1      25.740  46.906  51.523  1.00  0.00     0.255 C 
HETATM    2  N   UNL     1      25.754  47.229  50.181  1.00  0.00    -0.353 N 
HETATM    3  O   UNL     1      25.043  47.491  52.347  1.00  0.00    -0.268 OA
HETATM    4  H   UNL     1      26.173  46.573  49.538  1.00  0.00     0.163 HD
ENDROOT
BRANCH   2   5
HETATM    5  C   UNL     1      24.759  48.158  49.696  1.00  0.00     0.161 C 
BRANCH   5   6
HETATM    6  C   UNL     1      23.469  47.553  49.202  1.00  0.00    -0.038 A 
HETATM    7  C   UNL     1      22.244  48.235  49.197  1.00  0.00     0.045 A 
HETATM    8  C   UNL     1      21.055  47.585  48.831  1.00  0.00     0.070 A 
HETATM    9  C   UNL     1      21.091  46.237  48.476  1.00  0.00     0.037 A 
HETATM   10  C   UNL     1      22.300  45.544  48.482  1.00  0.00     0.003 A 
HETATM   11  C   UNL     1      23.477  46.196  48.843  1.00  0.00     0.009 A 
BRANCH   8  12
HETATM   12  O   UNL     1      19.932  48.369  48.868  1.00  0.00    -0.342 OA
BRANCH  12  13
HETATM   13  C   UNL     1      18.867  47.913  49.701  1.00  0.00     0.278 C 
BRANCH  13  14
HETATM   14  C   UNL     1      18.686  48.820  50.916  1.00  0.00     0.239 C 
HETATM   15  N   UNL     1      18.655  48.191  52.127  1.00  0.00    -0.368 N 
HETATM   16  H   UNL     1      18.543  47.185  52.171  1.00  0.00     0.159 HD
HETATM   17  H   UNL     1      18.480  48.750  52.951  1.00  0.00     0.159 HD
HETATM   18  O   UNL     1      18.625  50.043  50.838  1.00  0.00    -0.271 OA
ENDBRANCH  13  14
ENDBRANCH  12  13
ENDBRANCH   8  12
ENDBRANCH   5   6
ENDBRANCH   2   5
BRANCH   1  19
HETATM   19  C   UNL     1      26.531  45.756  51.895  1.00  0.00     0.075 A 
HETATM   20  C   UNL     1      26.788  44.655  51.050  1.00  0.00     0.158 A 
HETATM   21  N   UNL     1      27.408  43.655  51.671  1.00  0.00    -0.183 NA
HETATM   22  N   UNL     1      27.510  44.082  52.947  1.00  0.00    -0.268 N 
HETATM   23  C   UNL     1      27.045  45.372  53.125  1.00  0.00     0.052 A 
BRANCH  22  24
HETATM   24  C   UNL     1      27.920  43.138  53.990  1.00  0.00     0.106 C 
HETATM   25  C   UNL     1      27.656  41.704  53.513  1.00  0.00     0.034 C 
BRANCH  24  26
HETATM   26  C   UNL     1      29.391  43.268  54.442  1.00  0.00     0.022 C 
HETATM   27  C   UNL     1      30.386  42.787  53.397  1.00  0.00     0.007 C 
ENDBRANCH  24  26
ENDBRANCH  22  24
BRANCH  23  28
HETATM   28  C   UNL     1      27.040  46.113  54.464  1.00  0.00     0.038 A 
HETATM   29  C   UNL     1      28.349  46.503  55.109  1.00  0.00     0.011 A 
HETATM   30  C   UNL     1      27.463  47.561  54.545  1.00  0.00     0.011 A 
ENDBRANCH  23  28
ENDBRANCH   1  19
TORSDOF 9
ENDMDL
MODEL 6
REMARK VINA RESULT:      -7.8      2.303      3.126
REMARK  9 active torsions:
REMARK  status: ('A' for Active; 'I' for Inactive)
REMARK    1  A    between atoms: C_2  and  C_3 
REMARK    2  A    between atoms: C_3  and  N_4 
REMARK    3  A    between atoms: C_7  and  C_8 
REMARK       I    between atoms: C_8  and  N_9 
REMARK    4  A    between atoms: N_9  and  C_10 
REMARK    5  A    between atoms: C_10  and  C_11 
REMARK    6  A    between atoms: C_13  and  O_14 
REMARK    7  A    between atoms: O_14  and  C_15 
REMARK    8  A    between atoms: C_15  and  C_16 
REMARK       I    between atoms: C_16  and  N_17 
REMARK    9  A    between atoms: C_23  and  C_24 
ROOT
HETATM    1  C   UNL     1      24.364  45.056  51.315  1.00  0.00     0.255 C 
HETATM    2  N   UNL     1      24.521  46.246  50.633  1.00  0.00    -0.353 N 
HETATM    3  O   UNL     1      23.513  44.222  51.020  1.00  0.00    -0.268 OA
HETATM    4  H   UNL     1      25.369  46.774  50.786  1.00  0.00     0.163 HD
ENDROOT
BRANCH   2   5
HETATM    5  C   UNL     1      23.788  46.425  49.400  1.00  0.00     0.161 C 
BRANCH   5   6
HETATM    6  C   UNL     1      23.161  47.780  49.190  1.00  0.00    -0.038 A 
HETATM    7  C   UNL     1      21.791  47.976  48.966  1.00  0.00     0.045 A 
HETATM    8  C   UNL     1      21.280  49.247  48.666  1.00  0.00     0.070 A 
HETATM    9  C   UNL     1      22.151  50.334  48.579  1.00  0.00     0.037 A 
HETATM   10  C   UNL     1      23.517  50.154  48.792  1.00  0.00     0.003 A 
HETATM   11  C   UNL     1      24.016  48.889  49.093  1.00  0.00     0.009 A 
BRANCH   8  12
HETATM   12  O   UNL     1      19.924  49.296  48.474  1.00  0.00    -0.342 OA
BRANCH  12  13
HETATM   13  C   UNL     1      19.161  49.925  49.502  1.00  0.00     0.278 C 
BRANCH  13  14
HETATM   14  C   UNL     1      18.697  48.912  50.547  1.00  0.00     0.239 C 
HETATM   15  N   UNL     1      18.314  47.695  50.065  1.00  0.00    -0.368 N 
HETATM   16  H   UNL     1      18.151  47.574  49.072  1.00  0.00     0.159 HD
HETATM   17  H   UNL     1      17.946  47.017  50.719  1.00  0.00     0.159 HD
HETATM   18  O   UNL     1      18.713  49.138  51.754  1.00  0.00    -0.271 OA
ENDBRANCH  13  14
ENDBRANCH  12  13
ENDBRANCH   8  12
ENDBRANCH   5   6
ENDBRANCH   2   5
BRANCH   1  19
HETATM   19  C   UNL     1      25.337  44.799  52.350  1.00  0.00     0.075 A 
HETATM   20  C   UNL     1      25.161  45.126  53.712  1.00  0.00     0.158 A 
HETATM   21  N   UNL     1      26.257  44.933  54.440  1.00  0.00    -0.183 NA
HETATM   22  N   UNL     1      27.176  44.529  53.540  1.00  0.00    -0.268 N 
HETATM   23  C   UNL     1      26.656  44.377  52.267  1.00  0.00     0.052 A 
BRANCH  22  24
HETATM   24  C   UNL     1      28.586  44.459  53.933  1.00  0.00     0.106 C 
HETATM   25  C   UNL     1      28.807  45.302  55.195  1.00  0.00     0.034 C 
BRANCH  24  26
HETATM   26  C   UNL     1      29.125  43.030  54.166  1.00  0.00     0.022 C 
HETATM   27  C   UNL     1      30.280  42.667  53.245  1.00  0.00     0.007 C 
ENDBRANCH  24  26
ENDBRANCH  22  24
BRANCH  23  28
HETATM   28  C   UNL     1      27.467  43.928  51.049  1.00  0.00     0.038 A 
HETATM   29  C   UNL     1      27.466  42.473  50.643  1.00  0.00     0.011 A 
HETATM   30  C   UNL     1      26.773  43.476  49.786  1.00  0.00     0.011 A 
ENDBRANCH  23  28
ENDBRANCH   1  19
TORSDOF 9
ENDMDL
MODEL 7
REMARK VINA RESULT:      -7.8      4.010      6.881
REMARK  9 active torsions:
REMARK  status: ('A' for Active; 'I' for Inactive)
REMARK    1  A    between atoms: C_2  and  C_3 
REMARK    2  A    between atoms: C_3  and  N_4 
REMARK    3  A    between atoms: C_7  and  C_8 
REMARK       I    between atoms: C_8  and  N_9 
REMARK    4  A    between atoms: N_9  and  C_10 
REMARK    5  A    between atoms: C_10  and  C_11 
REMARK    6  A    between atoms: C_13  and  O_14 
REMARK    7  A    between atoms: O_14  and  C_15 
REMARK    8  A    between atoms: C_15  and  C_16 
REMARK       I    between atoms: C_16  and  N_17 
REMARK    9  A    between atoms: C_23  and  C_24 
ROOT
HETATM    1  C   UNL     1      23.197  48.822  48.667  1.00  0.00     0.255 C 
HETATM    2  N   UNL     1      22.288  49.354  49.559  1.00  0.00    -0.353 N 
HETATM    3  O   UNL     1      23.488  49.363  47.603  1.00  0.00    -0.268 OA
HETATM    4  H   UNL     1      22.264  48.977  50.496  1.00  0.00     0.163 HD
ENDROOT
BRANCH   2   5
HETATM    5  C   UNL     1      21.813  50.699  49.325  1.00  0.00     0.161 C 
BRANCH   5   6
HETATM    6  C   UNL     1      20.427  50.823  48.745  1.00  0.00    -0.038 A 
HETATM    7  C   UNL     1      19.739  49.759  48.144  1.00  0.00     0.045 A 
HETATM    8  C   UNL     1      18.497  49.959  47.522  1.00  0.00     0.070 A 
HETATM    9  C   UNL     1      17.943  51.239  47.491  1.00  0.00     0.037 A 
HETATM   10  C   UNL     1      18.618  52.308  48.078  1.00  0.00     0.003 A 
HETATM   11  C   UNL     1      19.849  52.102  48.697  1.00  0.00     0.009 A 
BRANCH   8  12
HETATM   12  O   UNL     1      17.934  48.835  46.978  1.00  0.00    -0.342 OA
BRANCH  12  13
HETATM   13  C   UNL     1      18.278  47.593  47.592  1.00  0.00     0.278 C 
BRANCH  13  14
HETATM   14  C   UNL     1      17.047  46.900  48.172  1.00  0.00     0.239 C 
HETATM   15  N   UNL     1      17.170  45.560  48.395  1.00  0.00    -0.368 N 
HETATM   16  H   UNL     1      17.950  45.051  47.995  1.00  0.00     0.159 HD
HETATM   17  H   UNL     1      16.359  45.054  48.724  1.00  0.00     0.159 HD
HETATM   18  O   UNL     1      16.020  47.500  48.476  1.00  0.00    -0.271 OA
ENDBRANCH  13  14
ENDBRANCH  12  13
ENDBRANCH   8  12
ENDBRANCH   5   6
ENDBRANCH   2   5
BRANCH   1  19
HETATM   19  C   UNL     1      23.871  47.623  49.105  1.00  0.00     0.075 A 
HETATM   20  C   UNL     1      23.251  46.362  49.246  1.00  0.00     0.158 A 
HETATM   21  N   UNL     1      24.039  45.454  49.812  1.00  0.00    -0.183 NA
HETATM   22  N   UNL     1      25.167  46.137  50.096  1.00  0.00    -0.268 N 
HETATM   23  C   UNL     1      25.139  47.442  49.637  1.00  0.00     0.052 A 
BRANCH  22  24
HETATM   24  C   UNL     1      26.182  45.523  50.956  1.00  0.00     0.106 C 
HETATM   25  C   UNL     1      25.497  44.616  51.986  1.00  0.00     0.034 C 
BRANCH  24  26
HETATM   26  C   UNL     1      27.272  44.725  50.208  1.00  0.00     0.022 C 
HETATM   27  C   UNL     1      26.864  43.291  49.905  1.00  0.00     0.007 C 
ENDBRANCH  24  26
ENDBRANCH  22  24
BRANCH  23  28
HETATM   28  C   UNL     1      26.280  48.445  49.815  1.00  0.00     0.038 A 
HETATM   29  C   UNL     1      27.562  48.270  49.034  1.00  0.00     0.011 A 
HETATM   30  C   UNL     1      26.647  49.399  48.702  1.00  0.00     0.011 A 
ENDBRANCH  23  28
ENDBRANCH   1  19
TORSDOF 9
ENDMDL
MODEL 8
REMARK VINA RESULT:      -7.7      4.744      7.971
REMARK  9 active torsions:
REMARK  status: ('A' for Active; 'I' for Inactive)
REMARK    1  A    between atoms: C_2  and  C_3 
REMARK    2  A    between atoms: C_3  and  N_4 
REMARK    3  A    between atoms: C_7  and  C_8 
REMARK       I    between atoms: C_8  and  N_9 
REMARK    4  A    between atoms: N_9  and  C_10 
REMARK    5  A    between atoms: C_10  and  C_11 
REMARK    6  A    between atoms: C_13  and  O_14 
REMARK    7  A    between atoms: O_14  and  C_15 
REMARK    8  A    between atoms: C_15  and  C_16 
REMARK       I    between atoms: C_16  and  N_17 
REMARK    9  A    between atoms: C_23  and  C_24 
ROOT
HETATM    1  C   UNL     1      21.112  47.364  48.310  1.00  0.00     0.255 C 
HETATM    2  N   UNL     1      20.253  47.638  49.354  1.00  0.00    -0.353 N 
HETATM    3  O   UNL     1      20.760  47.360  47.133  1.00  0.00    -0.268 OA
HETATM    4  H   UNL     1      20.653  47.839  50.260  1.00  0.00     0.163 HD
ENDROOT
BRANCH   2   5
HETATM    5  C   UNL     1      18.935  48.139  49.035  1.00  0.00     0.161 C 
BRANCH   5   6
HETATM    6  C   UNL     1      18.833  49.620  48.773  1.00  0.00    -0.038 A 
HETATM    7  C   UNL     1      18.342  50.165  47.578  1.00  0.00     0.045 A 
HETATM    8  C   UNL     1      18.375  51.548  47.345  1.00  0.00     0.070 A 
HETATM    9  C   UNL     1      18.912  52.395  48.315  1.00  0.00     0.037 A 
HETATM   10  C   UNL     1      19.410  51.868  49.505  1.00  0.00     0.003 A 
HETATM   11  C   UNL     1      19.372  50.494  49.731  1.00  0.00     0.009 A 
BRANCH   8  12
HETATM   12  O   UNL     1      17.860  51.945  46.138  1.00  0.00    -0.342 OA
BRANCH  12  13
HETATM   13  C   UNL     1      16.492  51.623  45.895  1.00  0.00     0.278 C 
BRANCH  13  14
HETATM   14  C   UNL     1      15.578  52.803  46.216  1.00  0.00     0.239 C 
HETATM   15  N   UNL     1      15.522  53.785  45.271  1.00  0.00    -0.368 N 
HETATM   16  H   UNL     1      16.209  53.809  44.526  1.00  0.00     0.159 HD
HETATM   17  H   UNL     1      14.974  54.610  45.471  1.00  0.00     0.159 HD
HETATM   18  O   UNL     1      14.886  52.861  47.229  1.00  0.00    -0.271 OA
ENDBRANCH  13  14
ENDBRANCH  12  13
ENDBRANCH   8  12
ENDBRANCH   5   6
ENDBRANCH   2   5
BRANCH   1  19
HETATM   19  C   UNL     1      22.496  47.172  48.676  1.00  0.00     0.075 A 
HETATM   20  C   UNL     1      23.087  45.919  48.943  1.00  0.00     0.158 A 
HETATM   21  N   UNL     1      24.328  46.016  49.411  1.00  0.00    -0.183 NA
HETATM   22  N   UNL     1      24.535  47.346  49.503  1.00  0.00    -0.268 N 
HETATM   23  C   UNL     1      23.476  48.093  49.017  1.00  0.00     0.052 A 
BRANCH  22  24
HETATM   24  C   UNL     1      25.713  47.843  50.218  1.00  0.00     0.106 C 
HETATM   25  C   UNL     1      25.903  47.038  51.509  1.00  0.00     0.034 C 
BRANCH  24  26
HETATM   26  C   UNL     1      27.023  47.828  49.402  1.00  0.00     0.022 C 
HETATM   27  C   UNL     1      27.523  49.220  49.043  1.00  0.00     0.007 C 
ENDBRANCH  24  26
ENDBRANCH  22  24
BRANCH  23  28
HETATM   28  C   UNL     1      23.436  49.623  48.993  1.00  0.00     0.038 A 
HETATM   29  C   UNL     1      24.145  50.374  47.890  1.00  0.00     0.011 A 
HETATM   30  C   UNL     1      22.655  50.356  47.928  1.00  0.00     0.011 A 
ENDBRANCH  23  28
ENDBRANCH   1  19
TORSDOF 9
ENDMDL
MODEL 9
REMARK VINA RESULT:      -7.5      2.962      9.112
REMARK  9 active torsions:
REMARK  status: ('A' for Active; 'I' for Inactive)
REMARK    1  A    between atoms: C_2  and  C_3 
REMARK    2  A    between atoms: C_3  and  N_4 
REMARK    3  A    between atoms: C_7  and  C_8 
REMARK       I    between atoms: C_8  and  N_9 
REMARK    4  A    between atoms: N_9  and  C_10 
REMARK    5  A    between atoms: C_10  and  C_11 
REMARK    6  A    between atoms: C_13  and  O_14 
REMARK    7  A    between atoms: O_14  and  C_15 
REMARK    8  A    between atoms: C_15  and  C_16 
REMARK       I    between atoms: C_16  and  N_17 
REMARK    9  A    between atoms: C_23  and  C_24 
ROOT
HETATM    1  C   UNL     1      24.889  44.839  51.492  1.00  0.00     0.255 C 
HETATM    2  N   UNL     1      26.105  44.791  52.142  1.00  0.00    -0.353 N 
HETATM    3  O   UNL     1      24.026  43.975  51.620  1.00  0.00    -0.268 OA
HETATM    4  H   UNL     1      26.667  45.631  52.164  1.00  0.00     0.163 HD
ENDROOT
BRANCH   2   5
HETATM    5  C   UNL     1      26.289  43.790  53.169  1.00  0.00     0.161 C 
BRANCH   5   6
HETATM    6  C   UNL     1      27.715  43.475  53.542  1.00  0.00    -0.038 A 
HETATM    7  C   UNL     1      28.410  44.126  54.571  1.00  0.00     0.045 A 
HETATM    8  C   UNL     1      29.770  43.871  54.801  1.00  0.00     0.070 A 
HETATM    9  C   UNL     1      30.446  42.962  53.986  1.00  0.00     0.037 A 
HETATM   10  C   UNL     1      29.771  42.312  52.954  1.00  0.00     0.003 A 
HETATM   11  C   UNL     1      28.419  42.568  52.734  1.00  0.00     0.009 A 
BRANCH   8  12
HETATM   12  O   UNL     1      30.324  44.573  55.840  1.00  0.00    -0.342 OA
BRANCH  12  13
HETATM   13  C   UNL     1      29.693  45.807  56.179  1.00  0.00     0.278 C 
BRANCH  13  14
HETATM   14  C   UNL     1      29.586  45.977  57.693  1.00  0.00     0.239 C 
HETATM   15  N   UNL     1      30.738  45.779  58.396  1.00  0.00    -0.368 N 
HETATM   16  H   UNL     1      31.534  45.341  57.947  1.00  0.00     0.159 HD
HETATM   17  H   UNL     1      30.696  45.826  59.405  1.00  0.00     0.159 HD
HETATM   18  O   UNL     1      28.553  46.323  58.258  1.00  0.00    -0.271 OA
ENDBRANCH  13  14
ENDBRANCH  12  13
ENDBRANCH   8  12
ENDBRANCH   5   6
ENDBRANCH   2   5
BRANCH   1  19
HETATM   19  C   UNL     1      24.644  46.031  50.715  1.00  0.00     0.075 A 
HETATM   20  C   UNL     1      24.949  47.341  51.143  1.00  0.00     0.158 A 
HETATM   21  N   UNL     1      24.488  48.279  50.321  1.00  0.00    -0.183 NA
HETATM   22  N   UNL     1      23.828  47.581  49.373  1.00  0.00    -0.268 N 
HETATM   23  C   UNL     1      23.939  46.211  49.534  1.00  0.00     0.052 A 
BRANCH  22  24
HETATM   24  C   UNL     1      22.969  48.293  48.423  1.00  0.00     0.106 C 
HETATM   25  C   UNL     1      21.642  48.650  49.102  1.00  0.00     0.034 C 
BRANCH  24  26
HETATM   26  C   UNL     1      23.594  49.564  47.809  1.00  0.00     0.022 C 
HETATM   27  C   UNL     1      22.908  50.847  48.256  1.00  0.00     0.007 C 
ENDBRANCH  24  26
ENDBRANCH  22  24
BRANCH  23  28
HETATM   28  C   UNL     1      23.297  45.177  48.608  1.00  0.00     0.038 A 
HETATM   29  C   UNL     1      21.855  44.777  48.816  1.00  0.00     0.011 A 
HETATM   30  C   UNL     1      22.229  45.584  47.620  1.00  0.00     0.011 A 
ENDBRANCH  23  28
ENDBRANCH   1  19
TORSDOF 9
ENDMDL
MODEL 10
REMARK VINA RESULT:      -7.3      4.559      7.997
REMARK  9 active torsions:
REMARK  status: ('A' for Active; 'I' for Inactive)
REMARK    1  A    between atoms: C_2  and  C_3 
REMARK    2  A    between atoms: C_3  and  N_4 
REMARK    3  A    between atoms: C_7  and  C_8 
REMARK       I    between atoms: C_8  and  N_9 
REMARK    4  A    between atoms: N_9  and  C_10 
REMARK    5  A    between atoms: C_10  and  C_11 
REMARK    6  A    between atoms: C_13  and  O_14 
REMARK    7  A    between atoms: O_14  and  C_15 
REMARK    8  A    between atoms: C_15  and  C_16 
REMARK       I    between atoms: C_16  and  N_17 
REMARK    9  A    between atoms: C_23  and  C_24 
ROOT
HETATM    1  C   UNL     1      26.045  43.523  51.128  1.00  0.00     0.255 C 
HETATM    2  N   UNL     1      25.636  42.212  51.266  1.00  0.00    -0.353 N 
HETATM    3  O   UNL     1      26.033  44.120  50.056  1.00  0.00    -0.268 OA
HETATM    4  H   UNL     1      25.465  41.862  52.198  1.00  0.00     0.163 HD
ENDROOT
BRANCH   2   5
HETATM    5  C   UNL     1      24.980  41.583  50.142  1.00  0.00     0.161 C 
BRANCH   5   6
HETATM    6  C   UNL     1      25.845  40.705  49.274  1.00  0.00    -0.038 A 
HETATM    7  C   UNL     1      27.193  40.429  49.547  1.00  0.00     0.045 A 
HETATM    8  C   UNL     1      27.979  39.698  48.645  1.00  0.00     0.070 A 
HETATM    9  C   UNL     1      27.415  39.245  47.452  1.00  0.00     0.037 A 
HETATM   10  C   UNL     1      26.079  39.517  47.163  1.00  0.00     0.003 A 
HETATM   11  C   UNL     1      25.303  40.242  48.065  1.00  0.00     0.009 A 
BRANCH   8  12
HETATM   12  O   UNL     1      29.277  39.498  49.038  1.00  0.00    -0.342 OA
BRANCH  12  13
HETATM   13  C   UNL     1      29.686  38.142  49.210  1.00  0.00     0.278 C 
BRANCH  13  14
HETATM   14  C   UNL     1      29.847  37.794  50.688  1.00  0.00     0.239 C 
HETATM   15  N   UNL     1      29.671  38.825  51.563  1.00  0.00    -0.368 N 
HETATM   16  H   UNL     1      29.652  39.780  51.222  1.00  0.00     0.159 HD
HETATM   17  H   UNL     1      29.826  38.649  52.546  1.00  0.00     0.159 HD
HETATM   18  O   UNL     1      30.067  36.655  51.089  1.00  0.00    -0.271 OA
ENDBRANCH  13  14
ENDBRANCH  12  13
ENDBRANCH   8  12
ENDBRANCH   5   6
ENDBRANCH   2   5
BRANCH   1  19
HETATM   19  C   UNL     1      26.401  44.196  52.355  1.00  0.00     0.075 A 
HETATM   20  C   UNL     1      25.543  45.056  53.075  1.00  0.00     0.158 A 
HETATM   21  N   UNL     1      26.150  45.675  54.083  1.00  0.00    -0.183 NA
HETATM   22  N   UNL     1      27.430  45.261  53.991  1.00  0.00    -0.268 N 
HETATM   23  C   UNL     1      27.625  44.320  52.996  1.00  0.00     0.052 A 
BRANCH  22  24
HETATM   24  C   UNL     1      28.461  45.929  54.790  1.00  0.00     0.106 C 
HETATM   25  C   UNL     1      28.045  47.382  55.048  1.00  0.00     0.034 C 
BRANCH  24  26
HETATM   26  C   UNL     1      28.790  45.241  56.133  1.00  0.00     0.022 C 
HETATM   27  C   UNL     1      28.800  46.201  57.313  1.00  0.00     0.007 C 
ENDBRANCH  24  26
ENDBRANCH  22  24
BRANCH  23  28
HETATM   28  C   UNL     1      28.973  43.674  52.668  1.00  0.00     0.038 A 
HETATM   29  C   UNL     1      29.622  42.745  53.668  1.00  0.00     0.011 A 
HETATM   30  C   UNL     1      29.071  42.191  52.399  1.00  0.00     0.011 A 
ENDBRANCH  23  28
ENDBRANCH   1  19
TORSDOF 9
ENDMDL
