MODEL 1
REMARK VINA RESULT:      -8.9      0.000      0.000
REMARK  9 active torsions:
REMARK  status: ('A' for Active; 'I' for Inactive)
REMARK    1  A    between atoms: O_2  and  C_3 
REMARK    2  A    between atoms: C_4  and  C_5 
REMARK    3  A    between atoms: C_9  and  C_10 
REMARK       I    between atoms: C_10  and  N_11 
REMARK    4  A    between atoms: N_11  and  C_12 
REMARK    5  A    between atoms: C_12  and  C_13 
REMARK    6  A    between atoms: C_13  and  C_14 
REMARK    7  A    between atoms: C_14  and  C_15 
REMARK    8  A    between atoms: C_15  and  O_16 
REMARK    9  A    between atoms: O_16  and  C_17 
ROOT
HETATM    1  C   UNL     1      24.688  44.229  51.466  1.00  0.00     0.270 C 
HETATM    2  N   UNL     1      24.720  45.420  50.789  1.00  0.00    -0.345 N 
HETATM    3  O   UNL     1      23.952  43.303  51.142  1.00  0.00    -0.266 OA
HETATM    4  H   UNL     1      25.395  46.125  51.040  1.00  0.00     0.163 HD
ENDROOT
BRANCH   1   5
HETATM    5  C   UNL     1      25.575  44.148  52.595  1.00  0.00     0.120 A 
HETATM    6  N   UNL     1      25.127  43.812  53.843  1.00  0.00    -0.272 N 
HETATM    7  N   UNL     1      26.076  43.813  54.789  1.00  0.00    -0.174 NA
HETATM    8  H   UNL     1      24.173  43.585  54.105  1.00  0.00     0.189 HD
HETATM    9  C   UNL     1      27.202  44.148  54.142  1.00  0.00     0.092 A 
HETATM   10  C   UNL     1      26.929  44.364  52.760  1.00  0.00     0.071 A 
BRANCH   9  11
HETATM   11  C   UNL     1      28.492  44.298  54.818  1.00  0.00     0.028 A 
HETATM   12  C   UNL     1      28.833  45.406  55.612  1.00  0.00     0.080 A 
HETATM   13  C   UNL     1      30.113  45.505  56.176  1.00  0.00     0.037 A 
HETATM   14  C   UNL     1      31.048  44.489  55.996  1.00  0.00     0.003 A 
HETATM   15  C   UNL     1      30.717  43.372  55.235  1.00  0.00     0.001 A 
HETATM   16  C   UNL     1      29.452  43.280  54.647  1.00  0.00     0.017 A 
BRANCH  12  17
HETATM   17  O   UNL     1      28.010  46.471  55.872  1.00  0.00    -0.355 OA
HETATM   18  C   UNL     1      28.125  47.505  54.897  1.00  0.00     0.210 C 
ENDBRANCH  12  17
ENDBRANCH   9  11
ENDBRANCH   1   5
BRANCH   2  19
HETATM   19  C   UNL     1      23.891  45.657  49.636  1.00  0.00     0.217 C 
BRANCH  19  20
HETATM   20  C   UNL     1      23.811  47.158  49.410  1.00  0.00    -0.085 C 
BRANCH  20  21
HETATM   21  C   UNL     1      23.745  48.445  49.216  1.00  0.00    -0.078 C 
BRANCH  21  22
HETATM   22  C   UNL     1      23.670  49.946  48.989  1.00  0.00     0.269 C 
BRANCH  22  23
HETATM   23  O   UNL     1      22.768  50.522  49.928  1.00  0.00    -0.339 OA
BRANCH  23  24
HETATM   24  C   UNL     1      21.474  50.684  49.506  1.00  0.00     0.072 A 
HETATM   25  C   UNL     1      20.355  50.823  50.334  1.00  0.00     0.076 A 
HETATM   26  C   UNL     1      19.122  50.978  49.730  1.00  0.00     0.107 A 
HETATM   27  C   UNL     1      18.975  50.998  48.364  1.00  0.00     0.105 A 
HETATM   28  O   UNL     1      17.938  51.126  50.382  1.00  0.00    -0.323 OA
HETATM   29  O   UNL     1      17.680  51.160  47.984  1.00  0.00    -0.323 OA
HETATM   30  C   UNL     1      20.054  50.864  47.521  1.00  0.00     0.042 A 
HETATM   31  C   UNL     1      17.027  51.241  49.268  1.00  0.00     0.352 A 
HETATM   32  C   UNL     1      21.316  50.705  48.106  1.00  0.00     0.040 A 
ENDBRANCH  23  24
ENDBRANCH  22  23
ENDBRANCH  21  22
ENDBRANCH  20  21
ENDBRANCH  19  20
ENDBRANCH   2  19
TORSDOF 9
ENDMDL
MODEL 2
REMARK VINA RESULT:      -8.7      2.421     11.462
REMARK  9 active torsions:
REMARK  status: ('A' for Active; 'I' for Inactive)
REMARK    1  A    between atoms: O_2  and  C_3 
REMARK    2  A    between atoms: C_4  and  C_5 
REMARK    3  A    between atoms: C_9  and  C_10 
REMARK       I    between atoms: C_10  and  N_11 
REMARK    4  A    between atoms: N_11  and  C_12 
REMARK    5  A    between atoms: C_12  and  C_13 
REMARK    6  A    between atoms: C_13  and  C_14 
REMARK    7  A    between atoms: C_14  and  C_15 
REMARK    8  A    between atoms: C_15  and  O_16 
REMARK    9  A    between atoms: O_16  and  C_17 
ROOT
HETATM    1  C   UNL     1      24.707  49.040  48.906  1.00  0.00     0.270 C 
HETATM    2  N   UNL     1      25.064  47.981  49.701  1.00  0.00    -0.345 N 
HETATM    3  O   UNL     1      25.528  49.713  48.293  1.00  0.00    -0.266 OA
HETATM    4  H   UNL     1      24.352  47.407  50.125  1.00  0.00     0.163 HD
ENDROOT
BRANCH   1   5
HETATM    5  C   UNL     1      23.296  49.312  48.854  1.00  0.00     0.120 A 
HETATM    6  N   UNL     1      22.409  48.422  48.314  1.00  0.00    -0.272 N 
HETATM    7  N   UNL     1      21.136  48.843  48.315  1.00  0.00    -0.174 NA
HETATM    8  H   UNL     1      22.625  47.514  47.914  1.00  0.00     0.189 HD
HETATM    9  C   UNL     1      21.177  50.052  48.893  1.00  0.00     0.092 A 
HETATM   10  C   UNL     1      22.516  50.381  49.250  1.00  0.00     0.071 A 
BRANCH   9  11
HETATM   11  C   UNL     1      19.989  50.889  49.069  1.00  0.00     0.028 A 
HETATM   12  C   UNL     1      19.046  50.702  50.094  1.00  0.00     0.080 A 
HETATM   13  C   UNL     1      17.901  51.508  50.158  1.00  0.00     0.037 A 
HETATM   14  C   UNL     1      17.702  52.532  49.236  1.00  0.00     0.003 A 
HETATM   15  C   UNL     1      18.639  52.749  48.232  1.00  0.00     0.001 A 
HETATM   16  C   UNL     1      19.770  51.931  48.146  1.00  0.00     0.017 A 
BRANCH  12  17
HETATM   17  O   UNL     1      19.121  49.736  51.064  1.00  0.00    -0.355 OA
HETATM   18  C   UNL     1      18.404  48.553  50.718  1.00  0.00     0.210 C 
ENDBRANCH  12  17
ENDBRANCH   9  11
ENDBRANCH   1   5
BRANCH   2  19
HETATM   19  C   UNL     1      26.438  47.583  49.857  1.00  0.00     0.217 C 
BRANCH  19  20
HETATM   20  C   UNL     1      26.483  46.399  50.810  1.00  0.00    -0.085 C 
BRANCH  20  21
HETATM   21  C   UNL     1      26.519  45.384  51.627  1.00  0.00    -0.078 C 
BRANCH  21  22
HETATM   22  C   UNL     1      26.562  44.202  52.581  1.00  0.00     0.269 C 
BRANCH  22  23
HETATM   23  O   UNL     1      27.883  43.673  52.621  1.00  0.00    -0.339 OA
BRANCH  23  24
HETATM   24  C   UNL     1      28.627  43.983  53.729  1.00  0.00     0.072 A 
HETATM   25  C   UNL     1      28.365  45.023  54.626  1.00  0.00     0.076 A 
HETATM   26  C   UNL     1      29.227  45.187  55.693  1.00  0.00     0.107 A 
HETATM   27  C   UNL     1      30.313  44.368  55.888  1.00  0.00     0.105 A 
HETATM   28  O   UNL     1      29.119  46.143  56.655  1.00  0.00    -0.323 OA
HETATM   29  O   UNL     1      31.025  44.705  56.995  1.00  0.00    -0.323 OA
HETATM   30  C   UNL     1      30.600  43.335  55.025  1.00  0.00     0.042 A 
HETATM   31  C   UNL     1      30.264  45.831  57.477  1.00  0.00     0.352 A 
HETATM   32  C   UNL     1      29.743  43.146  53.935  1.00  0.00     0.040 A 
ENDBRANCH  23  24
ENDBRANCH  22  23
ENDBRANCH  21  22
ENDBRANCH  20  21
ENDBRANCH  19  20
ENDBRANCH   2  19
TORSDOF 9
ENDMDL
MODEL 3
REMARK VINA RESULT:      -8.7      2.845      4.245
REMARK  9 active torsions:
REMARK  status: ('A' for Active; 'I' for Inactive)
REMARK    1  A    between atoms: O_2  and  C_3 
REMARK    2  A    between atoms: C_4  and  C_5 
REMARK    3  A    between atoms: C_9  and  C_10 
REMARK       I    between atoms: C_10  and  N_11 
REMARK    4  A    between atoms: N_11  and  C_12 
REMARK    5  A    between atoms: C_12  and  C_13 
REMARK    6  A    between atoms: C_13  and  C_14 
REMARK    7  A    between atoms: C_14  and  C_15 
REMARK    8  A    between atoms: C_15  and  O_16 
REMARK    9  A    between atoms: O_16  and  C_17 
ROOT
HETATM    1  C   UNL     1      25.849  43.306  50.760  1.00  0.00     0.270 C 
HETATM    2  N   UNL     1      24.511  43.009  50.786  1.00  0.00    -0.345 N 
HETATM    3  O   UNL     1      26.492  43.368  49.718  1.00  0.00    -0.266 OA
HETATM    4  H   UNL     1      24.003  43.044  51.656  1.00  0.00     0.163 HD
ENDROOT
BRANCH   1   5
HETATM    5  C   UNL     1      26.446  43.526  52.049  1.00  0.00     0.120 A 
HETATM    6  N   UNL     1      25.693  43.631  53.186  1.00  0.00    -0.272 N 
HETATM    7  N   UNL     1      26.403  43.868  54.298  1.00  0.00    -0.174 NA
HETATM    8  H   UNL     1      24.682  43.564  53.254  1.00  0.00     0.189 HD
HETATM    9  C   UNL     1      27.679  43.904  53.887  1.00  0.00     0.092 A 
HETATM   10  C   UNL     1      27.748  43.690  52.480  1.00  0.00     0.071 A 
BRANCH   9  11
HETATM   11  C   UNL     1      28.798  44.172  54.792  1.00  0.00     0.028 A 
HETATM   12  C   UNL     1      28.895  45.322  55.594  1.00  0.00     0.080 A 
HETATM   13  C   UNL     1      30.030  45.536  56.390  1.00  0.00     0.037 A 
HETATM   14  C   UNL     1      31.055  44.594  56.432  1.00  0.00     0.003 A 
HETATM   15  C   UNL     1      30.961  43.437  55.665  1.00  0.00     0.001 A 
HETATM   16  C   UNL     1      29.845  43.231  54.849  1.00  0.00     0.017 A 
BRANCH  12  17
HETATM   17  O   UNL     1      27.961  46.324  55.649  1.00  0.00    -0.355 OA
HETATM   18  C   UNL     1      28.217  47.366  54.710  1.00  0.00     0.210 C 
ENDBRANCH  12  17
ENDBRANCH   9  11
ENDBRANCH   1   5
BRANCH   2  19
HETATM   19  C   UNL     1      23.768  42.762  49.578  1.00  0.00     0.217 C 
BRANCH  19  20
HETATM   20  C   UNL     1      23.143  44.073  49.129  1.00  0.00    -0.085 C 
BRANCH  20  21
HETATM   21  C   UNL     1      22.607  45.197  48.745  1.00  0.00    -0.078 C 
BRANCH  21  22
HETATM   22  C   UNL     1      21.980  46.507  48.299  1.00  0.00     0.269 C 
BRANCH  22  23
HETATM   23  O   UNL     1      22.306  47.532  49.232  1.00  0.00    -0.339 OA
BRANCH  23  24
HETATM   24  C   UNL     1      23.498  48.178  49.031  1.00  0.00     0.072 A 
HETATM   25  C   UNL     1      24.729  47.813  49.585  1.00  0.00     0.076 A 
HETATM   26  C   UNL     1      25.831  48.585  49.270  1.00  0.00     0.107 A 
HETATM   27  C   UNL     1      25.746  49.678  48.443  1.00  0.00     0.105 A 
HETATM   28  O   UNL     1      27.097  48.372  49.720  1.00  0.00    -0.323 OA
HETATM   29  O   UNL     1      26.945  50.292  48.268  1.00  0.00    -0.323 OA
HETATM   30  C   UNL     1      24.550  50.065  47.881  1.00  0.00     0.042 A 
HETATM   31  C   UNL     1      27.799  49.460  49.080  1.00  0.00     0.352 A 
HETATM   32  C   UNL     1      23.417  49.301  48.184  1.00  0.00     0.040 A 
ENDBRANCH  23  24
ENDBRANCH  22  23
ENDBRANCH  21  22
ENDBRANCH  20  21
ENDBRANCH  19  20
ENDBRANCH   2  19
TORSDOF 9
ENDMDL
MODEL 4
REMARK VINA RESULT:      -8.7      2.532     12.096
REMARK  9 active torsions:
REMARK  status: ('A' for Active; 'I' for Inactive)
REMARK    1  A    between atoms: O_2  and  C_3 
REMARK    2  A    between atoms: C_4  and  C_5 
REMARK    3  A    between atoms: C_9  and  C_10 
REMARK       I    between atoms: C_10  and  N_11 
REMARK    4  A    between atoms: N_11  and  C_12 
REMARK    5  A    between atoms: C_12  and  C_13 
REMARK    6  A    between atoms: C_13  and  C_14 
REMARK    7  A    between atoms: C_14  and  C_15 
REMARK    8  A    between atoms: C_15  and  O_16 
REMARK    9  A    between atoms: O_16  and  C_17 
ROOT
HETATM    1  C   UNL     1      22.777  48.812  48.805  1.00  0.00     0.270 C 
HETATM    2  N   UNL     1      23.430  48.189  49.836  1.00  0.00    -0.345 N 
HETATM    3  O   UNL     1      23.335  49.113  47.754  1.00  0.00    -0.266 OA
HETATM    4  H   UNL     1      22.917  47.889  50.650  1.00  0.00     0.163 HD
ENDROOT
BRANCH   1   5
HETATM    5  C   UNL     1      21.390  49.100  49.050  1.00  0.00     0.120 A 
HETATM    6  N   UNL     1      20.554  48.185  49.629  1.00  0.00    -0.272 N 
HETATM    7  N   UNL     1      19.286  48.600  49.757  1.00  0.00    -0.174 NA
HETATM    8  H   UNL     1      20.799  47.251  49.943  1.00  0.00     0.189 HD
HETATM    9  C   UNL     1      19.283  49.845  49.259  1.00  0.00     0.092 A 
HETATM   10  C   UNL     1      20.587  50.197  48.807  1.00  0.00     0.071 A 
BRANCH   9  11
HETATM   11  C   UNL     1      18.073  50.665  49.176  1.00  0.00     0.028 A 
HETATM   12  C   UNL     1      16.953  50.328  48.397  1.00  0.00     0.080 A 
HETATM   13  C   UNL     1      15.855  51.197  48.322  1.00  0.00     0.037 A 
HETATM   14  C   UNL     1      15.838  52.383  49.052  1.00  0.00     0.003 A 
HETATM   15  C   UNL     1      16.927  52.717  49.851  1.00  0.00     0.001 A 
HETATM   16  C   UNL     1      18.036  51.869  49.908  1.00  0.00     0.017 A 
BRANCH  12  17
HETATM   17  O   UNL     1      16.838  49.195  47.633  1.00  0.00    -0.355 OA
HETATM   18  C   UNL     1      15.951  48.235  48.203  1.00  0.00     0.210 C 
ENDBRANCH  12  17
ENDBRANCH   9  11
ENDBRANCH   1   5
BRANCH   2  19
HETATM   19  C   UNL     1      24.822  47.833  49.745  1.00  0.00     0.217 C 
BRANCH  19  20
HETATM   20  C   UNL     1      25.195  47.052  50.994  1.00  0.00    -0.085 C 
BRANCH  20  21
HETATM   21  C   UNL     1      25.515  46.384  52.067  1.00  0.00    -0.078 C 
BRANCH  21  22
HETATM   22  C   UNL     1      25.886  45.603  53.317  1.00  0.00     0.269 C 
BRANCH  22  23
HETATM   23  O   UNL     1      27.058  44.835  53.065  1.00  0.00    -0.339 OA
BRANCH  23  24
HETATM   24  C   UNL     1      28.014  44.849  54.046  1.00  0.00     0.072 A 
HETATM   25  C   UNL     1      28.973  43.855  54.267  1.00  0.00     0.076 A 
HETATM   26  C   UNL     1      29.864  44.038  55.308  1.00  0.00     0.107 A 
HETATM   27  C   UNL     1      29.828  45.151  56.112  1.00  0.00     0.105 A 
HETATM   28  O   UNL     1      30.854  43.175  55.659  1.00  0.00    -0.323 OA
HETATM   29  O   UNL     1      30.791  45.129  57.071  1.00  0.00    -0.323 OA
HETATM   30  C   UNL     1      28.898  46.148  55.923  1.00  0.00     0.042 A 
HETATM   31  C   UNL     1      31.438  43.874  56.779  1.00  0.00     0.352 A 
HETATM   32  C   UNL     1      27.984  45.988  54.876  1.00  0.00     0.040 A 
ENDBRANCH  23  24
ENDBRANCH  22  23
ENDBRANCH  21  22
ENDBRANCH  20  21
ENDBRANCH  19  20
ENDBRANCH   2  19
TORSDOF 9
ENDMDL
MODEL 5
REMARK VINA RESULT:      -8.7      2.307      3.112
REMARK  9 active torsions:
REMARK  status: ('A' for Active; 'I' for Inactive)
REMARK    1  A    between atoms: O_2  and  C_3 
REMARK    2  A    between atoms: C_4  and  C_5 
REMARK    3  A    between atoms: C_9  and  C_10 
REMARK       I    between atoms: C_10  and  N_11 
REMARK    4  A    between atoms: N_11  and  C_12 
REMARK    5  A    between atoms: C_12  and  C_13 
REMARK    6  A    between atoms: C_13  and  C_14 
REMARK    7  A    between atoms: C_14  and  C_15 
REMARK    8  A    between atoms: C_15  and  O_16 
REMARK    9  A    between atoms: O_16  and  C_17 
ROOT
HETATM    1  C   UNL     1      25.962  46.801  52.767  1.00  0.00     0.270 C 
HETATM    2  N   UNL     1      26.030  45.916  51.722  1.00  0.00    -0.345 N 
HETATM    3  O   UNL     1      25.124  47.695  52.823  1.00  0.00    -0.266 OA
HETATM    4  H   UNL     1      26.683  45.149  51.753  1.00  0.00     0.163 HD
ENDROOT
BRANCH   1   5
HETATM    5  C   UNL     1      26.955  46.612  53.789  1.00  0.00     0.120 A 
HETATM    6  N   UNL     1      27.338  47.628  54.621  1.00  0.00    -0.272 N 
HETATM    7  N   UNL     1      28.297  47.294  55.495  1.00  0.00    -0.174 NA
HETATM    8  H   UNL     1      26.982  48.579  54.622  1.00  0.00     0.189 HD
HETATM    9  C   UNL     1      28.550  46.001  55.245  1.00  0.00     0.092 A 
HETATM   10  C   UNL     1      27.726  45.535  54.182  1.00  0.00     0.071 A 
BRANCH   9  11
HETATM   11  C   UNL     1      29.571  45.238  55.966  1.00  0.00     0.028 A 
HETATM   12  C   UNL     1      30.226  44.114  55.435  1.00  0.00     0.080 A 
HETATM   13  C   UNL     1      31.149  43.399  56.212  1.00  0.00     0.037 A 
HETATM   14  C   UNL     1      31.463  43.817  57.503  1.00  0.00     0.003 A 
HETATM   15  C   UNL     1      30.845  44.945  58.033  1.00  0.00     0.001 A 
HETATM   16  C   UNL     1      29.903  45.645  57.274  1.00  0.00     0.017 A 
BRANCH  12  17
HETATM   17  O   UNL     1      30.012  43.598  54.183  1.00  0.00    -0.355 OA
HETATM   18  C   UNL     1      29.293  42.368  54.210  1.00  0.00     0.210 C 
ENDBRANCH  12  17
ENDBRANCH   9  11
ENDBRANCH   1   5
BRANCH   2  19
HETATM   19  C   UNL     1      25.105  45.974  50.621  1.00  0.00     0.217 C 
BRANCH  19  20
HETATM   20  C   UNL     1      25.357  47.263  49.857  1.00  0.00    -0.085 C 
BRANCH  20  21
HETATM   21  C   UNL     1      25.575  48.369  49.202  1.00  0.00    -0.078 C 
BRANCH  21  22
HETATM   22  C   UNL     1      25.829  49.659  48.440  1.00  0.00     0.269 C 
BRANCH  22  23
HETATM   23  O   UNL     1      24.716  49.940  47.599  1.00  0.00    -0.339 OA
BRANCH  23  24
HETATM   24  C   UNL     1      23.479  49.863  48.183  1.00  0.00     0.072 A 
HETATM   25  C   UNL     1      22.551  48.831  48.002  1.00  0.00     0.076 A 
HETATM   26  C   UNL     1      21.349  48.921  48.676  1.00  0.00     0.107 A 
HETATM   27  C   UNL     1      21.050  49.977  49.501  1.00  0.00     0.105 A 
HETATM   28  O   UNL     1      20.340  48.010  48.614  1.00  0.00    -0.323 OA
HETATM   29  O   UNL     1      19.818  49.866  50.063  1.00  0.00    -0.323 OA
HETATM   30  C   UNL     1      21.939  51.009  49.702  1.00  0.00     0.042 A 
HETATM   31  C   UNL     1      19.372  48.617  49.496  1.00  0.00     0.352 A 
HETATM   32  C   UNL     1      23.166  50.945  49.031  1.00  0.00     0.040 A 
ENDBRANCH  23  24
ENDBRANCH  22  23
ENDBRANCH  21  22
ENDBRANCH  20  21
ENDBRANCH  19  20
ENDBRANCH   2  19
TORSDOF 9
ENDMDL
MODEL 6
REMARK VINA RESULT:      -8.4      1.140      2.088
REMARK  9 active torsions:
REMARK  status: ('A' for Active; 'I' for Inactive)
REMARK    1  A    between atoms: O_2  and  C_3 
REMARK    2  A    between atoms: C_4  and  C_5 
REMARK    3  A    between atoms: C_9  and  C_10 
REMARK       I    between atoms: C_10  and  N_11 
REMARK    4  A    between atoms: N_11  and  C_12 
REMARK    5  A    between atoms: C_12  and  C_13 
REMARK    6  A    between atoms: C_13  and  C_14 
REMARK    7  A    between atoms: C_14  and  C_15 
REMARK    8  A    between atoms: C_15  and  O_16 
REMARK    9  A    between atoms: O_16  and  C_17 
ROOT
HETATM    1  C   UNL     1      24.617  44.572  51.505  1.00  0.00     0.270 C 
HETATM    2  N   UNL     1      24.965  45.542  50.601  1.00  0.00    -0.345 N 
HETATM    3  O   UNL     1      23.615  43.876  51.375  1.00  0.00    -0.266 OA
HETATM    4  H   UNL     1      25.836  46.038  50.704  1.00  0.00     0.163 HD
ENDROOT
BRANCH   1   5
HETATM    5  C   UNL     1      25.507  44.439  52.626  1.00  0.00     0.120 A 
HETATM    6  N   UNL     1      25.059  44.065  53.863  1.00  0.00    -0.272 N 
HETATM    7  N   UNL     1      26.012  44.019  54.804  1.00  0.00    -0.174 NA
HETATM    8  H   UNL     1      24.103  43.842  54.122  1.00  0.00     0.189 HD
HETATM    9  C   UNL     1      27.140  44.362  54.164  1.00  0.00     0.092 A 
HETATM   10  C   UNL     1      26.865  44.630  52.793  1.00  0.00     0.071 A 
BRANCH   9  11
HETATM   11  C   UNL     1      28.434  44.470  54.839  1.00  0.00     0.028 A 
HETATM   12  C   UNL     1      29.419  43.467  54.805  1.00  0.00     0.080 A 
HETATM   13  C   UNL     1      30.610  43.620  55.530  1.00  0.00     0.037 A 
HETATM   14  C   UNL     1      30.854  44.783  56.256  1.00  0.00     0.003 A 
HETATM   15  C   UNL     1      29.902  45.797  56.277  1.00  0.00     0.001 A 
HETATM   16  C   UNL     1      28.701  45.639  55.579  1.00  0.00     0.017 A 
BRANCH  12  17
HETATM   17  O   UNL     1      29.308  42.279  54.131  1.00  0.00    -0.355 OA
HETATM   18  C   UNL     1      29.894  42.326  52.833  1.00  0.00     0.210 C 
ENDBRANCH  12  17
ENDBRANCH   9  11
ENDBRANCH   1   5
BRANCH   2  19
HETATM   19  C   UNL     1      24.175  45.798  49.425  1.00  0.00     0.217 C 
BRANCH  19  20
HETATM   20  C   UNL     1      23.990  47.301  49.296  1.00  0.00    -0.085 C 
BRANCH  20  21
HETATM   21  C   UNL     1      23.832  48.590  49.184  1.00  0.00    -0.078 C 
BRANCH  21  22
HETATM   22  C   UNL     1      23.649  50.094  49.052  1.00  0.00     0.269 C 
BRANCH  22  23
HETATM   23  O   UNL     1      22.628  50.527  49.944  1.00  0.00    -0.339 OA
BRANCH  23  24
HETATM   24  C   UNL     1      21.392  50.743  49.393  1.00  0.00     0.072 A 
HETATM   25  C   UNL     1      21.059  50.584  48.043  1.00  0.00     0.076 A 
HETATM   26  C   UNL     1      19.757  50.847  47.666  1.00  0.00     0.107 A 
HETATM   27  C   UNL     1      18.802  51.253  48.567  1.00  0.00     0.105 A 
HETATM   28  O   UNL     1      19.266  50.743  46.402  1.00  0.00    -0.323 OA
HETATM   29  O   UNL     1      17.591  51.456  47.985  1.00  0.00    -0.323 OA
HETATM   30  C   UNL     1      19.096  51.420  49.902  1.00  0.00     0.042 A 
HETATM   31  C   UNL     1      17.891  51.132  46.612  1.00  0.00     0.352 A 
HETATM   32  C   UNL     1      20.408  51.160  50.312  1.00  0.00     0.040 A 
ENDBRANCH  23  24
ENDBRANCH  22  23
ENDBRANCH  21  22
ENDBRANCH  20  21
ENDBRANCH  19  20
ENDBRANCH   2  19
TORSDOF 9
ENDMDL
MODEL 7
REMARK VINA RESULT:      -8.2      2.619     10.939
REMARK  9 active torsions:
REMARK  status: ('A' for Active; 'I' for Inactive)
REMARK    1  A    between atoms: O_2  and  C_3 
REMARK    2  A    between atoms: C_4  and  C_5 
REMARK    3  A    between atoms: C_9  and  C_10 
REMARK       I    between atoms: C_10  and  N_11 
REMARK    4  A    between atoms: N_11  and  C_12 
REMARK    5  A    between atoms: C_12  and  C_13 
REMARK    6  A    between atoms: C_13  and  C_14 
REMARK    7  A    between atoms: C_14  and  C_15 
REMARK    8  A    between atoms: C_15  and  O_16 
REMARK    9  A    between atoms: O_16  and  C_17 
ROOT
HETATM    1  C   UNL     1      23.703  44.181  48.767  1.00  0.00     0.270 C 
HETATM    2  N   UNL     1      23.710  43.942  50.117  1.00  0.00    -0.345 N 
HETATM    3  O   UNL     1      24.212  43.414  47.957  1.00  0.00    -0.266 OA
HETATM    4  H   UNL     1      23.213  44.558  50.741  1.00  0.00     0.163 HD
ENDROOT
BRANCH   1   5
HETATM    5  C   UNL     1      23.065  45.407  48.371  1.00  0.00     0.120 A 
HETATM    6  N   UNL     1      22.510  45.565  47.131  1.00  0.00    -0.272 N 
HETATM    7  N   UNL     1      21.985  46.778  46.912  1.00  0.00    -0.174 NA
HETATM    8  H   UNL     1      22.478  44.874  46.387  1.00  0.00     0.189 HD
HETATM    9  C   UNL     1      22.183  47.447  48.056  1.00  0.00     0.092 A 
HETATM   10  C   UNL     1      22.856  46.620  49.000  1.00  0.00     0.071 A 
BRANCH   9  11
HETATM   11  C   UNL     1      21.782  48.844  48.239  1.00  0.00     0.028 A 
HETATM   12  C   UNL     1      22.601  49.940  47.918  1.00  0.00     0.080 A 
HETATM   13  C   UNL     1      22.169  51.247  48.181  1.00  0.00     0.037 A 
HETATM   14  C   UNL     1      20.907  51.482  48.721  1.00  0.00     0.003 A 
HETATM   15  C   UNL     1      20.073  50.409  49.019  1.00  0.00     0.001 A 
HETATM   16  C   UNL     1      20.509  49.102  48.785  1.00  0.00     0.017 A 
BRANCH  12  17
HETATM   17  O   UNL     1      23.860  49.851  47.382  1.00  0.00    -0.355 OA
HETATM   18  C   UNL     1      24.884  49.901  48.372  1.00  0.00     0.210 C 
ENDBRANCH  12  17
ENDBRANCH   9  11
ENDBRANCH   1   5
BRANCH   2  19
HETATM   19  C   UNL     1      24.310  42.757  50.672  1.00  0.00     0.217 C 
BRANCH  19  20
HETATM   20  C   UNL     1      25.649  43.144  51.279  1.00  0.00    -0.085 C 
BRANCH  20  21
HETATM   21  C   UNL     1      26.798  43.474  51.799  1.00  0.00    -0.078 C 
BRANCH  21  22
HETATM   22  C   UNL     1      28.138  43.860  52.403  1.00  0.00     0.269 C 
BRANCH  22  23
HETATM   23  O   UNL     1      27.924  44.717  53.520  1.00  0.00    -0.339 OA
BRANCH  23  24
HETATM   24  C   UNL     1      28.826  44.613  54.547  1.00  0.00     0.072 A 
HETATM   25  C   UNL     1      28.961  45.510  55.611  1.00  0.00     0.076 A 
HETATM   26  C   UNL     1      29.928  45.242  56.560  1.00  0.00     0.107 A 
HETATM   27  C   UNL     1      30.742  44.139  56.484  1.00  0.00     0.105 A 
HETATM   28  O   UNL     1      30.192  46.007  57.655  1.00  0.00    -0.323 OA
HETATM   29  O   UNL     1      31.621  44.068  57.518  1.00  0.00    -0.323 OA
HETATM   30  C   UNL     1      30.636  43.236  55.450  1.00  0.00     0.042 A 
HETATM   31  C   UNL     1      31.268  45.255  58.257  1.00  0.00     0.352 A 
HETATM   32  C   UNL     1      29.665  43.482  54.473  1.00  0.00     0.040 A 
ENDBRANCH  23  24
ENDBRANCH  22  23
ENDBRANCH  21  22
ENDBRANCH  20  21
ENDBRANCH  19  20
ENDBRANCH   2  19
TORSDOF 9
ENDMDL
MODEL 8
REMARK VINA RESULT:      -8.0      2.567     11.657
REMARK  9 active torsions:
REMARK  status: ('A' for Active; 'I' for Inactive)
REMARK    1  A    between atoms: O_2  and  C_3 
REMARK    2  A    between atoms: C_4  and  C_5 
REMARK    3  A    between atoms: C_9  and  C_10 
REMARK       I    between atoms: C_10  and  N_11 
REMARK    4  A    between atoms: N_11  and  C_12 
REMARK    5  A    between atoms: C_12  and  C_13 
REMARK    6  A    between atoms: C_13  and  C_14 
REMARK    7  A    between atoms: C_14  and  C_15 
REMARK    8  A    between atoms: C_15  and  O_16 
REMARK    9  A    between atoms: O_16  and  C_17 
ROOT
HETATM    1  C   UNL     1      23.137  48.906  49.204  1.00  0.00     0.270 C 
HETATM    2  N   UNL     1      23.545  47.787  49.882  1.00  0.00    -0.345 N 
HETATM    3  O   UNL     1      23.917  49.633  48.598  1.00  0.00    -0.266 OA
HETATM    4  H   UNL     1      22.863  47.175  50.302  1.00  0.00     0.163 HD
ENDROOT
BRANCH   1   5
HETATM    5  C   UNL     1      21.726  49.173  49.267  1.00  0.00     0.120 A 
HETATM    6  N   UNL     1      20.818  48.194  49.561  1.00  0.00    -0.272 N 
HETATM    7  N   UNL     1      19.541  48.602  49.548  1.00  0.00    -0.174 NA
HETATM    8  H   UNL     1      21.019  47.219  49.766  1.00  0.00     0.189 HD
HETATM    9  C   UNL     1      19.605  49.907  49.248  1.00  0.00     0.092 A 
HETATM   10  C   UNL     1      20.960  50.305  49.068  1.00  0.00     0.071 A 
BRANCH   9  11
HETATM   11  C   UNL     1      18.414  50.747  49.099  1.00  0.00     0.028 A 
HETATM   12  C   UNL     1      17.347  50.443  48.236  1.00  0.00     0.080 A 
HETATM   13  C   UNL     1      16.270  51.329  48.104  1.00  0.00     0.037 A 
HETATM   14  C   UNL     1      16.217  52.500  48.856  1.00  0.00     0.003 A 
HETATM   15  C   UNL     1      17.252  52.802  49.736  1.00  0.00     0.001 A 
HETATM   16  C   UNL     1      18.343  51.936  49.852  1.00  0.00     0.017 A 
BRANCH  12  17
HETATM   17  O   UNL     1      17.271  49.327  47.443  1.00  0.00    -0.355 OA
HETATM   18  C   UNL     1      16.045  49.249  46.721  1.00  0.00     0.210 C 
ENDBRANCH  12  17
ENDBRANCH   9  11
ENDBRANCH   1   5
BRANCH   2  19
HETATM   19  C   UNL     1      24.927  47.385  49.915  1.00  0.00     0.217 C 
BRANCH  19  20
HETATM   20  C   UNL     1      25.352  47.267  51.370  1.00  0.00    -0.085 C 
BRANCH  20  21
HETATM   21  C   UNL     1      25.718  47.166  52.617  1.00  0.00    -0.078 C 
BRANCH  21  22
HETATM   22  C   UNL     1      26.143  47.047  54.071  1.00  0.00     0.269 C 
BRANCH  22  23
HETATM   23  O   UNL     1      25.874  45.729  54.537  1.00  0.00    -0.339 OA
BRANCH  23  24
HETATM   24  C   UNL     1      26.799  44.770  54.213  1.00  0.00     0.072 A 
HETATM   25  C   UNL     1      26.557  43.628  53.442  1.00  0.00     0.076 A 
HETATM   26  C   UNL     1      27.615  42.769  53.216  1.00  0.00     0.107 A 
HETATM   27  C   UNL     1      28.870  43.005  53.722  1.00  0.00     0.105 A 
HETATM   28  O   UNL     1      27.555  41.619  52.491  1.00  0.00    -0.323 OA
HETATM   29  O   UNL     1      29.759  42.035  53.380  1.00  0.00    -0.323 OA
HETATM   30  C   UNL     1      29.142  44.118  54.484  1.00  0.00     0.042 A 
HETATM   31  C   UNL     1      28.919  41.159  52.600  1.00  0.00     0.352 A 
HETATM   32  C   UNL     1      28.089  45.007  54.729  1.00  0.00     0.040 A 
ENDBRANCH  23  24
ENDBRANCH  22  23
ENDBRANCH  21  22
ENDBRANCH  20  21
ENDBRANCH  19  20
ENDBRANCH   2  19
TORSDOF 9
ENDMDL
MODEL 9
REMARK VINA RESULT:      -7.9      1.711      2.063
REMARK  9 active torsions:
REMARK  status: ('A' for Active; 'I' for Inactive)
REMARK    1  A    between atoms: O_2  and  C_3 
REMARK    2  A    between atoms: C_4  and  C_5 
REMARK    3  A    between atoms: C_9  and  C_10 
REMARK       I    between atoms: C_10  and  N_11 
REMARK    4  A    between atoms: N_11  and  C_12 
REMARK    5  A    between atoms: C_12  and  C_13 
REMARK    6  A    between atoms: C_13  and  C_14 
REMARK    7  A    between atoms: C_14  and  C_15 
REMARK    8  A    between atoms: C_15  and  O_16 
REMARK    9  A    between atoms: O_16  and  C_17 
ROOT
HETATM    1  C   UNL     1      24.189  44.581  50.421  1.00  0.00     0.270 C 
HETATM    2  N   UNL     1      24.068  45.553  49.462  1.00  0.00    -0.345 N 
HETATM    3  O   UNL     1      23.238  43.909  50.806  1.00  0.00    -0.266 OA
HETATM    4  H   UNL     1      24.888  46.027  49.119  1.00  0.00     0.163 HD
ENDROOT
BRANCH   1   5
HETATM    5  C   UNL     1      25.514  44.415  50.954  1.00  0.00     0.120 A 
HETATM    6  N   UNL     1      26.597  44.210  50.145  1.00  0.00    -0.272 N 
HETATM    7  N   UNL     1      27.753  44.043  50.802  1.00  0.00    -0.174 NA
HETATM    8  H   UNL     1      26.598  44.159  49.130  1.00  0.00     0.189 HD
HETATM    9  C   UNL     1      27.428  44.158  52.098  1.00  0.00     0.092 A 
HETATM   10  C   UNL     1      26.031  44.396  52.235  1.00  0.00     0.071 A 
BRANCH   9  11
HETATM   11  C   UNL     1      28.406  44.010  53.178  1.00  0.00     0.028 A 
HETATM   12  C   UNL     1      28.412  44.801  54.340  1.00  0.00     0.080 A 
HETATM   13  C   UNL     1      29.420  44.638  55.301  1.00  0.00     0.037 A 
HETATM   14  C   UNL     1      30.401  43.663  55.142  1.00  0.00     0.003 A 
HETATM   15  C   UNL     1      30.393  42.853  54.011  1.00  0.00     0.001 A 
HETATM   16  C   UNL     1      29.407  43.029  53.035  1.00  0.00     0.017 A 
BRANCH  12  17
HETATM   17  O   UNL     1      27.507  45.791  54.621  1.00  0.00    -0.355 OA
HETATM   18  C   UNL     1      28.100  46.904  55.287  1.00  0.00     0.210 C 
ENDBRANCH  12  17
ENDBRANCH   9  11
ENDBRANCH   1   5
BRANCH   2  19
HETATM   19  C   UNL     1      22.806  45.840  48.832  1.00  0.00     0.217 C 
BRANCH  19  20
HETATM   20  C   UNL     1      22.661  47.349  48.727  1.00  0.00    -0.085 C 
BRANCH  20  21
HETATM   21  C   UNL     1      22.539  48.644  48.637  1.00  0.00    -0.078 C 
BRANCH  21  22
HETATM   22  C   UNL     1      22.397  50.153  48.532  1.00  0.00     0.269 C 
BRANCH  22  23
HETATM   23  O   UNL     1      21.526  50.474  47.453  1.00  0.00    -0.339 OA
BRANCH  23  24
HETATM   24  C   UNL     1      20.218  50.715  47.780  1.00  0.00     0.072 A 
HETATM   25  C   UNL     1      19.127  49.909  47.440  1.00  0.00     0.076 A 
HETATM   26  C   UNL     1      17.873  50.310  47.858  1.00  0.00     0.107 A 
HETATM   27  C   UNL     1      17.679  51.460  48.584  1.00  0.00     0.105 A 
HETATM   28  O   UNL     1      16.711  49.647  47.615  1.00  0.00    -0.323 OA
HETATM   29  O   UNL     1      16.371  51.666  48.891  1.00  0.00    -0.323 OA
HETATM   30  C   UNL     1      18.730  52.277  48.936  1.00  0.00     0.042 A 
HETATM   31  C   UNL     1      15.761  50.513  48.273  1.00  0.00     0.352 A 
HETATM   32  C   UNL     1      20.011  51.894  48.525  1.00  0.00     0.040 A 
ENDBRANCH  23  24
ENDBRANCH  22  23
ENDBRANCH  21  22
ENDBRANCH  20  21
ENDBRANCH  19  20
ENDBRANCH   2  19
TORSDOF 9
ENDMDL
MODEL 10
REMARK VINA RESULT:      -7.8      6.119      9.694
REMARK  9 active torsions:
REMARK  status: ('A' for Active; 'I' for Inactive)
REMARK    1  A    between atoms: O_2  and  C_3 
REMARK    2  A    between atoms: C_4  and  C_5 
REMARK    3  A    between atoms: C_9  and  C_10 
REMARK       I    between atoms: C_10  and  N_11 
REMARK    4  A    between atoms: N_11  and  C_12 
REMARK    5  A    between atoms: C_12  and  C_13 
REMARK    6  A    between atoms: C_13  and  C_14 
REMARK    7  A    between atoms: C_14  and  C_15 
REMARK    8  A    between atoms: C_15  and  O_16 
REMARK    9  A    between atoms: O_16  and  C_17 
ROOT
HETATM    1  C   UNL     1      26.371  43.318  50.198  1.00  0.00     0.270 C 
HETATM    2  N   UNL     1      25.107  42.786  50.170  1.00  0.00    -0.345 N 
HETATM    3  O   UNL     1      26.891  43.838  49.216  1.00  0.00    -0.266 OA
HETATM    4  H   UNL     1      24.688  42.439  51.019  1.00  0.00     0.163 HD
ENDROOT
BRANCH   1   5
HETATM    5  C   UNL     1      27.048  43.208  51.461  1.00  0.00     0.120 A 
HETATM    6  N   UNL     1      26.944  42.090  52.242  1.00  0.00    -0.272 N 
HETATM    7  N   UNL     1      27.612  42.163  53.402  1.00  0.00    -0.174 NA
HETATM    8  H   UNL     1      26.414  41.250  52.033  1.00  0.00     0.189 HD
HETATM    9  C   UNL     1      28.195  43.370  53.383  1.00  0.00     0.092 A 
HETATM   10  C   UNL     1      27.868  44.057  52.179  1.00  0.00     0.071 A 
BRANCH   9  11
HETATM   11  C   UNL     1      29.008  43.876  54.491  1.00  0.00     0.028 A 
HETATM   12  C   UNL     1      28.703  45.041  55.216  1.00  0.00     0.080 A 
HETATM   13  C   UNL     1      29.565  45.495  56.224  1.00  0.00     0.037 A 
HETATM   14  C   UNL     1      30.712  44.776  56.552  1.00  0.00     0.003 A 
HETATM   15  C   UNL     1      31.014  43.605  55.864  1.00  0.00     0.001 A 
HETATM   16  C   UNL     1      30.173  43.163  54.839  1.00  0.00     0.017 A 
BRANCH  12  17
HETATM   17  O   UNL     1      27.609  45.839  54.997  1.00  0.00    -0.355 OA
HETATM   18  C   UNL     1      27.956  47.210  54.819  1.00  0.00     0.210 C 
ENDBRANCH  12  17
ENDBRANCH   9  11
ENDBRANCH   1   5
BRANCH   2  19
HETATM   19  C   UNL     1      24.300  42.817  48.979  1.00  0.00     0.217 C 
BRANCH  19  20
HETATM   20  C   UNL     1      24.598  41.565  48.171  1.00  0.00    -0.085 C 
BRANCH  20  21
HETATM   21  C   UNL     1      24.852  40.491  47.477  1.00  0.00    -0.078 C 
BRANCH  21  22
HETATM   22  C   UNL     1      25.151  39.239  46.669  1.00  0.00     0.269 C 
BRANCH  22  23
HETATM   23  O   UNL     1      25.440  38.162  47.554  1.00  0.00    -0.339 OA
BRANCH  23  24
HETATM   24  C   UNL     1      26.718  38.104  48.043  1.00  0.00     0.072 A 
HETATM   25  C   UNL     1      27.082  38.182  49.391  1.00  0.00     0.076 A 
HETATM   26  C   UNL     1      28.426  38.105  49.701  1.00  0.00     0.107 A 
HETATM   27  C   UNL     1      29.392  37.957  48.736  1.00  0.00     0.105 A 
HETATM   28  O   UNL     1      28.951  38.163  50.955  1.00  0.00    -0.323 OA
HETATM   29  O   UNL     1      30.645  37.903  49.258  1.00  0.00    -0.323 OA
HETATM   30  C   UNL     1      29.069  37.877  47.400  1.00  0.00     0.042 A 
HETATM   31  C   UNL     1      30.360  38.034  50.666  1.00  0.00     0.352 A 
HETATM   32  C   UNL     1      27.714  37.953  47.057  1.00  0.00     0.040 A 
ENDBRANCH  23  24
ENDBRANCH  22  23
ENDBRANCH  21  22
ENDBRANCH  20  21
ENDBRANCH  19  20
ENDBRANCH   2  19
TORSDOF 9
ENDMDL
