MODEL 1
REMARK VINA RESULT:      -7.6      0.000      0.000
REMARK  6 active torsions:
REMARK  status: ('A' for Active; 'I' for Inactive)
REMARK    1  A    between atoms: C_2  and  O_3 
REMARK    2  A    between atoms: O_3  and  C_4 
REMARK    3  A    between atoms: C_4  and  C_5 
REMARK    4  A    between atoms: C_10  and  C_11 
REMARK    5  A    between atoms: C_11  and  N_12 
REMARK    6  A    between atoms: C_11  and  C_16 
ROOT
HETATM    1  C   UNL     1      26.629  46.660  54.165  1.00  0.00     0.118 A 
HETATM    2  N   UNL     1      26.169  47.408  53.110  1.00  0.00    -0.350 N 
HETATM    3  H   UNL     1      26.255  48.416  53.046  1.00  0.00     0.166 HD
HETATM    4  C   UNL     1      25.557  46.615  52.177  1.00  0.00     0.043 A 
HETATM    5  C   UNL     1      25.654  45.294  52.617  1.00  0.00     0.002 A 
HETATM    6  C   UNL     1      26.353  45.316  53.883  1.00  0.00     0.022 A 
HETATM    7  C   UNL     1      24.934  46.983  50.978  1.00  0.00     0.030 A 
HETATM    8  C   UNL     1      24.387  45.971  50.191  1.00  0.00     0.002 A 
HETATM    9  C   UNL     1      24.467  44.643  50.588  1.00  0.00     0.001 A 
HETATM   10  C   UNL     1      25.096  44.291  51.790  1.00  0.00     0.014 A 
ENDROOT
BRANCH   6  11
HETATM   11  C   UNL     1      26.709  44.166  54.789  1.00  0.00     0.252 C 
BRANCH  11  12
HETATM   12  N   UNL     1      25.567  43.333  55.215  1.00  0.00    -0.067 N 
HETATM   13  H   UNL     1      24.724  43.590  54.697  1.00  0.00     0.275 HD
HETATM   14  H   UNL     1      25.765  42.349  55.010  1.00  0.00     0.275 HD
HETATM   15  H   UNL     1      25.401  43.442  56.219  1.00  0.00     0.275 HD
ENDBRANCH  11  12
BRANCH  11  16
HETATM   16  C   UNL     1      27.764  43.329  54.095  1.00  0.00    -0.024 A 
HETATM   17  C   UNL     1      27.482  41.984  53.793  1.00  0.00     0.009 A 
HETATM   18  C   UNL     1      28.403  41.195  53.102  1.00  0.00     0.001 A 
HETATM   19  C   UNL     1      29.620  41.734  52.698  1.00  0.00     0.000 A 
HETATM   20  C   UNL     1      29.921  43.061  52.987  1.00  0.00     0.001 A 
HETATM   21  C   UNL     1      29.001  43.856  53.676  1.00  0.00     0.009 A 
ENDBRANCH  11  16
ENDBRANCH   6  11
BRANCH   1  22
HETATM   22  C   UNL     1      27.273  47.236  55.327  1.00  0.00     0.310 C 
HETATM   23  O   UNL     1      26.735  48.031  56.085  1.00  0.00    -0.258 OA
BRANCH  22  24
HETATM   24  O   UNL     1      28.552  46.789  55.413  1.00  0.00    -0.317 OA
BRANCH  24  25
HETATM   25  C   UNL     1      28.925  46.183  56.661  1.00  0.00     0.175 C 
HETATM   26  C   UNL     1      30.340  45.641  56.573  1.00  0.00     0.034 C 
ENDBRANCH  24  25
ENDBRANCH  22  24
ENDBRANCH   1  22
TORSDOF 6
ENDMDL
MODEL 2
REMARK VINA RESULT:      -7.5      3.249      6.395
REMARK  6 active torsions:
REMARK  status: ('A' for Active; 'I' for Inactive)
REMARK    1  A    between atoms: C_2  and  O_3 
REMARK    2  A    between atoms: O_3  and  C_4 
REMARK    3  A    between atoms: C_4  and  C_5 
REMARK    4  A    between atoms: C_10  and  C_11 
REMARK    5  A    between atoms: C_11  and  N_12 
REMARK    6  A    between atoms: C_11  and  C_16 
ROOT
HETATM    1  C   UNL     1      28.465  42.086  51.919  1.00  0.00     0.118 A 
HETATM    2  N   UNL     1      29.649  42.026  52.611  1.00  0.00    -0.350 N 
HETATM    3  H   UNL     1      30.398  41.377  52.402  1.00  0.00     0.166 HD
HETATM    4  C   UNL     1      29.667  42.939  53.631  1.00  0.00     0.043 A 
HETATM    5  C   UNL     1      28.467  43.649  53.583  1.00  0.00     0.002 A 
HETATM    6  C   UNL     1      27.699  43.117  52.479  1.00  0.00     0.022 A 
HETATM    7  C   UNL     1      30.667  43.180  54.582  1.00  0.00     0.030 A 
HETATM    8  C   UNL     1      30.443  44.183  55.523  1.00  0.00     0.002 A 
HETATM    9  C   UNL     1      29.266  44.919  55.508  1.00  0.00     0.001 A 
HETATM   10  C   UNL     1      28.276  44.667  54.548  1.00  0.00     0.014 A 
ENDROOT
BRANCH   6  11
HETATM   11  C   UNL     1      26.328  43.517  52.000  1.00  0.00     0.252 C 
BRANCH  11  12
HETATM   12  N   UNL     1      25.268  43.458  53.025  1.00  0.00    -0.067 N 
HETATM   13  H   UNL     1      25.225  42.526  53.441  1.00  0.00     0.275 HD
HETATM   14  H   UNL     1      25.482  44.121  53.777  1.00  0.00     0.275 HD
HETATM   15  H   UNL     1      24.361  43.696  52.614  1.00  0.00     0.275 HD
ENDBRANCH  11  12
BRANCH  11  16
HETATM   16  C   UNL     1      26.426  44.903  51.396  1.00  0.00    -0.024 A 
HETATM   17  C   UNL     1      27.011  45.057  50.125  1.00  0.00     0.009 A 
HETATM   18  C   UNL     1      27.068  46.307  49.507  1.00  0.00     0.001 A 
HETATM   19  C   UNL     1      26.542  47.426  50.145  1.00  0.00     0.000 A 
HETATM   20  C   UNL     1      25.961  47.298  51.402  1.00  0.00     0.001 A 
HETATM   21  C   UNL     1      25.899  46.048  52.024  1.00  0.00     0.009 A 
ENDBRANCH  11  16
ENDBRANCH   6  11
BRANCH   1  22
HETATM   22  C   UNL     1      28.140  41.202  50.820  1.00  0.00     0.310 C 
HETATM   23  O   UNL     1      27.676  41.577  49.753  1.00  0.00    -0.258 OA
BRANCH  22  24
HETATM   24  O   UNL     1      28.392  39.915  51.176  1.00  0.00    -0.317 OA
BRANCH  24  25
HETATM   25  C   UNL     1      28.812  39.040  50.116  1.00  0.00     0.175 C 
HETATM   26  C   UNL     1      29.850  38.061  50.632  1.00  0.00     0.034 C 
ENDBRANCH  24  25
ENDBRANCH  22  24
ENDBRANCH   1  22
TORSDOF 6
ENDMDL
MODEL 3
REMARK VINA RESULT:      -7.5      2.683      5.920
REMARK  6 active torsions:
REMARK  status: ('A' for Active; 'I' for Inactive)
REMARK    1  A    between atoms: C_2  and  O_3 
REMARK    2  A    between atoms: O_3  and  C_4 
REMARK    3  A    between atoms: C_4  and  C_5 
REMARK    4  A    between atoms: C_10  and  C_11 
REMARK    5  A    between atoms: C_11  and  N_12 
REMARK    6  A    between atoms: C_11  and  C_16 
ROOT
HETATM    1  C   UNL     1      28.791  42.557  53.582  1.00  0.00     0.118 A 
HETATM    2  N   UNL     1      29.902  42.858  54.331  1.00  0.00    -0.350 N 
HETATM    3  H   UNL     1      30.740  42.290  54.358  1.00  0.00     0.166 HD
HETATM    4  C   UNL     1      29.711  44.007  55.050  1.00  0.00     0.043 A 
HETATM    5  C   UNL     1      28.444  44.499  54.731  1.00  0.00     0.002 A 
HETATM    6  C   UNL     1      27.856  43.581  53.780  1.00  0.00     0.022 A 
HETATM    7  C   UNL     1      30.578  44.639  55.950  1.00  0.00     0.030 A 
HETATM    8  C   UNL     1      30.145  45.818  56.553  1.00  0.00     0.002 A 
HETATM    9  C   UNL     1      28.894  46.346  56.260  1.00  0.00     0.001 A 
HETATM   10  C   UNL     1      28.039  45.703  55.355  1.00  0.00     0.014 A 
ENDROOT
BRANCH   6  11
HETATM   11  C   UNL     1      26.500  43.634  53.127  1.00  0.00     0.252 C 
BRANCH  11  12
HETATM   12  N   UNL     1      25.364  43.764  54.061  1.00  0.00    -0.067 N 
HETATM   13  H   UNL     1      24.480  43.769  53.550  1.00  0.00     0.275 HD
HETATM   14  H   UNL     1      25.348  42.959  54.696  1.00  0.00     0.275 HD
HETATM   15  H   UNL     1      25.450  44.624  54.610  1.00  0.00     0.275 HD
ENDBRANCH  11  12
BRANCH  11  16
HETATM   16  C   UNL     1      26.507  44.764  52.118  1.00  0.00    -0.024 A 
HETATM   17  C   UNL     1      27.010  44.524  50.825  1.00  0.00     0.009 A 
HETATM   18  C   UNL     1      26.981  45.519  49.847  1.00  0.00     0.001 A 
HETATM   19  C   UNL     1      26.449  46.771  50.140  1.00  0.00     0.000 A 
HETATM   20  C   UNL     1      25.948  47.031  51.412  1.00  0.00     0.001 A 
HETATM   21  C   UNL     1      25.972  46.037  52.394  1.00  0.00     0.009 A 
ENDBRANCH  11  16
ENDBRANCH   6  11
BRANCH   1  22
HETATM   22  C   UNL     1      28.683  41.368  52.762  1.00  0.00     0.310 C 
HETATM   23  O   UNL     1      28.721  40.227  53.200  1.00  0.00    -0.258 OA
BRANCH  22  24
HETATM   24  O   UNL     1      28.574  41.721  51.455  1.00  0.00    -0.317 OA
BRANCH  24  25
HETATM   25  C   UNL     1      27.986  40.740  50.585  1.00  0.00     0.175 C 
HETATM   26  C   UNL     1      26.473  40.856  50.618  1.00  0.00     0.034 C 
ENDBRANCH  24  25
ENDBRANCH  22  24
ENDBRANCH   1  22
TORSDOF 6
ENDMDL
MODEL 4
REMARK VINA RESULT:      -7.1      2.971      4.829
REMARK  6 active torsions:
REMARK  status: ('A' for Active; 'I' for Inactive)
REMARK    1  A    between atoms: C_2  and  O_3 
REMARK    2  A    between atoms: O_3  and  C_4 
REMARK    3  A    between atoms: C_4  and  C_5 
REMARK    4  A    between atoms: C_10  and  C_11 
REMARK    5  A    between atoms: C_11  and  N_12 
REMARK    6  A    between atoms: C_11  and  C_16 
ROOT
HETATM    1  C   UNL     1      27.621  42.977  51.570  1.00  0.00     0.118 A 
HETATM    2  N   UNL     1      27.454  43.664  50.393  1.00  0.00    -0.350 N 
HETATM    3  H   UNL     1      27.689  43.293  49.480  1.00  0.00     0.166 HD
HETATM    4  C   UNL     1      26.956  44.918  50.624  1.00  0.00     0.043 A 
HETATM    5  C   UNL     1      26.752  45.044  51.998  1.00  0.00     0.002 A 
HETATM    6  C   UNL     1      27.163  43.798  52.608  1.00  0.00     0.022 A 
HETATM    7  C   UNL     1      26.671  45.936  49.706  1.00  0.00     0.030 A 
HETATM    8  C   UNL     1      26.157  47.134  50.201  1.00  0.00     0.002 A 
HETATM    9  C   UNL     1      25.932  47.300  51.561  1.00  0.00     0.001 A 
HETATM   10  C   UNL     1      26.221  46.269  52.466  1.00  0.00     0.014 A 
ENDROOT
BRANCH   6  11
HETATM   11  C   UNL     1      27.163  43.412  54.064  1.00  0.00     0.252 C 
BRANCH  11  12
HETATM   12  N   UNL     1      27.079  41.961  54.323  1.00  0.00    -0.067 N 
HETATM   13  H   UNL     1      26.255  41.564  53.869  1.00  0.00     0.275 HD
HETATM   14  H   UNL     1      27.903  41.494  53.930  1.00  0.00     0.275 HD
HETATM   15  H   UNL     1      27.039  41.780  55.330  1.00  0.00     0.275 HD
ENDBRANCH  11  12
BRANCH  11  16
HETATM   16  C   UNL     1      28.396  44.010  54.710  1.00  0.00    -0.024 A 
HETATM   17  C   UNL     1      28.312  45.290  55.291  1.00  0.00     0.009 A 
HETATM   18  C   UNL     1      29.407  45.853  55.948  1.00  0.00     0.001 A 
HETATM   19  C   UNL     1      30.604  45.151  56.039  1.00  0.00     0.000 A 
HETATM   20  C   UNL     1      30.710  43.886  55.470  1.00  0.00     0.001 A 
HETATM   21  C   UNL     1      29.616  43.316  54.814  1.00  0.00     0.009 A 
ENDBRANCH  11  16
ENDBRANCH   6  11
BRANCH   1  22
HETATM   22  C   UNL     1      28.182  41.644  51.641  1.00  0.00     0.310 C 
HETATM   23  O   UNL     1      29.272  41.384  52.131  1.00  0.00    -0.258 OA
BRANCH  22  24
HETATM   24  O   UNL     1      27.337  40.758  51.053  1.00  0.00    -0.317 OA
BRANCH  24  25
HETATM   25  C   UNL     1      27.944  39.794  50.179  1.00  0.00     0.175 C 
HETATM   26  C   UNL     1      28.257  40.433  48.838  1.00  0.00     0.034 C 
ENDBRANCH  24  25
ENDBRANCH  22  24
ENDBRANCH   1  22
TORSDOF 6
ENDMDL
MODEL 5
REMARK VINA RESULT:      -7.0      2.947      6.014
REMARK  6 active torsions:
REMARK  status: ('A' for Active; 'I' for Inactive)
REMARK    1  A    between atoms: C_2  and  O_3 
REMARK    2  A    between atoms: O_3  and  C_4 
REMARK    3  A    between atoms: C_4  and  C_5 
REMARK    4  A    between atoms: C_10  and  C_11 
REMARK    5  A    between atoms: C_11  and  N_12 
REMARK    6  A    between atoms: C_11  and  C_16 
ROOT
HETATM    1  C   UNL     1      26.995  44.139  51.599  1.00  0.00     0.118 A 
HETATM    2  N   UNL     1      27.665  44.208  52.796  1.00  0.00    -0.350 N 
HETATM    3  H   UNL     1      28.326  43.511  53.119  1.00  0.00     0.166 HD
HETATM    4  C   UNL     1      27.297  45.323  53.499  1.00  0.00     0.043 A 
HETATM    5  C   UNL     1      26.383  46.032  52.719  1.00  0.00     0.002 A 
HETATM    6  C   UNL     1      26.197  45.285  51.494  1.00  0.00     0.022 A 
HETATM    7  C   UNL     1      27.720  45.747  54.765  1.00  0.00     0.030 A 
HETATM    8  C   UNL     1      27.196  46.939  55.262  1.00  0.00     0.002 A 
HETATM    9  C   UNL     1      26.288  47.679  54.516  1.00  0.00     0.001 A 
HETATM   10  C   UNL     1      25.877  47.242  53.249  1.00  0.00     0.014 A 
ENDROOT
BRANCH   6  11
HETATM   11  C   UNL     1      25.307  45.599  50.320  1.00  0.00     0.252 C 
BRANCH  11  12
HETATM   12  N   UNL     1      23.862  45.602  50.617  1.00  0.00    -0.067 N 
HETATM   13  H   UNL     1      23.500  46.557  50.619  1.00  0.00     0.275 HD
HETATM   14  H   UNL     1      23.361  45.084  49.888  1.00  0.00     0.275 HD
HETATM   15  H   UNL     1      23.683  45.163  51.525  1.00  0.00     0.275 HD
ENDBRANCH  11  12
BRANCH  11  16
HETATM   16  C   UNL     1      25.747  46.927  49.738  1.00  0.00    -0.024 A 
HETATM   17  C   UNL     1      24.775  47.904  49.450  1.00  0.00     0.009 A 
HETATM   18  C   UNL     1      25.142  49.161  48.968  1.00  0.00     0.001 A 
HETATM   19  C   UNL     1      26.484  49.468  48.768  1.00  0.00     0.000 A 
HETATM   20  C   UNL     1      27.461  48.518  49.045  1.00  0.00     0.001 A 
HETATM   21  C   UNL     1      27.099  47.258  49.529  1.00  0.00     0.009 A 
ENDBRANCH  11  16
ENDBRANCH   6  11
BRANCH   1  22
HETATM   22  C   UNL     1      27.141  43.039  50.668  1.00  0.00     0.310 C 
HETATM   23  O   UNL     1      27.288  43.178  49.462  1.00  0.00    -0.258 OA
BRANCH  22  24
HETATM   24  O   UNL     1      27.051  41.859  51.334  1.00  0.00    -0.317 OA
BRANCH  24  25
HETATM   25  C   UNL     1      28.185  40.985  51.222  1.00  0.00     0.175 C 
HETATM   26  C   UNL     1      28.858  40.832  52.574  1.00  0.00     0.034 C 
ENDBRANCH  24  25
ENDBRANCH  22  24
ENDBRANCH   1  22
TORSDOF 6
ENDMDL
MODEL 6
REMARK VINA RESULT:      -6.8      2.369      4.417
REMARK  6 active torsions:
REMARK  status: ('A' for Active; 'I' for Inactive)
REMARK    1  A    between atoms: C_2  and  O_3 
REMARK    2  A    between atoms: O_3  and  C_4 
REMARK    3  A    between atoms: C_4  and  C_5 
REMARK    4  A    between atoms: C_10  and  C_11 
REMARK    5  A    between atoms: C_11  and  N_12 
REMARK    6  A    between atoms: C_11  and  C_16 
ROOT
HETATM    1  C   UNL     1      26.456  44.778  51.790  1.00  0.00     0.118 A 
HETATM    2  N   UNL     1      26.649  44.273  50.528  1.00  0.00    -0.350 N 
HETATM    3  H   UNL     1      26.448  44.782  49.675  1.00  0.00     0.166 HD
HETATM    4  C   UNL     1      27.120  42.989  50.581  1.00  0.00     0.043 A 
HETATM    5  C   UNL     1      27.279  42.653  51.926  1.00  0.00     0.002 A 
HETATM    6  C   UNL     1      26.869  43.801  52.705  1.00  0.00     0.022 A 
HETATM    7  C   UNL     1      27.417  42.114  49.529  1.00  0.00     0.030 A 
HETATM    8  C   UNL     1      27.897  40.846  49.852  1.00  0.00     0.002 A 
HETATM    9  C   UNL     1      28.077  40.473  51.177  1.00  0.00     0.001 A 
HETATM   10  C   UNL     1      27.776  41.361  52.219  1.00  0.00     0.014 A 
ENDROOT
BRANCH   6  11
HETATM   11  C   UNL     1      26.830  43.965  54.202  1.00  0.00     0.252 C 
BRANCH  11  12
HETATM   12  N   UNL     1      26.155  42.873  54.930  1.00  0.00    -0.067 N 
HETATM   13  H   UNL     1      26.764  42.499  55.659  1.00  0.00     0.275 HD
HETATM   14  H   UNL     1      25.313  43.236  55.389  1.00  0.00     0.275 HD
HETATM   15  H   UNL     1      25.889  42.124  54.284  1.00  0.00     0.275 HD
ENDBRANCH  11  12
BRANCH  11  16
HETATM   16  C   UNL     1      28.251  44.150  54.693  1.00  0.00    -0.024 A 
HETATM   17  C   UNL     1      28.609  45.360  55.316  1.00  0.00     0.009 A 
HETATM   18  C   UNL     1      29.890  45.550  55.836  1.00  0.00     0.001 A 
HETATM   19  C   UNL     1      30.837  44.535  55.745  1.00  0.00     0.000 A 
HETATM   20  C   UNL     1      30.507  43.331  55.131  1.00  0.00     0.001 A 
HETATM   21  C   UNL     1      29.224  43.135  54.612  1.00  0.00     0.009 A 
ENDBRANCH  11  16
ENDBRANCH   6  11
BRANCH   1  22
HETATM   22  C   UNL     1      25.914  46.097  52.046  1.00  0.00     0.310 C 
HETATM   23  O   UNL     1      26.326  46.851  52.916  1.00  0.00    -0.258 OA
BRANCH  22  24
HETATM   24  O   UNL     1      24.874  46.336  51.206  1.00  0.00    -0.317 OA
BRANCH  24  25
HETATM   25  C   UNL     1      24.861  47.624  50.571  1.00  0.00     0.175 C 
HETATM   26  C   UNL     1      26.083  47.777  49.684  1.00  0.00     0.034 C 
ENDBRANCH  24  25
ENDBRANCH  22  24
ENDBRANCH   1  22
TORSDOF 6
ENDMDL
MODEL 7
REMARK VINA RESULT:      -6.7     13.165     14.933
REMARK  6 active torsions:
REMARK  status: ('A' for Active; 'I' for Inactive)
REMARK    1  A    between atoms: C_2  and  O_3 
REMARK    2  A    between atoms: O_3  and  C_4 
REMARK    3  A    between atoms: C_4  and  C_5 
REMARK    4  A    between atoms: C_10  and  C_11 
REMARK    5  A    between atoms: C_11  and  N_12 
REMARK    6  A    between atoms: C_11  and  C_16 
ROOT
HETATM    1  C   UNL     1      30.775  49.088  40.042  1.00  0.00     0.118 A 
HETATM    2  N   UNL     1      30.346  49.652  38.866  1.00  0.00    -0.350 N 
HETATM    3  H   UNL     1      30.339  49.171  37.974  1.00  0.00     0.166 HD
HETATM    4  C   UNL     1      29.959  50.951  39.058  1.00  0.00     0.043 A 
HETATM    5  C   UNL     1      30.103  51.237  40.416  1.00  0.00     0.002 A 
HETATM    6  C   UNL     1      30.611  50.042  41.054  1.00  0.00     0.022 A 
HETATM    7  C   UNL     1      29.490  51.879  38.121  1.00  0.00     0.030 A 
HETATM    8  C   UNL     1      29.151  53.152  38.578  1.00  0.00     0.002 A 
HETATM    9  C   UNL     1      29.271  53.477  39.922  1.00  0.00     0.001 A 
HETATM   10  C   UNL     1      29.741  52.535  40.848  1.00  0.00     0.014 A 
ENDROOT
BRANCH   6  11
HETATM   11  C   UNL     1      30.955  49.816  42.503  1.00  0.00     0.252 C 
BRANCH  11  12
HETATM   12  N   UNL     1      31.036  48.399  42.910  1.00  0.00    -0.067 N 
HETATM   13  H   UNL     1      31.660  47.884  42.288  1.00  0.00     0.275 HD
HETATM   14  H   UNL     1      31.423  48.336  43.857  1.00  0.00     0.275 HD
HETATM   15  H   UNL     1      30.105  47.971  42.897  1.00  0.00     0.275 HD
ENDBRANCH  11  12
BRANCH  11  16
HETATM   16  C   UNL     1      32.252  50.542  42.797  1.00  0.00    -0.024 A 
HETATM   17  C   UNL     1      32.335  51.357  43.942  1.00  0.00     0.009 A 
HETATM   18  C   UNL     1      33.528  51.997  44.282  1.00  0.00     0.001 A 
HETATM   19  C   UNL     1      34.660  51.833  43.489  1.00  0.00     0.000 A 
HETATM   20  C   UNL     1      34.599  51.033  42.353  1.00  0.00     0.001 A 
HETATM   21  C   UNL     1      33.408  50.389  42.009  1.00  0.00     0.009 A 
ENDBRANCH  11  16
ENDBRANCH   6  11
BRANCH   1  22
HETATM   22  C   UNL     1      31.294  47.739  40.135  1.00  0.00     0.310 C 
HETATM   23  O   UNL     1      32.388  47.457  40.602  1.00  0.00    -0.258 OA
BRANCH  22  24
HETATM   24  O   UNL     1      30.404  46.867  39.596  1.00  0.00    -0.317 OA
BRANCH  24  25
HETATM   25  C   UNL     1      29.134  46.772  40.260  1.00  0.00     0.175 C 
HETATM   26  C   UNL     1      28.014  46.736  39.237  1.00  0.00     0.034 C 
ENDBRANCH  24  25
ENDBRANCH  22  24
ENDBRANCH   1  22
TORSDOF 6
ENDMDL
MODEL 8
REMARK VINA RESULT:      -6.6      1.200      2.026
REMARK  6 active torsions:
REMARK  status: ('A' for Active; 'I' for Inactive)
REMARK    1  A    between atoms: C_2  and  O_3 
REMARK    2  A    between atoms: O_3  and  C_4 
REMARK    3  A    between atoms: C_4  and  C_5 
REMARK    4  A    between atoms: C_10  and  C_11 
REMARK    5  A    between atoms: C_11  and  N_12 
REMARK    6  A    between atoms: C_11  and  C_16 
ROOT
HETATM    1  C   UNL     1      26.174  46.642  53.360  1.00  0.00     0.118 A 
HETATM    2  N   UNL     1      25.647  47.058  52.162  1.00  0.00    -0.350 N 
HETATM    3  H   UNL     1      25.643  48.021  51.846  1.00  0.00     0.166 HD
HETATM    4  C   UNL     1      25.108  46.006  51.471  1.00  0.00     0.043 A 
HETATM    5  C   UNL     1      25.323  44.852  52.226  1.00  0.00     0.002 A 
HETATM    6  C   UNL     1      26.019  45.251  53.430  1.00  0.00     0.022 A 
HETATM    7  C   UNL     1      24.454  46.005  50.233  1.00  0.00     0.030 A 
HETATM    8  C   UNL     1      23.999  44.785  49.737  1.00  0.00     0.002 A 
HETATM    9  C   UNL     1      24.198  43.611  50.452  1.00  0.00     0.001 A 
HETATM   10  C   UNL     1      24.857  43.629  51.689  1.00  0.00     0.014 A 
ENDROOT
BRANCH   6  11
HETATM   11  C   UNL     1      26.476  44.400  54.586  1.00  0.00     0.252 C 
BRANCH  11  12
HETATM   12  N   UNL     1      25.533  43.338  54.989  1.00  0.00    -0.067 N 
HETATM   13  H   UNL     1      25.986  42.682  55.626  1.00  0.00     0.275 HD
HETATM   14  H   UNL     1      24.741  43.755  55.487  1.00  0.00     0.275 HD
HETATM   15  H   UNL     1      25.187  42.838  54.165  1.00  0.00     0.275 HD
ENDBRANCH  11  12
BRANCH  11  16
HETATM   16  C   UNL     1      27.832  43.822  54.237  1.00  0.00    -0.024 A 
HETATM   17  C   UNL     1      28.972  44.293  54.915  1.00  0.00     0.009 A 
HETATM   18  C   UNL     1      30.232  43.746  54.666  1.00  0.00     0.001 A 
HETATM   19  C   UNL     1      30.377  42.718  53.740  1.00  0.00     0.000 A 
HETATM   20  C   UNL     1      29.264  42.238  53.057  1.00  0.00     0.001 A 
HETATM   21  C   UNL     1      28.000  42.781  53.304  1.00  0.00     0.009 A 
ENDBRANCH  11  16
ENDBRANCH   6  11
BRANCH   1  22
HETATM   22  C   UNL     1      26.764  47.544  54.326  1.00  0.00     0.310 C 
HETATM   23  O   UNL     1      27.968  47.692  54.480  1.00  0.00    -0.258 OA
BRANCH  22  24
HETATM   24  O   UNL     1      25.784  48.155  55.041  1.00  0.00    -0.317 OA
BRANCH  24  25
HETATM   25  C   UNL     1      26.225  49.031  56.091  1.00  0.00     0.175 C 
HETATM   26  C   UNL     1      26.442  48.242  57.369  1.00  0.00     0.034 C 
ENDBRANCH  24  25
ENDBRANCH  22  24
ENDBRANCH   1  22
TORSDOF 6
ENDMDL
MODEL 9
REMARK VINA RESULT:      -6.6      3.584      5.431
REMARK  6 active torsions:
REMARK  status: ('A' for Active; 'I' for Inactive)
REMARK    1  A    between atoms: C_2  and  O_3 
REMARK    2  A    between atoms: O_3  and  C_4 
REMARK    3  A    between atoms: C_4  and  C_5 
REMARK    4  A    between atoms: C_10  and  C_11 
REMARK    5  A    between atoms: C_11  and  N_12 
REMARK    6  A    between atoms: C_11  and  C_16 
ROOT
HETATM    1  C   UNL     1      26.643  42.872  50.004  1.00  0.00     0.118 A 
HETATM    2  N   UNL     1      26.436  44.008  49.261  1.00  0.00    -0.350 N 
HETATM    3  H   UNL     1      26.386  44.024  48.249  1.00  0.00     0.166 HD
HETATM    4  C   UNL     1      26.336  45.109  50.068  1.00  0.00     0.043 A 
HETATM    5  C   UNL     1      26.442  44.675  51.389  1.00  0.00     0.002 A 
HETATM    6  C   UNL     1      26.624  43.240  51.355  1.00  0.00     0.022 A 
HETATM    7  C   UNL     1      26.153  46.451  49.710  1.00  0.00     0.030 A 
HETATM    8  C   UNL     1      26.074  47.393  50.734  1.00  0.00     0.002 A 
HETATM    9  C   UNL     1      26.168  47.004  52.064  1.00  0.00     0.001 A 
HETATM   10  C   UNL     1      26.348  45.656  52.405  1.00  0.00     0.014 A 
ENDROOT
BRANCH   6  11
HETATM   11  C   UNL     1      26.805  42.281  52.502  1.00  0.00     0.252 C 
BRANCH  11  12
HETATM   12  N   UNL     1      26.808  40.854  52.127  1.00  0.00    -0.067 N 
HETATM   13  H   UNL     1      27.618  40.639  51.544  1.00  0.00     0.275 HD
HETATM   14  H   UNL     1      26.874  40.277  52.971  1.00  0.00     0.275 HD
HETATM   15  H   UNL     1      25.948  40.616  51.623  1.00  0.00     0.275 HD
ENDBRANCH  11  12
BRANCH  11  16
HETATM   16  C   UNL     1      28.079  42.655  53.232  1.00  0.00    -0.024 A 
HETATM   17  C   UNL     1      29.321  42.340  52.646  1.00  0.00     0.009 A 
HETATM   18  C   UNL     1      30.518  42.719  53.255  1.00  0.00     0.001 A 
HETATM   19  C   UNL     1      30.499  43.420  54.457  1.00  0.00     0.000 A 
HETATM   20  C   UNL     1      29.284  43.740  55.054  1.00  0.00     0.001 A 
HETATM   21  C   UNL     1      28.083  43.365  54.447  1.00  0.00     0.009 A 
ENDBRANCH  11  16
ENDBRANCH   6  11
BRANCH   1  22
HETATM   22  C   UNL     1      26.841  41.563  49.418  1.00  0.00     0.310 C 
HETATM   23  O   UNL     1      27.910  41.164  48.975  1.00  0.00    -0.258 OA
BRANCH  22  24
HETATM   24  O   UNL     1      25.666  40.883  49.405  1.00  0.00    -0.317 OA
BRANCH  24  25
HETATM   25  C   UNL     1      24.994  40.811  48.137  1.00  0.00     0.175 C 
HETATM   26  C   UNL     1      23.622  41.453  48.240  1.00  0.00     0.034 C 
ENDBRANCH  24  25
ENDBRANCH  22  24
ENDBRANCH   1  22
TORSDOF 6
ENDMDL
MODEL 10
REMARK VINA RESULT:      -6.6      5.874      9.146
REMARK  6 active torsions:
REMARK  status: ('A' for Active; 'I' for Inactive)
REMARK    1  A    between atoms: C_2  and  O_3 
REMARK    2  A    between atoms: O_3  and  C_4 
REMARK    3  A    between atoms: C_4  and  C_5 
REMARK    4  A    between atoms: C_10  and  C_11 
REMARK    5  A    between atoms: C_11  and  N_12 
REMARK    6  A    between atoms: C_11  and  C_16 
ROOT
HETATM    1  C   UNL     1      23.407  47.682  49.397  1.00  0.00     0.118 A 
HETATM    2  N   UNL     1      22.970  46.440  49.007  1.00  0.00    -0.350 N 
HETATM    3  H   UNL     1      23.424  45.571  49.263  1.00  0.00     0.166 HD
HETATM    4  C   UNL     1      21.862  46.539  48.209  1.00  0.00     0.043 A 
HETATM    5  C   UNL     1      21.537  47.892  48.103  1.00  0.00     0.002 A 
HETATM    6  C   UNL     1      22.515  48.628  48.875  1.00  0.00     0.022 A 
HETATM    7  C   UNL     1      21.131  45.520  47.585  1.00  0.00     0.030 A 
HETATM    8  C   UNL     1      20.024  45.887  46.822  1.00  0.00     0.002 A 
HETATM    9  C   UNL     1      19.661  47.221  46.695  1.00  0.00     0.001 A 
HETATM   10  C   UNL     1      20.402  48.228  47.329  1.00  0.00     0.014 A 
ENDROOT
BRANCH   6  11
HETATM   11  C   UNL     1      22.632  50.115  49.081  1.00  0.00     0.252 C 
BRANCH  11  12
HETATM   12  N   UNL     1      23.358  50.836  48.018  1.00  0.00    -0.067 N 
HETATM   13  H   UNL     1      23.146  51.835  48.054  1.00  0.00     0.275 HD
HETATM   14  H   UNL     1      24.368  50.731  48.160  1.00  0.00     0.275 HD
HETATM   15  H   UNL     1      23.107  50.463  47.098  1.00  0.00     0.275 HD
ENDBRANCH  11  12
BRANCH  11  16
HETATM   16  C   UNL     1      21.238  50.677  49.266  1.00  0.00    -0.024 A 
HETATM   17  C   UNL     1      20.759  51.637  48.354  1.00  0.00     0.009 A 
HETATM   18  C   UNL     1      19.460  52.136  48.453  1.00  0.00     0.001 A 
HETATM   19  C   UNL     1      18.613  51.685  49.460  1.00  0.00     0.000 A 
HETATM   20  C   UNL     1      19.065  50.738  50.373  1.00  0.00     0.001 A 
HETATM   21  C   UNL     1      20.364  50.233  50.277  1.00  0.00     0.009 A 
ENDBRANCH  11  16
ENDBRANCH   6  11
BRANCH   1  22
HETATM   22  C   UNL     1      24.591  47.893  50.203  1.00  0.00     0.310 C 
HETATM   23  O   UNL     1      24.737  47.452  51.334  1.00  0.00    -0.258 OA
BRANCH  22  24
HETATM   24  O   UNL     1      25.474  48.672  49.527  1.00  0.00    -0.317 OA
BRANCH  24  25
HETATM   25  C   UNL     1      26.809  48.156  49.410  1.00  0.00     0.175 C 
HETATM   26  C   UNL     1      27.777  49.283  49.102  1.00  0.00     0.034 C 
ENDBRANCH  24  25
ENDBRANCH  22  24
ENDBRANCH   1  22
TORSDOF 6
ENDMDL
