MODEL 1
REMARK VINA RESULT:     -10.0      0.000      0.000
REMARK  2 active torsions:
REMARK  status: ('A' for Active; 'I' for Inactive)
REMARK    1  A    between atoms: C_2  and  N_3 
REMARK    2  A    between atoms: N_3  and  C_4 
ROOT
HETATM    1  C   UNL     1      26.177  44.479  52.518  1.00  0.00     0.143 A 
HETATM    2  N   UNL     1      25.406  45.247  51.706  1.00  0.00    -0.223 NA
HETATM    3  C   UNL     1      25.361  46.571  51.881  1.00  0.00     0.236 A 
HETATM    4  N   UNL     1      25.992  47.274  52.812  1.00  0.00    -0.234 NA
HETATM    5  C   UNL     1      26.782  46.511  53.584  1.00  0.00     0.114 A 
HETATM    6  C   UNL     1      26.986  45.139  53.489  1.00  0.00     0.053 A 
HETATM    7  S   UNL     1      27.631  47.233  54.862  1.00  0.00    -0.073 SA
HETATM    8  C   UNL     1      28.344  45.754  55.314  1.00  0.00    -0.008 C 
HETATM    9  C   UNL     1      28.018  44.720  54.445  1.00  0.00    -0.028 C 
HETATM   10  C   UNL     1      28.663  43.363  54.542  1.00  0.00     0.041 C 
HETATM   11  C   UNL     1      30.197  43.398  54.559  1.00  0.00     0.005 C 
HETATM   12  C   UNL     1      30.817  43.824  55.888  1.00  0.00     0.001 C 
HETATM   13  C   UNL     1      30.655  45.308  56.214  1.00  0.00     0.005 C 
HETATM   14  C   UNL     1      29.219  45.708  56.534  1.00  0.00     0.047 C 
ENDROOT
BRANCH   1  15
HETATM   15  N   UNL     1      26.137  43.082  52.367  1.00  0.00    -0.340 N 
HETATM   16  H   UNL     1      25.248  42.676  52.612  1.00  0.00     0.167 HD
BRANCH  15  17
HETATM   17  C   UNL     1      26.872  42.219  51.527  1.00  0.00     0.036 A 
HETATM   18  C   UNL     1      27.657  41.159  51.992  1.00  0.00     0.032 A 
HETATM   19  C   UNL     1      28.370  40.343  51.107  1.00  0.00     0.042 A 
HETATM   20  C   UNL     1      28.261  40.539  49.733  1.00  0.00     0.102 A 
HETATM   21  C   UNL     1      27.451  41.564  49.246  1.00  0.00     0.104 A 
HETATM   22  O   UNL     1      29.056  39.764  48.937  1.00  0.00    -0.348 OA
HETATM   23  C   UNL     1      26.777  42.404  50.137  1.00  0.00     0.069 A 
HETATM   24  O   UNL     1      27.345  41.871  47.916  1.00  0.00    -0.348 OA
HETATM   25  C   UNL     1      26.809  40.787  47.155  1.00  0.00     0.178 C 
HETATM   26  C   UNL     1      27.871  39.758  46.799  1.00  0.00     0.053 C 
HETATM   27  C   UNL     1      28.299  38.969  48.026  1.00  0.00     0.178 C 
ENDBRANCH  15  17
ENDBRANCH   1  15
TORSDOF 2
ENDMDL
MODEL 2
REMARK VINA RESULT:      -9.0      3.434      5.920
REMARK  2 active torsions:
REMARK  status: ('A' for Active; 'I' for Inactive)
REMARK    1  A    between atoms: C_2  and  N_3 
REMARK    2  A    between atoms: N_3  and  C_4 
ROOT
HETATM    1  C   UNL     1      26.424  43.324  51.643  1.00  0.00     0.143 A 
HETATM    2  N   UNL     1      26.434  42.028  51.238  1.00  0.00    -0.223 NA
HETATM    3  C   UNL     1      27.276  41.158  51.801  1.00  0.00     0.236 A 
HETATM    4  N   UNL     1      28.172  41.411  52.745  1.00  0.00    -0.234 NA
HETATM    5  C   UNL     1      28.127  42.685  53.166  1.00  0.00     0.114 A 
HETATM    6  C   UNL     1      27.272  43.690  52.730  1.00  0.00     0.053 A 
HETATM    7  S   UNL     1      29.236  43.205  54.339  1.00  0.00    -0.073 SA
HETATM    8  C   UNL     1      28.592  44.781  54.349  1.00  0.00    -0.008 C 
HETATM    9  C   UNL     1      27.472  44.901  53.534  1.00  0.00    -0.028 C 
HETATM   10  C   UNL     1      26.632  46.152  53.511  1.00  0.00     0.041 C 
HETATM   11  C   UNL     1      26.165  46.617  54.897  1.00  0.00     0.005 C 
HETATM   12  C   UNL     1      27.235  47.311  55.737  1.00  0.00     0.001 C 
HETATM   13  C   UNL     1      28.319  46.379  56.278  1.00  0.00     0.005 C 
HETATM   14  C   UNL     1      29.246  45.832  55.199  1.00  0.00     0.047 C 
ENDROOT
BRANCH   1  15
HETATM   15  N   UNL     1      25.590  44.237  50.973  1.00  0.00    -0.340 N 
HETATM   16  H   UNL     1      24.614  44.126  51.193  1.00  0.00     0.167 HD
BRANCH  15  17
HETATM   17  C   UNL     1      25.850  45.525  50.459  1.00  0.00     0.036 A 
HETATM   18  C   UNL     1      27.088  45.926  49.948  1.00  0.00     0.032 A 
HETATM   19  C   UNL     1      27.284  47.222  49.459  1.00  0.00     0.042 A 
HETATM   20  C   UNL     1      26.224  48.122  49.418  1.00  0.00     0.102 A 
HETATM   21  C   UNL     1      24.970  47.729  49.884  1.00  0.00     0.104 A 
HETATM   22  O   UNL     1      26.512  49.395  49.014  1.00  0.00    -0.348 OA
HETATM   23  C   UNL     1      24.792  46.448  50.413  1.00  0.00     0.069 A 
HETATM   24  O   UNL     1      23.893  48.573  49.949  1.00  0.00    -0.348 OA
HETATM   25  C   UNL     1      23.508  49.052  48.659  1.00  0.00     0.178 C 
HETATM   26  C   UNL     1      24.361  50.228  48.208  1.00  0.00     0.053 C 
HETATM   27  C   UNL     1      25.770  49.777  47.858  1.00  0.00     0.178 C 
ENDBRANCH  15  17
ENDBRANCH   1  15
TORSDOF 2
ENDMDL
MODEL 3
REMARK VINA RESULT:      -8.9      7.542     11.047
REMARK  2 active torsions:
REMARK  status: ('A' for Active; 'I' for Inactive)
REMARK    1  A    between atoms: C_2  and  N_3 
REMARK    2  A    between atoms: N_3  and  C_4 
ROOT
HETATM    1  C   UNL     1      19.572  49.572  49.567  1.00  0.00     0.143 A 
HETATM    2  N   UNL     1      19.059  50.671  50.178  1.00  0.00    -0.223 NA
HETATM    3  C   UNL     1      17.868  51.148  49.807  1.00  0.00     0.236 A 
HETATM    4  N   UNL     1      17.082  50.675  48.850  1.00  0.00    -0.234 NA
HETATM    5  C   UNL     1      17.579  49.566  48.280  1.00  0.00     0.114 A 
HETATM    6  C   UNL     1      18.765  48.913  48.594  1.00  0.00     0.053 A 
HETATM    7  S   UNL     1      16.731  48.846  47.000  1.00  0.00    -0.073 SA
HETATM    8  C   UNL     1      17.886  47.606  46.840  1.00  0.00    -0.008 C 
HETATM    9  C   UNL     1      18.874  47.673  47.816  1.00  0.00    -0.028 C 
HETATM   10  C   UNL     1      19.906  46.589  47.982  1.00  0.00     0.041 C 
HETATM   11  C   UNL     1      19.317  45.178  48.111  1.00  0.00     0.005 C 
HETATM   12  C   UNL     1      18.831  44.561  46.802  1.00  0.00     0.001 C 
HETATM   13  C   UNL     1      17.549  45.181  46.247  1.00  0.00     0.005 C 
HETATM   14  C   UNL     1      17.734  46.603  45.733  1.00  0.00     0.047 C 
ENDROOT
BRANCH   1  15
HETATM   15  N   UNL     1      20.865  49.145  49.916  1.00  0.00    -0.340 N 
HETATM   16  H   UNL     1      20.878  48.279  50.430  1.00  0.00     0.167 HD
BRANCH  15  17
HETATM   17  C   UNL     1      22.117  49.395  49.316  1.00  0.00     0.036 A 
HETATM   18  C   UNL     1      22.399  50.522  48.538  1.00  0.00     0.032 A 
HETATM   19  C   UNL     1      23.661  50.709  47.963  1.00  0.00     0.042 A 
HETATM   20  C   UNL     1      24.683  49.797  48.209  1.00  0.00     0.102 A 
HETATM   21  C   UNL     1      24.436  48.687  49.016  1.00  0.00     0.104 A 
HETATM   22  O   UNL     1      25.858  49.995  47.541  1.00  0.00    -0.348 OA
HETATM   23  C   UNL     1      23.160  48.483  49.551  1.00  0.00     0.069 A 
HETATM   24  O   UNL     1      25.361  47.705  49.249  1.00  0.00    -0.348 OA
HETATM   25  C   UNL     1      26.522  48.207  49.914  1.00  0.00     0.178 C 
HETATM   26  C   UNL     1      27.500  48.855  48.946  1.00  0.00     0.053 C 
HETATM   27  C   UNL     1      26.960  50.178  48.427  1.00  0.00     0.178 C 
ENDBRANCH  15  17
ENDBRANCH   1  15
TORSDOF 2
ENDMDL
MODEL 4
REMARK VINA RESULT:      -8.7      3.756      7.733
REMARK  2 active torsions:
REMARK  status: ('A' for Active; 'I' for Inactive)
REMARK    1  A    between atoms: C_2  and  N_3 
REMARK    2  A    between atoms: N_3  and  C_4 
ROOT
HETATM    1  C   UNL     1      27.347  40.750  51.178  1.00  0.00     0.143 A 
HETATM    2  N   UNL     1      28.489  40.098  50.840  1.00  0.00    -0.223 NA
HETATM    3  C   UNL     1      28.637  39.603  49.608  1.00  0.00     0.236 A 
HETATM    4  N   UNL     1      27.756  39.649  48.618  1.00  0.00    -0.234 NA
HETATM    5  C   UNL     1      26.648  40.330  48.950  1.00  0.00     0.114 A 
HETATM    6  C   UNL     1      26.370  40.955  50.160  1.00  0.00     0.053 A 
HETATM    7  S   UNL     1      25.387  40.451  47.822  1.00  0.00    -0.073 SA
HETATM    8  C   UNL     1      24.435  41.382  48.883  1.00  0.00    -0.008 C 
HETATM    9  C   UNL     1      25.102  41.688  50.064  1.00  0.00    -0.028 C 
HETATM   10  C   UNL     1      24.529  42.641  51.080  1.00  0.00     0.041 C 
HETATM   11  C   UNL     1      24.108  43.997  50.500  1.00  0.00     0.005 C 
HETATM   12  C   UNL     1      22.794  43.985  49.721  1.00  0.00     0.001 C 
HETATM   13  C   UNL     1      22.869  43.287  48.364  1.00  0.00     0.005 C 
HETATM   14  C   UNL     1      23.048  41.776  48.465  1.00  0.00     0.047 C 
ENDROOT
BRANCH   1  15
HETATM   15  N   UNL     1      27.182  41.183  52.505  1.00  0.00    -0.340 N 
HETATM   16  H   UNL     1      26.985  40.435  53.151  1.00  0.00     0.167 HD
BRANCH  15  17
HETATM   17  C   UNL     1      27.686  42.315  53.180  1.00  0.00     0.036 A 
HETATM   18  C   UNL     1      26.954  43.487  53.393  1.00  0.00     0.032 A 
HETATM   19  C   UNL     1      27.515  44.579  54.065  1.00  0.00     0.042 A 
HETATM   20  C   UNL     1      28.801  44.492  54.588  1.00  0.00     0.102 A 
HETATM   21  C   UNL     1      29.534  43.317  54.424  1.00  0.00     0.104 A 
HETATM   22  O   UNL     1      29.315  45.627  55.149  1.00  0.00    -0.348 OA
HETATM   23  C   UNL     1      28.984  42.247  53.713  1.00  0.00     0.069 A 
HETATM   24  O   UNL     1      30.830  43.174  54.841  1.00  0.00    -0.348 OA
HETATM   25  C   UNL     1      30.957  43.316  56.258  1.00  0.00     0.178 C 
HETATM   26  C   UNL     1      31.015  44.775  56.683  1.00  0.00     0.053 C 
HETATM   27  C   UNL     1      29.660  45.445  56.521  1.00  0.00     0.178 C 
ENDBRANCH  15  17
ENDBRANCH   1  15
TORSDOF 2
ENDMDL
MODEL 5
REMARK VINA RESULT:      -8.7      1.510      2.184
REMARK  2 active torsions:
REMARK  status: ('A' for Active; 'I' for Inactive)
REMARK    1  A    between atoms: C_2  and  N_3 
REMARK    2  A    between atoms: N_3  and  C_4 
ROOT
HETATM    1  C   UNL     1      25.322  43.786  51.607  1.00  0.00     0.143 A 
HETATM    2  N   UNL     1      24.572  44.536  50.758  1.00  0.00    -0.223 NA
HETATM    3  C   UNL     1      24.575  45.867  50.862  1.00  0.00     0.236 A 
HETATM    4  N   UNL     1      25.236  46.597  51.750  1.00  0.00    -0.234 NA
HETATM    5  C   UNL     1      26.005  45.850  52.558  1.00  0.00     0.114 A 
HETATM    6  C   UNL     1      26.160  44.468  52.536  1.00  0.00     0.053 A 
HETATM    7  S   UNL     1      26.888  46.609  53.790  1.00  0.00    -0.073 SA
HETATM    8  C   UNL     1      27.551  45.133  54.319  1.00  0.00    -0.008 C 
HETATM    9  C   UNL     1      27.184  44.066  53.508  1.00  0.00    -0.028 C 
HETATM   10  C   UNL     1      27.782  42.693  53.675  1.00  0.00     0.041 C 
HETATM   11  C   UNL     1      29.317  42.676  53.682  1.00  0.00     0.005 C 
HETATM   12  C   UNL     1      29.960  43.151  54.983  1.00  0.00     0.001 C 
HETATM   13  C   UNL     1      29.852  44.655  55.229  1.00  0.00     0.005 C 
HETATM   14  C   UNL     1      28.433  45.122  55.534  1.00  0.00     0.047 C 
ENDROOT
BRANCH   1  15
HETATM   15  N   UNL     1      25.232  42.385  51.531  1.00  0.00    -0.340 N 
HETATM   16  H   UNL     1      24.536  41.993  52.144  1.00  0.00     0.167 HD
BRANCH  15  17
HETATM   17  C   UNL     1      25.548  41.491  50.486  1.00  0.00     0.036 A 
HETATM   18  C   UNL     1      24.922  41.499  49.236  1.00  0.00     0.032 A 
HETATM   19  C   UNL     1      25.275  40.580  48.243  1.00  0.00     0.042 A 
HETATM   20  C   UNL     1      26.306  39.672  48.465  1.00  0.00     0.102 A 
HETATM   21  C   UNL     1      26.972  39.673  49.690  1.00  0.00     0.104 A 
HETATM   22  O   UNL     1      26.533  38.746  47.486  1.00  0.00    -0.348 OA
HETATM   23  C   UNL     1      26.584  40.565  50.694  1.00  0.00     0.069 A 
HETATM   24  O   UNL     1      27.945  38.768  50.019  1.00  0.00    -0.348 OA
HETATM   25  C   UNL     1      29.078  38.859  49.152  1.00  0.00     0.178 C 
HETATM   26  C   UNL     1      28.863  38.106  47.848  1.00  0.00     0.053 C 
HETATM   27  C   UNL     1      27.857  38.825  46.963  1.00  0.00     0.178 C 
ENDBRANCH  15  17
ENDBRANCH   1  15
TORSDOF 2
ENDMDL
MODEL 6
REMARK VINA RESULT:      -8.6      4.484      8.065
REMARK  2 active torsions:
REMARK  status: ('A' for Active; 'I' for Inactive)
REMARK    1  A    between atoms: C_2  and  N_3 
REMARK    2  A    between atoms: N_3  and  C_4 
ROOT
HETATM    1  C   UNL     1      24.237  45.281  49.191  1.00  0.00     0.143 A 
HETATM    2  N   UNL     1      23.990  43.971  48.935  1.00  0.00    -0.223 NA
HETATM    3  C   UNL     1      22.775  43.584  48.536  1.00  0.00     0.236 A 
HETATM    4  N   UNL     1      21.708  44.354  48.368  1.00  0.00    -0.234 NA
HETATM    5  C   UNL     1      21.973  45.652  48.585  1.00  0.00     0.114 A 
HETATM    6  C   UNL     1      23.192  46.218  48.940  1.00  0.00     0.053 A 
HETATM    7  S   UNL     1      20.714  46.782  48.462  1.00  0.00    -0.073 SA
HETATM    8  C   UNL     1      21.751  48.080  48.833  1.00  0.00    -0.008 C 
HETATM    9  C   UNL     1      23.076  47.681  48.959  1.00  0.00    -0.028 C 
HETATM   10  C   UNL     1      24.198  48.675  49.116  1.00  0.00     0.041 C 
HETATM   11  C   UNL     1      24.215  49.774  48.045  1.00  0.00     0.005 C 
HETATM   12  C   UNL     1      23.171  50.872  48.232  1.00  0.00     0.001 C 
HETATM   13  C   UNL     1      21.735  50.437  47.941  1.00  0.00     0.005 C 
HETATM   14  C   UNL     1      21.174  49.460  48.968  1.00  0.00     0.047 C 
ENDROOT
BRANCH   1  15
HETATM   15  N   UNL     1      25.498  45.647  49.693  1.00  0.00    -0.340 N 
HETATM   16  H   UNL     1      25.853  46.505  49.304  1.00  0.00     0.167 HD
BRANCH  15  17
HETATM   17  C   UNL     1      26.129  45.349  50.919  1.00  0.00     0.036 A 
HETATM   18  C   UNL     1      27.001  44.272  51.107  1.00  0.00     0.032 A 
HETATM   19  C   UNL     1      27.590  44.025  52.351  1.00  0.00     0.042 A 
HETATM   20  C   UNL     1      27.362  44.890  53.417  1.00  0.00     0.102 A 
HETATM   21  C   UNL     1      26.529  45.994  53.241  1.00  0.00     0.104 A 
HETATM   22  O   UNL     1      27.895  44.535  54.624  1.00  0.00    -0.348 OA
HETATM   23  C   UNL     1      25.908  46.210  52.007  1.00  0.00     0.069 A 
HETATM   24  O   UNL     1      26.192  46.852  54.254  1.00  0.00    -0.348 OA
HETATM   25  C   UNL     1      27.334  47.522  54.791  1.00  0.00     0.178 C 
HETATM   26  C   UNL     1      28.074  46.665  55.807  1.00  0.00     0.053 C 
HETATM   27  C   UNL     1      28.800  45.516  55.126  1.00  0.00     0.178 C 
ENDBRANCH  15  17
ENDBRANCH   1  15
TORSDOF 2
ENDMDL
MODEL 7
REMARK VINA RESULT:      -8.5      6.789     10.396
REMARK  2 active torsions:
REMARK  status: ('A' for Active; 'I' for Inactive)
REMARK    1  A    between atoms: C_2  and  N_3 
REMARK    2  A    between atoms: N_3  and  C_4 
ROOT
HETATM    1  C   UNL     1      24.484  49.560  48.104  1.00  0.00     0.143 A 
HETATM    2  N   UNL     1      25.516  50.389  47.805  1.00  0.00    -0.223 NA
HETATM    3  C   UNL     1      26.732  50.150  48.305  1.00  0.00     0.236 A 
HETATM    4  N   UNL     1      27.080  49.163  49.119  1.00  0.00    -0.234 NA
HETATM    5  C   UNL     1      26.062  48.327  49.376  1.00  0.00     0.114 A 
HETATM    6  C   UNL     1      24.763  48.401  48.885  1.00  0.00     0.053 A 
HETATM    7  S   UNL     1      26.309  47.029  50.438  1.00  0.00    -0.073 SA
HETATM    8  C   UNL     1      24.707  46.483  50.254  1.00  0.00    -0.008 C 
HETATM    9  C   UNL     1      24.000  47.223  49.314  1.00  0.00    -0.028 C 
HETATM   10  C   UNL     1      22.621  46.824  48.858  1.00  0.00     0.041 C 
HETATM   11  C   UNL     1      22.517  45.370  48.377  1.00  0.00     0.005 C 
HETATM   12  C   UNL     1      22.488  44.325  49.490  1.00  0.00     0.001 C 
HETATM   13  C   UNL     1      23.823  44.124  50.205  1.00  0.00     0.005 C 
HETATM   14  C   UNL     1      24.237  45.311  51.067  1.00  0.00     0.047 C 
ENDROOT
BRANCH   1  15
HETATM   15  N   UNL     1      23.198  49.884  47.636  1.00  0.00    -0.340 N 
HETATM   16  H   UNL     1      22.977  49.470  46.745  1.00  0.00     0.167 HD
BRANCH  15  17
HETATM   17  C   UNL     1      22.024  50.249  48.330  1.00  0.00     0.036 A 
HETATM   18  C   UNL     1      22.005  50.674  49.661  1.00  0.00     0.032 A 
HETATM   19  C   UNL     1      20.805  51.014  50.295  1.00  0.00     0.042 A 
HETATM   20  C   UNL     1      19.608  50.991  49.586  1.00  0.00     0.102 A 
HETATM   21  C   UNL     1      19.610  50.610  48.245  1.00  0.00     0.104 A 
HETATM   22  O   UNL     1      18.468  51.246  50.294  1.00  0.00    -0.348 OA
HETATM   23  C   UNL     1      20.806  50.228  47.630  1.00  0.00     0.069 A 
HETATM   24  O   UNL     1      18.471  50.489  47.495  1.00  0.00    -0.348 OA
HETATM   25  C   UNL     1      17.776  51.732  47.369  1.00  0.00     0.178 C 
HETATM   26  C   UNL     1      16.908  52.026  48.583  1.00  0.00     0.053 C 
HETATM   27  C   UNL     1      17.760  52.378  49.792  1.00  0.00     0.178 C 
ENDBRANCH  15  17
ENDBRANCH   1  15
TORSDOF 2
ENDMDL
MODEL 8
REMARK VINA RESULT:      -8.2     13.436     15.316
REMARK  2 active torsions:
REMARK  status: ('A' for Active; 'I' for Inactive)
REMARK    1  A    between atoms: C_2  and  N_3 
REMARK    2  A    between atoms: N_3  and  C_4 
ROOT
HETATM    1  C   UNL     1      31.206  48.830  41.376  1.00  0.00     0.143 A 
HETATM    2  N   UNL     1      31.632  47.579  41.064  1.00  0.00    -0.223 NA
HETATM    3  C   UNL     1      31.221  46.996  39.934  1.00  0.00     0.236 A 
HETATM    4  N   UNL     1      30.387  47.498  39.034  1.00  0.00    -0.234 NA
HETATM    5  C   UNL     1      30.004  48.750  39.332  1.00  0.00     0.114 A 
HETATM    6  C   UNL     1      30.390  49.513  40.429  1.00  0.00     0.053 A 
HETATM    7  S   UNL     1      28.897  49.537  38.317  1.00  0.00    -0.073 SA
HETATM    8  C   UNL     1      28.921  50.947  39.271  1.00  0.00    -0.008 C 
HETATM    9  C   UNL     1      29.838  50.868  40.312  1.00  0.00    -0.028 C 
HETATM   10  C   UNL     1      30.158  52.053  41.185  1.00  0.00     0.041 C 
HETATM   11  C   UNL     1      30.551  53.316  40.407  1.00  0.00     0.005 C 
HETATM   12  C   UNL     1      29.385  54.064  39.763  1.00  0.00     0.001 C 
HETATM   13  C   UNL     1      28.772  53.359  38.554  1.00  0.00     0.005 C 
HETATM   14  C   UNL     1      28.011  52.087  38.912  1.00  0.00     0.047 C 
ENDROOT
BRANCH   1  15
HETATM   15  N   UNL     1      31.584  49.384  42.612  1.00  0.00    -0.340 N 
HETATM   16  H   UNL     1      31.323  48.818  43.403  1.00  0.00     0.167 HD
BRANCH  15  17
HETATM   17  C   UNL     1      32.624  50.276  42.949  1.00  0.00     0.036 A 
HETATM   18  C   UNL     1      32.561  51.184  44.010  1.00  0.00     0.032 A 
HETATM   19  C   UNL     1      33.625  52.049  44.288  1.00  0.00     0.042 A 
HETATM   20  C   UNL     1      34.798  51.976  43.542  1.00  0.00     0.102 A 
HETATM   21  C   UNL     1      34.898  51.049  42.506  1.00  0.00     0.104 A 
HETATM   22  O   UNL     1      35.756  52.912  43.811  1.00  0.00    -0.348 OA
HETATM   23  C   UNL     1      33.814  50.219  42.205  1.00  0.00     0.069 A 
HETATM   24  O   UNL     1      35.985  50.962  41.677  1.00  0.00    -0.348 OA
HETATM   25  C   UNL     1      37.178  50.626  42.389  1.00  0.00     0.178 C 
HETATM   26  C   UNL     1      37.815  51.842  43.044  1.00  0.00     0.053 C 
HETATM   27  C   UNL     1      36.987  52.323  44.225  1.00  0.00     0.178 C 
ENDBRANCH  15  17
ENDBRANCH   1  15
TORSDOF 2
ENDMDL
MODEL 9
REMARK VINA RESULT:      -8.1      6.194      9.645
REMARK  2 active torsions:
REMARK  status: ('A' for Active; 'I' for Inactive)
REMARK    1  A    between atoms: C_2  and  N_3 
REMARK    2  A    between atoms: N_3  and  C_4 
ROOT
HETATM    1  C   UNL     1      24.203  47.625  49.622  1.00  0.00     0.143 A 
HETATM    2  N   UNL     1      25.022  48.691  49.429  1.00  0.00    -0.223 NA
HETATM    3  C   UNL     1      26.344  48.513  49.355  1.00  0.00     0.236 A 
HETATM    4  N   UNL     1      27.003  47.368  49.472  1.00  0.00    -0.234 NA
HETATM    5  C   UNL     1      26.182  46.317  49.622  1.00  0.00     0.114 A 
HETATM    6  C   UNL     1      24.792  46.328  49.655  1.00  0.00     0.053 A 
HETATM    7  S   UNL     1      26.850  44.773  49.836  1.00  0.00    -0.073 SA
HETATM    8  C   UNL     1      25.314  44.047  49.935  1.00  0.00    -0.008 C 
HETATM    9  C   UNL     1      24.284  44.952  49.713  1.00  0.00    -0.028 C 
HETATM   10  C   UNL     1      22.849  44.512  49.582  1.00  0.00     0.041 C 
HETATM   11  C   UNL     1      22.627  43.399  48.550  1.00  0.00     0.005 C 
HETATM   12  C   UNL     1      23.048  42.004  49.007  1.00  0.00     0.001 C 
HETATM   13  C   UNL     1      24.559  41.795  49.093  1.00  0.00     0.005 C 
HETATM   14  C   UNL     1      25.219  42.576  50.223  1.00  0.00     0.047 C 
ENDROOT
BRANCH   1  15
HETATM   15  N   UNL     1      22.825  47.852  49.784  1.00  0.00    -0.340 N 
HETATM   16  H   UNL     1      22.541  47.936  50.746  1.00  0.00     0.167 HD
BRANCH  15  17
HETATM   17  C   UNL     1      21.875  48.442  48.923  1.00  0.00     0.036 A 
HETATM   18  C   UNL     1      21.147  47.735  47.962  1.00  0.00     0.032 A 
HETATM   19  C   UNL     1      20.224  48.382  47.132  1.00  0.00     0.042 A 
HETATM   20  C   UNL     1      19.971  49.740  47.293  1.00  0.00     0.102 A 
HETATM   21  C   UNL     1      20.655  50.457  48.274  1.00  0.00     0.104 A 
HETATM   22  O   UNL     1      19.127  50.321  46.389  1.00  0.00    -0.348 OA
HETATM   23  C   UNL     1      21.609  49.814  49.069  1.00  0.00     0.069 A 
HETATM   24  O   UNL     1      20.521  51.808  48.451  1.00  0.00    -0.348 OA
HETATM   25  C   UNL     1      19.186  52.174  48.804  1.00  0.00     0.178 C 
HETATM   26  C   UNL     1      18.280  52.275  47.586  1.00  0.00     0.053 C 
HETATM   27  C   UNL     1      17.982  50.900  47.011  1.00  0.00     0.178 C 
ENDBRANCH  15  17
ENDBRANCH   1  15
TORSDOF 2
ENDMDL
MODEL 10
REMARK VINA RESULT:      -7.9      5.802      8.504
REMARK  2 active torsions:
REMARK  status: ('A' for Active; 'I' for Inactive)
REMARK    1  A    between atoms: C_2  and  N_3 
REMARK    2  A    between atoms: N_3  and  C_4 
ROOT
HETATM    1  C   UNL     1      20.551  45.638  47.984  1.00  0.00     0.143 A 
HETATM    2  N   UNL     1      19.597  44.727  47.662  1.00  0.00    -0.223 NA
HETATM    3  C   UNL     1      18.305  45.026  47.819  1.00  0.00     0.236 A 
HETATM    4  N   UNL     1      17.800  46.155  48.297  1.00  0.00    -0.234 NA
HETATM    5  C   UNL     1      18.748  47.064  48.576  1.00  0.00     0.114 A 
HETATM    6  C   UNL     1      20.122  46.930  48.408  1.00  0.00     0.053 A 
HETATM    7  S   UNL     1      18.291  48.554  49.243  1.00  0.00    -0.073 SA
HETATM    8  C   UNL     1      19.902  49.103  49.294  1.00  0.00    -0.008 C 
HETATM    9  C   UNL     1      20.788  48.200  48.719  1.00  0.00    -0.028 C 
HETATM   10  C   UNL     1      22.239  48.539  48.496  1.00  0.00     0.041 C 
HETATM   11  C   UNL     1      22.466  49.854  47.738  1.00  0.00     0.005 C 
HETATM   12  C   UNL     1      22.264  51.119  48.568  1.00  0.00     0.001 C 
HETATM   13  C   UNL     1      20.807  51.424  48.914  1.00  0.00     0.005 C 
HETATM   14  C   UNL     1      20.198  50.442  49.907  1.00  0.00     0.047 C 
ENDROOT
BRANCH   1  15
HETATM   15  N   UNL     1      21.903  45.265  47.892  1.00  0.00    -0.340 N 
HETATM   16  H   UNL     1      22.417  45.783  47.197  1.00  0.00     0.167 HD
BRANCH  15  17
HETATM   17  C   UNL     1      22.774  44.694  48.843  1.00  0.00     0.036 A 
HETATM   18  C   UNL     1      22.561  43.453  49.450  1.00  0.00     0.032 A 
HETATM   19  C   UNL     1      23.460  42.944  50.394  1.00  0.00     0.042 A 
HETATM   20  C   UNL     1      24.622  43.645  50.702  1.00  0.00     0.102 A 
HETATM   21  C   UNL     1      24.875  44.866  50.077  1.00  0.00     0.104 A 
HETATM   22  O   UNL     1      25.404  43.133  51.698  1.00  0.00    -0.348 OA
HETATM   23  C   UNL     1      23.950  45.390  49.169  1.00  0.00     0.069 A 
HETATM   24  O   UNL     1      25.954  45.655  50.376  1.00  0.00    -0.348 OA
HETATM   25  C   UNL     1      27.192  45.001  50.091  1.00  0.00     0.178 C 
HETATM   26  C   UNL     1      27.612  44.059  51.208  1.00  0.00     0.053 C 
HETATM   27  C   UNL     1      26.722  42.826  51.247  1.00  0.00     0.178 C 
ENDBRANCH  15  17
ENDBRANCH   1  15
TORSDOF 2
ENDMDL
