MODEL 1
REMARK VINA RESULT:     -10.8      0.000      0.000
REMARK  7 active torsions:
REMARK  status: ('A' for Active; 'I' for Inactive)
REMARK    1  A    between atoms: C_5  and  O_6 
REMARK    2  A    between atoms: O_6  and  C_7 
REMARK    3  A    between atoms: C_7  and  C_8 
REMARK    4  A    between atoms: C_9  and  C_10 
REMARK    5  A    between atoms: C_10  and  N_11 
REMARK       I    between atoms: N_11  and  C_12 
REMARK    6  A    between atoms: C_12  and  C_13 
REMARK    7  A    between atoms: C_17  and  C_18 
ROOT
HETATM    1  N   UNL     1      24.626  47.604  50.321  1.00  0.00    -0.345 N 
HETATM    2  C   UNL     1      24.340  48.605  49.426  1.00  0.00     0.270 C 
HETATM    3  O   UNL     1      25.200  49.163  48.751  1.00  0.00    -0.266 OA
HETATM    4  H   UNL     1      23.912  47.279  50.952  1.00  0.00     0.163 HD
ENDROOT
BRANCH   1   5
HETATM    5  C   UNL     1      25.973  47.132  50.528  1.00  0.00     0.217 C 
BRANCH   5   6
HETATM    6  C   UNL     1      26.168  46.721  51.921  1.00  0.00    -0.085 C 
HETATM    7  C   UNL     1      26.325  46.331  53.047  1.00  0.00    -0.078 C 
BRANCH   7   8
HETATM    8  C   UNL     1      26.522  45.807  54.406  1.00  0.00     0.269 C 
BRANCH   8   9
HETATM    9  O   UNL     1      27.855  46.100  54.818  1.00  0.00    -0.339 OA
BRANCH   9  10
HETATM   10  C   UNL     1      28.769  45.073  54.828  1.00  0.00     0.081 A 
HETATM   11  C   UNL     1      29.612  45.003  55.969  1.00  0.00     0.007 A 
HETATM   12  C   UNL     1      30.580  43.973  56.051  1.00  0.00    -0.023 A 
HETATM   13  C   UNL     1      29.530  45.919  57.042  1.00  0.00     0.015 A 
HETATM   14  C   UNL     1      31.421  43.889  57.173  1.00  0.00     0.012 A 
HETATM   15  C   UNL     1      30.692  43.043  55.008  1.00  0.00     0.012 A 
HETATM   16  C   UNL     1      31.319  44.809  58.216  1.00  0.00     0.001 A 
HETATM   17  C   UNL     1      30.372  45.824  58.152  1.00  0.00     0.001 A 
HETATM   18  C   UNL     1      29.861  43.123  53.892  1.00  0.00     0.004 A 
HETATM   19  C   UNL     1      28.905  44.134  53.801  1.00  0.00     0.038 A 
ENDBRANCH   9  10
ENDBRANCH   8   9
ENDBRANCH   7   8
ENDBRANCH   5   6
ENDBRANCH   1   5
BRANCH   2  20
HETATM   20  C   UNL     1      22.950  48.960  49.324  1.00  0.00     0.120 A 
HETATM   21  N   UNL     1      21.973  48.004  49.308  1.00  0.00    -0.272 N 
HETATM   22  H   UNL     1      22.108  46.999  49.355  1.00  0.00     0.189 HD
HETATM   23  N   UNL     1      20.727  48.491  49.223  1.00  0.00    -0.174 NA
HETATM   24  C   UNL     1      20.881  49.824  49.218  1.00  0.00     0.089 A 
HETATM   25  C   UNL     1      22.267  50.158  49.258  1.00  0.00     0.071 A 
BRANCH  24  26
HETATM   26  C   UNL     1      19.726  50.729  49.184  1.00  0.00    -0.005 A 
HETATM   27  C   UNL     1      19.762  51.930  48.457  1.00  0.00     0.017 A 
HETATM   28  C   UNL     1      18.658  52.788  48.445  1.00  0.00     0.043 A 
HETATM   29  C   UNL     1      17.516  52.449  49.158  1.00  0.00     0.116 A 
HETATM   30  F   UNL     1      16.461  53.275  49.147  1.00  0.00    -0.206 F 
HETATM   31  C   UNL     1      17.454  51.269  49.887  1.00  0.00     0.043 A 
HETATM   32  C   UNL     1      18.558  50.412  49.901  1.00  0.00     0.017 A 
ENDBRANCH  24  26
ENDBRANCH   2  20
TORSDOF 7
ENDMDL
MODEL 2
REMARK VINA RESULT:     -10.6      0.727      2.130
REMARK  7 active torsions:
REMARK  status: ('A' for Active; 'I' for Inactive)
REMARK    1  A    between atoms: C_5  and  O_6 
REMARK    2  A    between atoms: O_6  and  C_7 
REMARK    3  A    between atoms: C_7  and  C_8 
REMARK    4  A    between atoms: C_9  and  C_10 
REMARK    5  A    between atoms: C_10  and  N_11 
REMARK       I    between atoms: N_11  and  C_12 
REMARK    6  A    between atoms: C_12  and  C_13 
REMARK    7  A    between atoms: C_17  and  C_18 
ROOT
HETATM    1  N   UNL     1      24.406  47.175  50.221  1.00  0.00    -0.345 N 
HETATM    2  C   UNL     1      24.227  48.391  49.609  1.00  0.00     0.270 C 
HETATM    3  O   UNL     1      25.161  49.092  49.232  1.00  0.00    -0.266 OA
HETATM    4  H   UNL     1      23.619  46.706  50.639  1.00  0.00     0.163 HD
ENDROOT
BRANCH   1   5
HETATM    5  C   UNL     1      25.720  46.632  50.464  1.00  0.00     0.217 C 
BRANCH   5   6
HETATM    6  C   UNL     1      26.086  46.776  51.875  1.00  0.00    -0.085 C 
HETATM    7  C   UNL     1      26.366  46.945  53.032  1.00  0.00    -0.078 C 
BRANCH   7   8
HETATM    8  C   UNL     1      26.679  47.194  54.446  1.00  0.00     0.269 C 
BRANCH   8   9
HETATM    9  O   UNL     1      26.813  45.940  55.110  1.00  0.00    -0.339 OA
BRANCH   9  10
HETATM   10  C   UNL     1      28.060  45.576  55.562  1.00  0.00     0.081 A 
HETATM   11  C   UNL     1      28.722  44.567  54.814  1.00  0.00     0.007 A 
HETATM   12  C   UNL     1      30.010  44.139  55.220  1.00  0.00    -0.023 A 
HETATM   13  C   UNL     1      28.155  43.963  53.670  1.00  0.00     0.015 A 
HETATM   14  C   UNL     1      30.678  43.142  54.490  1.00  0.00     0.012 A 
HETATM   15  C   UNL     1      30.607  44.715  56.349  1.00  0.00     0.012 A 
HETATM   16  C   UNL     1      30.093  42.562  53.365  1.00  0.00     0.001 A 
HETATM   17  C   UNL     1      28.831  42.972  52.954  1.00  0.00     0.001 A 
HETATM   18  C   UNL     1      29.947  45.703  57.077  1.00  0.00     0.004 A 
HETATM   19  C   UNL     1      28.678  46.131  56.687  1.00  0.00     0.038 A 
ENDBRANCH   9  10
ENDBRANCH   8   9
ENDBRANCH   7   8
ENDBRANCH   5   6
ENDBRANCH   1   5
BRANCH   2  20
HETATM   20  C   UNL     1      22.858  48.793  49.428  1.00  0.00     0.120 A 
HETATM   21  N   UNL     1      21.866  47.872  49.249  1.00  0.00    -0.272 N 
HETATM   22  H   UNL     1      21.974  46.862  49.217  1.00  0.00     0.189 HD
HETATM   23  N   UNL     1      20.641  48.400  49.109  1.00  0.00    -0.174 NA
HETATM   24  C   UNL     1      20.825  49.723  49.235  1.00  0.00     0.089 A 
HETATM   25  C   UNL     1      22.209  50.012  49.415  1.00  0.00     0.071 A 
BRANCH  24  26
HETATM   26  C   UNL     1      19.696  50.661  49.190  1.00  0.00    -0.005 A 
HETATM   27  C   UNL     1      19.748  51.826  48.408  1.00  0.00     0.017 A 
HETATM   28  C   UNL     1      18.670  52.717  48.385  1.00  0.00     0.043 A 
HETATM   29  C   UNL     1      17.538  52.445  49.143  1.00  0.00     0.116 A 
HETATM   30  F   UNL     1      16.508  53.302  49.121  1.00  0.00    -0.206 F 
HETATM   31  C   UNL     1      17.462  51.301  49.926  1.00  0.00     0.043 A 
HETATM   32  C   UNL     1      18.540  50.413  49.951  1.00  0.00     0.017 A 
ENDBRANCH  24  26
ENDBRANCH   2  20
TORSDOF 7
ENDMDL
MODEL 3
REMARK VINA RESULT:     -10.4      1.045      1.399
REMARK  7 active torsions:
REMARK  status: ('A' for Active; 'I' for Inactive)
REMARK    1  A    between atoms: C_5  and  O_6 
REMARK    2  A    between atoms: O_6  and  C_7 
REMARK    3  A    between atoms: C_7  and  C_8 
REMARK    4  A    between atoms: C_9  and  C_10 
REMARK    5  A    between atoms: C_10  and  N_11 
REMARK       I    between atoms: N_11  and  C_12 
REMARK    6  A    between atoms: C_12  and  C_13 
REMARK    7  A    between atoms: C_17  and  C_18 
ROOT
HETATM    1  N   UNL     1      23.635  47.849  49.950  1.00  0.00    -0.345 N 
HETATM    2  C   UNL     1      23.183  48.831  49.105  1.00  0.00     0.270 C 
HETATM    3  O   UNL     1      23.921  49.448  48.343  1.00  0.00    -0.266 OA
HETATM    4  H   UNL     1      23.020  47.474  50.655  1.00  0.00     0.163 HD
ENDROOT
BRANCH   1   5
HETATM    5  C   UNL     1      25.025  47.468  49.998  1.00  0.00     0.217 C 
BRANCH   5   6
HETATM    6  C   UNL     1      25.312  46.715  51.222  1.00  0.00    -0.085 C 
HETATM    7  C   UNL     1      25.569  46.058  52.195  1.00  0.00    -0.078 C 
BRANCH   7   8
HETATM    8  C   UNL     1      25.911  45.221  53.355  1.00  0.00     0.269 C 
BRANCH   8   9
HETATM    9  O   UNL     1      27.143  45.684  53.902  1.00  0.00    -0.339 OA
BRANCH   9  10
HETATM   10  C   UNL     1      28.190  44.797  53.982  1.00  0.00     0.081 A 
HETATM   11  C   UNL     1      29.009  44.904  55.136  1.00  0.00     0.007 A 
HETATM   12  C   UNL     1      30.109  44.024  55.288  1.00  0.00    -0.023 A 
HETATM   13  C   UNL     1      28.779  45.855  56.156  1.00  0.00     0.015 A 
HETATM   14  C   UNL     1      30.929  44.118  56.424  1.00  0.00     0.012 A 
HETATM   15  C   UNL     1      30.370  43.066  54.299  1.00  0.00     0.012 A 
HETATM   16  C   UNL     1      30.678  45.067  57.414  1.00  0.00     0.001 A 
HETATM   17  C   UNL     1      29.603  45.937  57.281  1.00  0.00     0.001 A 
HETATM   18  C   UNL     1      29.560  42.971  53.169  1.00  0.00     0.004 A 
HETATM   19  C   UNL     1      28.476  43.833  53.009  1.00  0.00     0.038 A 
ENDBRANCH   9  10
ENDBRANCH   8   9
ENDBRANCH   7   8
ENDBRANCH   5   6
ENDBRANCH   1   5
BRANCH   2  20
HETATM   20  C   UNL     1      21.769  49.091  49.163  1.00  0.00     0.120 A 
HETATM   21  N   UNL     1      20.877  48.098  49.454  1.00  0.00    -0.272 N 
HETATM   22  H   UNL     1      21.093  47.123  49.640  1.00  0.00     0.189 HD
HETATM   23  N   UNL     1      19.598  48.499  49.487  1.00  0.00    -0.174 NA
HETATM   24  C   UNL     1      19.647  49.818  49.243  1.00  0.00     0.089 A 
HETATM   25  C   UNL     1      20.994  50.224  49.013  1.00  0.00     0.071 A 
BRANCH  24  26
HETATM   26  C   UNL     1      18.433  50.643  49.244  1.00  0.00    -0.005 A 
HETATM   27  C   UNL     1      17.229  50.168  48.699  1.00  0.00     0.017 A 
HETATM   28  C   UNL     1      16.084  50.972  48.695  1.00  0.00     0.043 A 
HETATM   29  C   UNL     1      16.139  52.249  49.237  1.00  0.00     0.116 A 
HETATM   30  F   UNL     1      15.041  53.017  49.229  1.00  0.00    -0.206 F 
HETATM   31  C   UNL     1      17.317  52.743  49.781  1.00  0.00     0.043 A 
HETATM   32  C   UNL     1      18.462  51.942  49.782  1.00  0.00     0.017 A 
ENDBRANCH  24  26
ENDBRANCH   2  20
TORSDOF 7
ENDMDL
MODEL 4
REMARK VINA RESULT:     -10.3      1.553      2.318
REMARK  7 active torsions:
REMARK  status: ('A' for Active; 'I' for Inactive)
REMARK    1  A    between atoms: C_5  and  O_6 
REMARK    2  A    between atoms: O_6  and  C_7 
REMARK    3  A    between atoms: C_7  and  C_8 
REMARK    4  A    between atoms: C_9  and  C_10 
REMARK    5  A    between atoms: C_10  and  N_11 
REMARK       I    between atoms: N_11  and  C_12 
REMARK    6  A    between atoms: C_12  and  C_13 
REMARK    7  A    between atoms: C_17  and  C_18 
ROOT
HETATM    1  N   UNL     1      25.157  48.044  49.655  1.00  0.00    -0.345 N 
HETATM    2  C   UNL     1      24.695  49.120  48.939  1.00  0.00     0.270 C 
HETATM    3  O   UNL     1      25.427  49.834  48.261  1.00  0.00    -0.266 OA
HETATM    4  H   UNL     1      24.546  47.578  50.307  1.00  0.00     0.163 HD
ENDROOT
BRANCH   1   5
HETATM    5  C   UNL     1      26.550  47.673  49.656  1.00  0.00     0.217 C 
BRANCH   5   6
HETATM    6  C   UNL     1      26.699  46.225  49.825  1.00  0.00    -0.085 C 
HETATM    7  C   UNL     1      26.852  45.047  50.009  1.00  0.00    -0.078 C 
BRANCH   7   8
HETATM    8  C   UNL     1      27.058  43.617  50.279  1.00  0.00     0.269 C 
BRANCH   8   9
HETATM    9  O   UNL     1      26.844  43.381  51.668  1.00  0.00    -0.339 OA
BRANCH   9  10
HETATM   10  C   UNL     1      27.943  43.322  52.493  1.00  0.00     0.081 A 
HETATM   11  C   UNL     1      27.993  44.288  53.532  1.00  0.00     0.007 A 
HETATM   12  C   UNL     1      29.095  44.291  54.421  1.00  0.00    -0.023 A 
HETATM   13  C   UNL     1      26.984  45.258  53.729  1.00  0.00     0.015 A 
HETATM   14  C   UNL     1      29.159  45.240  55.455  1.00  0.00     0.012 A 
HETATM   15  C   UNL     1      30.116  43.344  54.260  1.00  0.00     0.012 A 
HETATM   16  C   UNL     1      28.149  46.186  55.623  1.00  0.00     0.001 A 
HETATM   17  C   UNL     1      27.060  46.195  54.761  1.00  0.00     0.001 A 
HETATM   18  C   UNL     1      30.058  42.402  53.235  1.00  0.00     0.004 A 
HETATM   19  C   UNL     1      28.978  42.391  52.354  1.00  0.00     0.038 A 
ENDBRANCH   9  10
ENDBRANCH   8   9
ENDBRANCH   7   8
ENDBRANCH   5   6
ENDBRANCH   1   5
BRANCH   2  20
HETATM   20  C   UNL     1      23.280  49.358  49.029  1.00  0.00     0.120 A 
HETATM   21  N   UNL     1      22.411  48.355  49.357  1.00  0.00    -0.272 N 
HETATM   22  H   UNL     1      22.648  47.387  49.553  1.00  0.00     0.189 HD
HETATM   23  N   UNL     1      21.127  48.736  49.415  1.00  0.00    -0.174 NA
HETATM   24  C   UNL     1      21.149  50.051  49.151  1.00  0.00     0.089 A 
HETATM   25  C   UNL     1      22.482  50.476  48.881  1.00  0.00     0.071 A 
BRANCH  24  26
HETATM   26  C   UNL     1      19.921  50.857  49.169  1.00  0.00    -0.005 A 
HETATM   27  C   UNL     1      19.797  52.013  48.383  1.00  0.00     0.017 A 
HETATM   28  C   UNL     1      18.627  52.778  48.421  1.00  0.00     0.043 A 
HETATM   29  C   UNL     1      17.578  52.388  49.244  1.00  0.00     0.116 A 
HETATM   30  F   UNL     1      16.459  53.124  49.280  1.00  0.00    -0.206 F 
HETATM   31  C   UNL     1      17.675  51.250  50.032  1.00  0.00     0.043 A 
HETATM   32  C   UNL     1      18.845  50.487  49.996  1.00  0.00     0.017 A 
ENDBRANCH  24  26
ENDBRANCH   2  20
TORSDOF 7
ENDMDL
MODEL 5
REMARK VINA RESULT:     -10.2      1.438      2.616
REMARK  7 active torsions:
REMARK  status: ('A' for Active; 'I' for Inactive)
REMARK    1  A    between atoms: C_5  and  O_6 
REMARK    2  A    between atoms: O_6  and  C_7 
REMARK    3  A    between atoms: C_7  and  C_8 
REMARK    4  A    between atoms: C_9  and  C_10 
REMARK    5  A    between atoms: C_10  and  N_11 
REMARK       I    between atoms: N_11  and  C_12 
REMARK    6  A    between atoms: C_12  and  C_13 
REMARK    7  A    between atoms: C_17  and  C_18 
ROOT
HETATM    1  N   UNL     1      23.163  48.296  49.782  1.00  0.00    -0.345 N 
HETATM    2  C   UNL     1      22.534  48.936  48.743  1.00  0.00     0.270 C 
HETATM    3  O   UNL     1      23.084  49.167  47.671  1.00  0.00    -0.266 OA
HETATM    4  H   UNL     1      22.720  48.258  50.687  1.00  0.00     0.163 HD
ENDROOT
BRANCH   1   5
HETATM    5  C   UNL     1      24.528  47.844  49.682  1.00  0.00     0.217 C 
BRANCH   5   6
HETATM    6  C   UNL     1      24.799  46.793  50.666  1.00  0.00    -0.085 C 
HETATM    7  C   UNL     1      25.044  45.968  51.505  1.00  0.00    -0.078 C 
BRANCH   7   8
HETATM    8  C   UNL     1      25.359  44.996  52.563  1.00  0.00     0.269 C 
BRANCH   8   9
HETATM    9  O   UNL     1      26.776  44.874  52.661  1.00  0.00    -0.339 OA
BRANCH   9  10
HETATM   10  C   UNL     1      27.397  45.411  53.763  1.00  0.00     0.081 A 
HETATM   11  C   UNL     1      28.522  44.696  54.252  1.00  0.00     0.007 A 
HETATM   12  C   UNL     1      29.215  45.188  55.386  1.00  0.00    -0.023 A 
HETATM   13  C   UNL     1      28.995  43.506  53.655  1.00  0.00     0.015 A 
HETATM   14  C   UNL     1      30.330  44.492  55.882  1.00  0.00     0.012 A 
HETATM   15  C   UNL     1      28.778  46.366  56.006  1.00  0.00     0.012 A 
HETATM   16  C   UNL     1      30.772  43.318  55.272  1.00  0.00     0.001 A 
HETATM   17  C   UNL     1      30.105  42.824  54.158  1.00  0.00     0.001 A 
HETATM   18  C   UNL     1      27.671  47.059  55.519  1.00  0.00     0.004 A 
HETATM   19  C   UNL     1      26.982  46.583  54.404  1.00  0.00     0.038 A 
ENDBRANCH   9  10
ENDBRANCH   8   9
ENDBRANCH   7   8
ENDBRANCH   5   6
ENDBRANCH   1   5
BRANCH   2  20
HETATM   20  C   UNL     1      21.169  49.317  48.991  1.00  0.00     0.120 A 
HETATM   21  N   UNL     1      20.394  48.638  49.887  1.00  0.00    -0.272 N 
HETATM   22  H   UNL     1      20.671  47.831  50.440  1.00  0.00     0.189 HD
HETATM   23  N   UNL     1      19.151  49.122  50.019  1.00  0.00    -0.174 NA
HETATM   24  C   UNL     1      19.111  50.186  49.203  1.00  0.00     0.089 A 
HETATM   25  C   UNL     1      20.355  50.329  48.522  1.00  0.00     0.071 A 
BRANCH  24  26
HETATM   26  C   UNL     1      17.913  51.029  49.102  1.00  0.00    -0.005 A 
HETATM   27  C   UNL     1      17.781  52.201  49.864  1.00  0.00     0.017 A 
HETATM   28  C   UNL     1      16.628  52.987  49.766  1.00  0.00     0.043 A 
HETATM   29  C   UNL     1      15.607  52.604  48.907  1.00  0.00     0.116 A 
HETATM   30  F   UNL     1      14.502  53.358  48.817  1.00  0.00    -0.206 F 
HETATM   31  C   UNL     1      15.711  51.450  48.143  1.00  0.00     0.043 A 
HETATM   32  C   UNL     1      16.862  50.664  48.242  1.00  0.00     0.017 A 
ENDBRANCH  24  26
ENDBRANCH   2  20
TORSDOF 7
ENDMDL
MODEL 6
REMARK VINA RESULT:     -10.0      2.451      4.159
REMARK  7 active torsions:
REMARK  status: ('A' for Active; 'I' for Inactive)
REMARK    1  A    between atoms: C_5  and  O_6 
REMARK    2  A    between atoms: O_6  and  C_7 
REMARK    3  A    between atoms: C_7  and  C_8 
REMARK    4  A    between atoms: C_9  and  C_10 
REMARK    5  A    between atoms: C_10  and  N_11 
REMARK       I    between atoms: N_11  and  C_12 
REMARK    6  A    between atoms: C_12  and  C_13 
REMARK    7  A    between atoms: C_17  and  C_18 
ROOT
HETATM    1  N   UNL     1      26.110  43.993  49.268  1.00  0.00    -0.345 N 
HETATM    2  C   UNL     1      24.900  44.304  49.837  1.00  0.00     0.270 C 
HETATM    3  O   UNL     1      24.180  43.466  50.371  1.00  0.00    -0.266 OA
HETATM    4  H   UNL     1      26.596  44.685  48.719  1.00  0.00     0.163 HD
ENDROOT
BRANCH   1   5
HETATM    5  C   UNL     1      26.624  42.646  49.261  1.00  0.00     0.217 C 
BRANCH   5   6
HETATM    6  C   UNL     1      27.439  42.398  50.453  1.00  0.00    -0.085 C 
HETATM    7  C   UNL     1      28.095  42.142  51.427  1.00  0.00    -0.078 C 
BRANCH   7   8
HETATM    8  C   UNL     1      28.889  41.778  52.610  1.00  0.00     0.269 C 
BRANCH   8   9
HETATM    9  O   UNL     1      28.250  42.308  53.768  1.00  0.00    -0.339 OA
BRANCH   9  10
HETATM   10  C   UNL     1      28.907  43.284  54.481  1.00  0.00     0.081 A 
HETATM   11  C   UNL     1      28.311  44.572  54.466  1.00  0.00     0.007 A 
HETATM   12  C   UNL     1      28.931  45.629  55.177  1.00  0.00    -0.023 A 
HETATM   13  C   UNL     1      27.115  44.857  53.771  1.00  0.00     0.015 A 
HETATM   14  C   UNL     1      28.354  46.910  55.172  1.00  0.00     0.012 A 
HETATM   15  C   UNL     1      30.119  45.386  55.880  1.00  0.00     0.012 A 
HETATM   16  C   UNL     1      27.173  47.161  54.475  1.00  0.00     0.001 A 
HETATM   17  C   UNL     1      26.551  46.135  53.775  1.00  0.00     0.001 A 
HETATM   18  C   UNL     1      30.696  44.118  55.886  1.00  0.00     0.004 A 
HETATM   19  C   UNL     1      30.095  43.071  55.189  1.00  0.00     0.038 A 
ENDBRANCH   9  10
ENDBRANCH   8   9
ENDBRANCH   7   8
ENDBRANCH   5   6
ENDBRANCH   1   5
BRANCH   2  20
HETATM   20  C   UNL     1      24.528  45.692  49.774  1.00  0.00     0.120 A 
HETATM   21  N   UNL     1      25.414  46.679  50.102  1.00  0.00    -0.272 N 
HETATM   22  H   UNL     1      26.372  46.556  50.416  1.00  0.00     0.189 HD
HETATM   23  N   UNL     1      24.924  47.921  49.978  1.00  0.00    -0.174 NA
HETATM   24  C   UNL     1      23.676  47.752  49.517  1.00  0.00     0.089 A 
HETATM   25  C   UNL     1      23.382  46.362  49.396  1.00  0.00     0.071 A 
BRANCH  24  26
HETATM   26  C   UNL     1      22.814  48.898  49.201  1.00  0.00    -0.005 A 
HETATM   27  C   UNL     1      21.427  48.743  49.041  1.00  0.00     0.017 A 
HETATM   28  C   UNL     1      20.620  49.842  48.727  1.00  0.00     0.043 A 
HETATM   29  C   UNL     1      21.197  51.096  48.573  1.00  0.00     0.116 A 
HETATM   30  F   UNL     1      20.421  52.145  48.270  1.00  0.00    -0.206 F 
HETATM   31  C   UNL     1      22.565  51.276  48.725  1.00  0.00     0.043 A 
HETATM   32  C   UNL     1      23.371  50.178  49.036  1.00  0.00     0.017 A 
ENDBRANCH  24  26
ENDBRANCH   2  20
TORSDOF 7
ENDMDL
MODEL 7
REMARK VINA RESULT:      -9.8      4.487     11.743
REMARK  7 active torsions:
REMARK  status: ('A' for Active; 'I' for Inactive)
REMARK    1  A    between atoms: C_5  and  O_6 
REMARK    2  A    between atoms: O_6  and  C_7 
REMARK    3  A    between atoms: C_7  and  C_8 
REMARK    4  A    between atoms: C_9  and  C_10 
REMARK    5  A    between atoms: C_10  and  N_11 
REMARK       I    between atoms: N_11  and  C_12 
REMARK    6  A    between atoms: C_12  and  C_13 
REMARK    7  A    between atoms: C_17  and  C_18 
ROOT
HETATM    1  N   UNL     1      25.225  43.413  50.538  1.00  0.00    -0.345 N 
HETATM    2  C   UNL     1      26.581  43.625  50.512  1.00  0.00     0.270 C 
HETATM    3  O   UNL     1      27.259  43.492  49.498  1.00  0.00    -0.266 OA
HETATM    4  H   UNL     1      24.739  43.395  51.420  1.00  0.00     0.163 HD
ENDROOT
BRANCH   1   5
HETATM    5  C   UNL     1      24.496  43.016  49.359  1.00  0.00     0.217 C 
BRANCH   5   6
HETATM    6  C   UNL     1      23.749  44.149  48.807  1.00  0.00    -0.085 C 
HETATM    7  C   UNL     1      23.128  45.096  48.405  1.00  0.00    -0.078 C 
BRANCH   7   8
HETATM    8  C   UNL     1      22.371  46.276  47.961  1.00  0.00     0.269 C 
BRANCH   8   9
HETATM    9  O   UNL     1      22.301  47.204  49.041  1.00  0.00    -0.339 OA
BRANCH   9  10
HETATM   10  C   UNL     1      22.539  48.531  48.770  1.00  0.00     0.081 A 
HETATM   11  C   UNL     1      21.422  49.400  48.894  1.00  0.00     0.007 A 
HETATM   12  C   UNL     1      21.589  50.782  48.630  1.00  0.00    -0.023 A 
HETATM   13  C   UNL     1      20.138  48.951  49.273  1.00  0.00     0.015 A 
HETATM   14  C   UNL     1      20.495  51.654  48.748  1.00  0.00     0.012 A 
HETATM   15  C   UNL     1      22.848  51.267  48.252  1.00  0.00     0.012 A 
HETATM   16  C   UNL     1      19.238  51.182  49.123  1.00  0.00     0.001 A 
HETATM   17  C   UNL     1      19.058  49.830  49.387  1.00  0.00     0.001 A 
HETATM   18  C   UNL     1      23.937  50.405  48.132  1.00  0.00     0.004 A 
HETATM   19  C   UNL     1      23.783  49.043  48.388  1.00  0.00     0.038 A 
ENDBRANCH   9  10
ENDBRANCH   8   9
ENDBRANCH   7   8
ENDBRANCH   5   6
ENDBRANCH   1   5
BRANCH   2  20
HETATM   20  C   UNL     1      27.165  44.027  51.764  1.00  0.00     0.120 A 
HETATM   21  N   UNL     1      26.542  44.929  52.580  1.00  0.00    -0.272 N 
HETATM   22  H   UNL     1      25.658  45.397  52.404  1.00  0.00     0.189 HD
HETATM   23  N   UNL     1      27.202  45.191  53.717  1.00  0.00    -0.174 NA
HETATM   24  C   UNL     1      28.288  44.404  53.670  1.00  0.00     0.089 A 
HETATM   25  C   UNL     1      28.312  43.673  52.446  1.00  0.00     0.071 A 
BRANCH  24  26
HETATM   26  C   UNL     1      29.254  44.365  54.775  1.00  0.00    -0.005 A 
HETATM   27  C   UNL     1      30.109  43.265  54.956  1.00  0.00     0.017 A 
HETATM   28  C   UNL     1      31.015  43.236  56.021  1.00  0.00     0.043 A 
HETATM   29  C   UNL     1      31.069  44.304  56.906  1.00  0.00     0.116 A 
HETATM   30  F   UNL     1      31.936  44.271  57.927  1.00  0.00    -0.206 F 
HETATM   31  C   UNL     1      30.235  45.402  56.751  1.00  0.00     0.043 A 
HETATM   32  C   UNL     1      29.328  45.431  55.689  1.00  0.00     0.017 A 
ENDBRANCH  24  26
ENDBRANCH   2  20
TORSDOF 7
ENDMDL
MODEL 8
REMARK VINA RESULT:      -9.7      4.844     10.928
REMARK  7 active torsions:
REMARK  status: ('A' for Active; 'I' for Inactive)
REMARK    1  A    between atoms: C_5  and  O_6 
REMARK    2  A    between atoms: O_6  and  C_7 
REMARK    3  A    between atoms: C_7  and  C_8 
REMARK    4  A    between atoms: C_9  and  C_10 
REMARK    5  A    between atoms: C_10  and  N_11 
REMARK       I    between atoms: N_11  and  C_12 
REMARK    6  A    between atoms: C_12  and  C_13 
REMARK    7  A    between atoms: C_17  and  C_18 
ROOT
HETATM    1  N   UNL     1      25.466  42.998  50.194  1.00  0.00    -0.345 N 
HETATM    2  C   UNL     1      26.822  42.803  50.281  1.00  0.00     0.270 C 
HETATM    3  O   UNL     1      27.530  42.597  49.300  1.00  0.00    -0.266 OA
HETATM    4  H   UNL     1      24.909  43.019  51.034  1.00  0.00     0.163 HD
ENDROOT
BRANCH   1   5
HETATM    5  C   UNL     1      24.774  42.977  48.929  1.00  0.00     0.217 C 
BRANCH   5   6
HETATM    6  C   UNL     1      23.856  44.114  48.823  1.00  0.00    -0.085 C 
HETATM    7  C   UNL     1      23.111  45.047  48.682  1.00  0.00    -0.078 C 
BRANCH   7   8
HETATM    8  C   UNL     1      22.202  46.181  48.459  1.00  0.00     0.269 C 
BRANCH   8   9
HETATM    9  O   UNL     1      22.578  47.243  49.331  1.00  0.00    -0.339 OA
BRANCH   9  10
HETATM   10  C   UNL     1      23.113  48.381  48.774  1.00  0.00     0.081 A 
HETATM   11  C   UNL     1      24.511  48.557  48.945  1.00  0.00     0.007 A 
HETATM   12  C   UNL     1      25.135  49.707  48.399  1.00  0.00    -0.023 A 
HETATM   13  C   UNL     1      25.324  47.632  49.638  1.00  0.00     0.015 A 
HETATM   14  C   UNL     1      26.517  49.896  48.560  1.00  0.00     0.012 A 
HETATM   15  C   UNL     1      24.363  50.648  47.704  1.00  0.00     0.012 A 
HETATM   16  C   UNL     1      27.294  48.966  49.250  1.00  0.00     0.001 A 
HETATM   17  C   UNL     1      26.698  47.833  49.789  1.00  0.00     0.001 A 
HETATM   18  C   UNL     1      22.991  50.465  47.544  1.00  0.00     0.004 A 
HETATM   19  C   UNL     1      22.368  49.338  48.078  1.00  0.00     0.038 A 
ENDBRANCH   9  10
ENDBRANCH   8   9
ENDBRANCH   7   8
ENDBRANCH   5   6
ENDBRANCH   1   5
BRANCH   2  20
HETATM   20  C   UNL     1      27.369  42.862  51.610  1.00  0.00     0.120 A 
HETATM   21  N   UNL     1      27.190  41.838  52.496  1.00  0.00    -0.272 N 
HETATM   22  H   UNL     1      26.677  40.977  52.334  1.00  0.00     0.189 HD
HETATM   23  N   UNL     1      27.772  42.034  53.688  1.00  0.00    -0.174 NA
HETATM   24  C   UNL     1      28.391  43.219  53.575  1.00  0.00     0.089 A 
HETATM   25  C   UNL     1      28.142  43.782  52.289  1.00  0.00     0.071 A 
BRANCH  24  26
HETATM   26  C   UNL     1      29.195  43.772  54.673  1.00  0.00    -0.005 A 
HETATM   27  C   UNL     1      30.375  43.142  55.099  1.00  0.00     0.017 A 
HETATM   28  C   UNL     1      31.124  43.673  56.155  1.00  0.00     0.043 A 
HETATM   29  C   UNL     1      30.695  44.833  56.785  1.00  0.00     0.116 A 
HETATM   30  F   UNL     1      31.412  45.338  57.798  1.00  0.00    -0.206 F 
HETATM   31  C   UNL     1      29.531  45.475  56.385  1.00  0.00     0.043 A 
HETATM   32  C   UNL     1      28.781  44.943  55.332  1.00  0.00     0.017 A 
ENDBRANCH  24  26
ENDBRANCH   2  20
TORSDOF 7
ENDMDL
MODEL 9
REMARK VINA RESULT:      -9.6      2.204      2.910
REMARK  7 active torsions:
REMARK  status: ('A' for Active; 'I' for Inactive)
REMARK    1  A    between atoms: C_5  and  O_6 
REMARK    2  A    between atoms: O_6  and  C_7 
REMARK    3  A    between atoms: C_7  and  C_8 
REMARK    4  A    between atoms: C_9  and  C_10 
REMARK    5  A    between atoms: C_10  and  N_11 
REMARK       I    between atoms: N_11  and  C_12 
REMARK    6  A    between atoms: C_12  and  C_13 
REMARK    7  A    between atoms: C_17  and  C_18 
ROOT
HETATM    1  N   UNL     1      22.846  44.885  49.961  1.00  0.00    -0.345 N 
HETATM    2  C   UNL     1      22.840  45.567  48.770  1.00  0.00     0.270 C 
HETATM    3  O   UNL     1      23.172  45.055  47.706  1.00  0.00    -0.266 OA
HETATM    4  H   UNL     1      22.705  45.386  50.824  1.00  0.00     0.163 HD
ENDROOT
BRANCH   1   5
HETATM    5  C   UNL     1      23.244  43.502  50.043  1.00  0.00     0.217 C 
BRANCH   5   6
HETATM    6  C   UNL     1      24.620  43.388  50.535  1.00  0.00    -0.085 C 
HETATM    7  C   UNL     1      25.733  43.324  50.983  1.00  0.00    -0.078 C 
BRANCH   7   8
HETATM    8  C   UNL     1      27.077  43.265  51.575  1.00  0.00     0.269 C 
BRANCH   8   9
HETATM    9  O   UNL     1      26.951  43.295  52.995  1.00  0.00    -0.339 OA
BRANCH   9  10
HETATM   10  C   UNL     1      27.302  44.451  53.652  1.00  0.00     0.081 A 
HETATM   11  C   UNL     1      28.491  44.388  54.426  1.00  0.00     0.007 A 
HETATM   12  C   UNL     1      28.916  45.540  55.133  1.00  0.00    -0.023 A 
HETATM   13  C   UNL     1      29.283  43.222  54.526  1.00  0.00     0.015 A 
HETATM   14  C   UNL     1      30.090  45.495  55.903  1.00  0.00     0.012 A 
HETATM   15  C   UNL     1      28.159  46.717  55.058  1.00  0.00     0.012 A 
HETATM   16  C   UNL     1      30.851  44.329  55.984  1.00  0.00     0.001 A 
HETATM   17  C   UNL     1      30.448  43.192  55.295  1.00  0.00     0.001 A 
HETATM   18  C   UNL     1      26.993  46.766  54.297  1.00  0.00     0.004 A 
HETATM   19  C   UNL     1      26.565  45.638  53.598  1.00  0.00     0.038 A 
ENDBRANCH   9  10
ENDBRANCH   8   9
ENDBRANCH   7   8
ENDBRANCH   5   6
ENDBRANCH   1   5
BRANCH   2  20
HETATM   20  C   UNL     1      22.409  46.937  48.847  1.00  0.00     0.120 A 
HETATM   21  N   UNL     1      23.291  47.969  48.691  1.00  0.00    -0.272 N 
HETATM   22  H   UNL     1      24.290  47.893  48.523  1.00  0.00     0.189 HD
HETATM   23  N   UNL     1      22.736  49.186  48.774  1.00  0.00    -0.174 NA
HETATM   24  C   UNL     1      21.427  48.953  48.957  1.00  0.00     0.089 A 
HETATM   25  C   UNL     1      21.185  47.550  49.031  1.00  0.00     0.071 A 
BRANCH  24  26
HETATM   26  C   UNL     1      20.458  50.052  49.049  1.00  0.00    -0.005 A 
HETATM   27  C   UNL     1      20.567  51.188  48.231  1.00  0.00     0.017 A 
HETATM   28  C   UNL     1      19.643  52.233  48.339  1.00  0.00     0.043 A 
HETATM   29  C   UNL     1      18.609  52.144  49.262  1.00  0.00     0.116 A 
HETATM   30  F   UNL     1      17.728  53.148  49.364  1.00  0.00    -0.206 F 
HETATM   31  C   UNL     1      18.480  51.032  50.083  1.00  0.00     0.043 A 
HETATM   32  C   UNL     1      19.404  49.989  49.977  1.00  0.00     0.017 A 
ENDBRANCH  24  26
ENDBRANCH   2  20
TORSDOF 7
ENDMDL
MODEL 10
REMARK VINA RESULT:      -9.6      4.463     12.270
REMARK  7 active torsions:
REMARK  status: ('A' for Active; 'I' for Inactive)
REMARK    1  A    between atoms: C_5  and  O_6 
REMARK    2  A    between atoms: O_6  and  C_7 
REMARK    3  A    between atoms: C_7  and  C_8 
REMARK    4  A    between atoms: C_9  and  C_10 
REMARK    5  A    between atoms: C_10  and  N_11 
REMARK       I    between atoms: N_11  and  C_12 
REMARK    6  A    between atoms: C_12  and  C_13 
REMARK    7  A    between atoms: C_17  and  C_18 
ROOT
HETATM    1  N   UNL     1      25.471  45.089  50.824  1.00  0.00    -0.345 N 
HETATM    2  C   UNL     1      25.521  44.127  51.803  1.00  0.00     0.270 C 
HETATM    3  O   UNL     1      24.581  43.381  52.053  1.00  0.00    -0.266 OA
HETATM    4  H   UNL     1      26.212  45.768  50.753  1.00  0.00     0.163 HD
ENDROOT
BRANCH   1   5
HETATM    5  C   UNL     1      24.296  45.287  50.013  1.00  0.00     0.217 C 
BRANCH   5   6
HETATM    6  C   UNL     1      24.185  46.687  49.597  1.00  0.00    -0.085 C 
HETATM    7  C   UNL     1      24.147  47.843  49.268  1.00  0.00    -0.078 C 
BRANCH   7   8
HETATM    8  C   UNL     1      24.152  49.258  48.870  1.00  0.00     0.269 C 
BRANCH   8   9
HETATM    9  O   UNL     1      23.305  49.414  47.734  1.00  0.00    -0.339 OA
BRANCH   9  10
HETATM   10  C   UNL     1      22.034  49.898  47.934  1.00  0.00     0.081 A 
HETATM   11  C   UNL     1      20.975  48.991  47.667  1.00  0.00     0.007 A 
HETATM   12  C   UNL     1      19.637  49.419  47.850  1.00  0.00    -0.023 A 
HETATM   13  C   UNL     1      21.190  47.667  47.225  1.00  0.00     0.015 A 
HETATM   14  C   UNL     1      18.577  48.534  47.590  1.00  0.00     0.012 A 
HETATM   15  C   UNL     1      19.381  50.725  48.289  1.00  0.00     0.012 A 
HETATM   16  C   UNL     1      18.820  47.232  47.153  1.00  0.00     0.001 A 
HETATM   17  C   UNL     1      20.127  46.797  46.971  1.00  0.00     0.001 A 
HETATM   18  C   UNL     1      20.429  51.607  48.545  1.00  0.00     0.004 A 
HETATM   19  C   UNL     1      21.750  51.197  48.368  1.00  0.00     0.038 A 
ENDBRANCH   9  10
ENDBRANCH   8   9
ENDBRANCH   7   8
ENDBRANCH   5   6
ENDBRANCH   1   5
BRANCH   2  20
HETATM   20  C   UNL     1      26.765  44.044  52.520  1.00  0.00     0.120 A 
HETATM   21  N   UNL     1      27.931  43.720  51.885  1.00  0.00    -0.272 N 
HETATM   22  H   UNL     1      28.045  43.506  50.899  1.00  0.00     0.189 HD
HETATM   23  N   UNL     1      29.006  43.697  52.685  1.00  0.00    -0.174 NA
HETATM   24  C   UNL     1      28.542  44.055  53.892  1.00  0.00     0.089 A 
HETATM   25  C   UNL     1      27.132  44.260  53.834  1.00  0.00     0.071 A 
BRANCH  24  26
HETATM   26  C   UNL     1      29.437  44.197  55.047  1.00  0.00    -0.005 A 
HETATM   27  C   UNL     1      29.376  45.324  55.881  1.00  0.00     0.017 A 
HETATM   28  C   UNL     1      30.245  45.452  56.970  1.00  0.00     0.043 A 
HETATM   29  C   UNL     1      31.175  44.453  57.227  1.00  0.00     0.116 A 
HETATM   30  F   UNL     1      32.008  44.580  58.269  1.00  0.00    -0.206 F 
HETATM   31  C   UNL     1      31.258  43.329  56.417  1.00  0.00     0.043 A 
HETATM   32  C   UNL     1      30.391  43.203  55.328  1.00  0.00     0.017 A 
ENDBRANCH  24  26
ENDBRANCH   2  20
TORSDOF 7
ENDMDL
