MODEL 1
REMARK VINA RESULT:      -9.7      0.000      0.000
REMARK  2 active torsions:
REMARK  status: ('A' for Active; 'I' for Inactive)
REMARK    1  A    between atoms: C_9  and  C_10 
REMARK       I    between atoms: C_10  and  N_11 
REMARK    2  A    between atoms: N_11  and  N_12 
ROOT
HETATM    1  C   UNL     1      28.322  43.924  52.766  1.00  0.00     0.291 C 
HETATM    2  N   UNL     1      27.060  43.751  52.247  1.00  0.00    -0.251 N 
HETATM    3  O   UNL     1      29.343  43.435  52.288  1.00  0.00    -0.264 OA
HETATM    4  H   UNL     1      26.256  44.107  52.756  1.00  0.00     0.191 HD
ENDROOT
BRANCH   2   5
HETATM    5  N   UNL     1      26.868  43.046  51.078  1.00  0.00    -0.167 N 
HETATM    6  C   UNL     1      26.959  43.632  49.844  1.00  0.00     0.345 C 
HETATM    7  O   UNL     1      27.097  44.815  49.579  1.00  0.00    -0.245 OA
HETATM    8  N   UNL     1      26.943  42.626  48.898  1.00  0.00    -0.323 N 
HETATM    9  C   UNL     1      26.960  41.304  49.500  1.00  0.00     0.117 C 
HETATM   10  H   UNL     1      27.050  42.838  47.914  1.00  0.00     0.165 HD
HETATM   11  C   UNL     1      28.235  40.532  49.141  1.00  0.00     0.041 C 
HETATM   12  C   UNL     1      25.689  40.523  49.158  1.00  0.00     0.041 C 
HETATM   13  C   UNL     1      26.993  41.680  50.997  1.00  0.00     0.275 C 
HETATM   14  C   UNL     1      28.223  40.031  47.699  1.00  0.00     0.003 C 
HETATM   15  C   UNL     1      26.960  39.234  47.391  1.00  0.00     0.000 C 
HETATM   16  C   UNL     1      25.696  40.026  47.712  1.00  0.00     0.003 C 
HETATM   17  O   UNL     1      27.162  40.888  51.915  1.00  0.00    -0.268 OA
ENDBRANCH   2   5
BRANCH   1  18
HETATM   18  C   UNL     1      28.313  44.769  53.970  1.00  0.00     0.158 A 
HETATM   19  C   UNL     1      29.190  44.689  55.091  1.00  0.00     0.029 A 
HETATM   20  C   UNL     1      30.285  43.888  55.467  1.00  0.00     0.023 A 
HETATM   21  C   UNL     1      28.781  45.709  55.943  1.00  0.00     0.063 A 
HETATM   22  C   UNL     1      30.941  44.140  56.683  1.00  0.00    -0.061 A 
HETATM   23  C   UNL     1      32.124  43.311  57.094  1.00  0.00     0.048 C 
HETATM   24  C   UNL     1      30.490  45.170  57.518  1.00  0.00     0.009 A 
HETATM   25  C   UNL     1      29.399  45.975  57.167  1.00  0.00     0.032 A 
HETATM   26  N   UNL     1      27.728  46.306  55.310  1.00  0.00    -0.277 N 
HETATM   27  H   UNL     1      27.177  47.089  55.645  1.00  0.00     0.189 HD
HETATM   28  N   UNL     1      27.430  45.784  54.106  1.00  0.00    -0.168 NA
ENDBRANCH   1  18
TORSDOF 2
ENDMDL
MODEL 2
REMARK VINA RESULT:      -9.4      3.547      5.368
REMARK  2 active torsions:
REMARK  status: ('A' for Active; 'I' for Inactive)
REMARK    1  A    between atoms: C_9  and  C_10 
REMARK       I    between atoms: C_10  and  N_11 
REMARK    2  A    between atoms: N_11  and  N_12 
ROOT
HETATM    1  C   UNL     1      26.966  44.106  52.198  1.00  0.00     0.291 C 
HETATM    2  N   UNL     1      27.093  45.462  51.999  1.00  0.00    -0.251 N 
HETATM    3  O   UNL     1      25.948  43.461  51.960  1.00  0.00    -0.264 OA
HETATM    4  H   UNL     1      27.934  45.938  52.313  1.00  0.00     0.191 HD
ENDROOT
BRANCH   2   5
HETATM    5  N   UNL     1      26.066  46.192  51.438  1.00  0.00    -0.167 N 
HETATM    6  C   UNL     1      25.351  47.118  52.148  1.00  0.00     0.345 C 
HETATM    7  O   UNL     1      25.409  47.362  53.342  1.00  0.00    -0.245 OA
HETATM    8  N   UNL     1      24.568  47.821  51.254  1.00  0.00    -0.323 N 
HETATM    9  C   UNL     1      24.838  47.450  49.876  1.00  0.00     0.117 C 
HETATM   10  H   UNL     1      23.993  48.594  51.565  1.00  0.00     0.165 HD
HETATM   11  C   UNL     1      25.410  48.623  49.071  1.00  0.00     0.041 C 
HETATM   12  C   UNL     1      23.601  46.838  49.214  1.00  0.00     0.041 C 
HETATM   13  C   UNL     1      25.938  46.387  50.084  1.00  0.00     0.275 C 
HETATM   14  C   UNL     1      24.349  49.667  48.733  1.00  0.00     0.003 C 
HETATM   15  C   UNL     1      23.138  49.037  48.051  1.00  0.00     0.000 C 
HETATM   16  C   UNL     1      22.550  47.897  48.879  1.00  0.00     0.003 C 
HETATM   17  O   UNL     1      26.597  45.875  49.187  1.00  0.00    -0.268 OA
ENDBRANCH   2   5
BRANCH   1  18
HETATM   18  C   UNL     1      28.199  43.510  52.733  1.00  0.00     0.158 A 
HETATM   19  C   UNL     1      28.918  43.905  53.899  1.00  0.00     0.029 A 
HETATM   20  C   UNL     1      28.770  44.888  54.897  1.00  0.00     0.023 A 
HETATM   21  C   UNL     1      29.990  43.025  53.979  1.00  0.00     0.063 A 
HETATM   22  C   UNL     1      29.699  44.951  55.948  1.00  0.00    -0.061 A 
HETATM   23  C   UNL     1      29.549  45.979  57.034  1.00  0.00     0.048 C 
HETATM   24  C   UNL     1      30.772  44.052  55.985  1.00  0.00     0.009 A 
HETATM   25  C   UNL     1      30.942  43.072  55.000  1.00  0.00     0.032 A 
HETATM   26  N   UNL     1      29.857  42.196  52.900  1.00  0.00    -0.277 N 
HETATM   27  H   UNL     1      30.469  41.431  52.637  1.00  0.00     0.189 HD
HETATM   28  N   UNL     1      28.776  42.441  52.137  1.00  0.00    -0.168 NA
ENDBRANCH   1  18
TORSDOF 2
ENDMDL
MODEL 3
REMARK VINA RESULT:      -9.2      2.338      2.984
REMARK  2 active torsions:
REMARK  status: ('A' for Active; 'I' for Inactive)
REMARK    1  A    between atoms: C_9  and  C_10 
REMARK       I    between atoms: C_10  and  N_11 
REMARK    2  A    between atoms: N_11  and  N_12 
ROOT
HETATM    1  C   UNL     1      25.934  46.511  52.638  1.00  0.00     0.291 C 
HETATM    2  N   UNL     1      26.301  45.283  52.137  1.00  0.00    -0.251 N 
HETATM    3  O   UNL     1      25.181  47.296  52.068  1.00  0.00    -0.264 OA
HETATM    4  H   UNL     1      27.005  44.734  52.623  1.00  0.00     0.191 HD
ENDROOT
BRANCH   2   5
HETATM    5  N   UNL     1      25.775  44.819  50.951  1.00  0.00    -0.167 N 
HETATM    6  C   UNL     1      26.449  44.912  49.763  1.00  0.00     0.345 C 
HETATM    7  O   UNL     1      27.502  45.485  49.536  1.00  0.00    -0.245 OA
HETATM    8  N   UNL     1      25.762  44.163  48.828  1.00  0.00    -0.323 N 
HETATM    9  C   UNL     1      24.649  43.437  49.416  1.00  0.00     0.117 C 
HETATM   10  H   UNL     1      26.117  44.054  47.887  1.00  0.00     0.165 HD
HETATM   11  C   UNL     1      24.843  41.919  49.317  1.00  0.00     0.041 C 
HETATM   12  C   UNL     1      23.314  43.894  48.822  1.00  0.00     0.041 C 
HETATM   13  C   UNL     1      24.778  43.875  50.890  1.00  0.00     0.275 C 
HETATM   14  C   UNL     1      24.621  41.397  47.900  1.00  0.00     0.003 C 
HETATM   15  C   UNL     1      23.274  41.844  47.340  1.00  0.00     0.000 C 
HETATM   16  C   UNL     1      23.107  43.359  47.405  1.00  0.00     0.003 C 
HETATM   17  O   UNL     1      24.135  43.404  51.821  1.00  0.00    -0.268 OA
ENDBRANCH   2   5
BRANCH   1  18
HETATM   18  C   UNL     1      26.548  46.778  53.947  1.00  0.00     0.158 A 
HETATM   19  C   UNL     1      27.613  46.062  54.567  1.00  0.00     0.029 A 
HETATM   20  C   UNL     1      28.419  44.955  54.235  1.00  0.00     0.023 A 
HETATM   21  C   UNL     1      27.834  46.714  55.774  1.00  0.00     0.063 A 
HETATM   22  C   UNL     1      29.427  44.544  55.122  1.00  0.00    -0.061 A 
HETATM   23  C   UNL     1      30.312  43.379  54.780  1.00  0.00     0.048 C 
HETATM   24  C   UNL     1      29.609  45.222  56.334  1.00  0.00     0.009 A 
HETATM   25  C   UNL     1      28.815  46.320  56.687  1.00  0.00     0.032 A 
HETATM   26  N   UNL     1      26.924  47.734  55.804  1.00  0.00    -0.277 N 
HETATM   27  H   UNL     1      26.794  48.416  56.543  1.00  0.00     0.189 HD
HETATM   28  N   UNL     1      26.146  47.821  54.709  1.00  0.00    -0.168 NA
ENDBRANCH   1  18
TORSDOF 2
ENDMDL
MODEL 4
REMARK VINA RESULT:      -9.0      2.074      3.256
REMARK  2 active torsions:
REMARK  status: ('A' for Active; 'I' for Inactive)
REMARK    1  A    between atoms: C_9  and  C_10 
REMARK       I    between atoms: C_10  and  N_11 
REMARK    2  A    between atoms: N_11  and  N_12 
ROOT
HETATM    1  C   UNL     1      26.221  43.624  51.770  1.00  0.00     0.291 C 
HETATM    2  N   UNL     1      27.520  43.314  51.438  1.00  0.00    -0.251 N 
HETATM    3  O   UNL     1      25.270  42.856  51.642  1.00  0.00    -0.264 OA
HETATM    4  H   UNL     1      28.233  44.036  51.481  1.00  0.00     0.191 HD
ENDROOT
BRANCH   2   5
HETATM    5  N   UNL     1      27.852  42.054  50.987  1.00  0.00    -0.167 N 
HETATM    6  C   UNL     1      28.094  41.010  51.838  1.00  0.00     0.345 C 
HETATM    7  O   UNL     1      28.170  41.031  53.056  1.00  0.00    -0.245 OA
HETATM    8  N   UNL     1      28.170  39.858  51.080  1.00  0.00    -0.323 N 
HETATM    9  C   UNL     1      27.855  40.097  49.683  1.00  0.00     0.117 C 
HETATM   10  H   UNL     1      28.295  38.955  51.520  1.00  0.00     0.165 HD
HETATM   11  C   UNL     1      26.590  39.348  49.247  1.00  0.00     0.041 C 
HETATM   12  C   UNL     1      29.055  39.787  48.783  1.00  0.00     0.041 C 
HETATM   13  C   UNL     1      27.567  41.613  49.717  1.00  0.00     0.275 C 
HETATM   14  C   UNL     1      26.831  37.849  49.085  1.00  0.00     0.003 C 
HETATM   15  C   UNL     1      28.014  37.566  48.165  1.00  0.00     0.000 C 
HETATM   16  C   UNL     1      29.279  38.282  48.629  1.00  0.00     0.003 C 
HETATM   17  O   UNL     1      27.110  42.262  48.784  1.00  0.00    -0.268 OA
ENDBRANCH   2   5
BRANCH   1  18
HETATM   18  C   UNL     1      26.098  44.989  52.300  1.00  0.00     0.158 A 
HETATM   19  C   UNL     1      26.824  45.567  53.382  1.00  0.00     0.029 A 
HETATM   20  C   UNL     1      27.829  45.140  54.272  1.00  0.00     0.023 A 
HETATM   21  C   UNL     1      26.357  46.872  53.476  1.00  0.00     0.063 A 
HETATM   22  C   UNL     1      28.339  46.039  55.222  1.00  0.00    -0.061 A 
HETATM   23  C   UNL     1      29.426  45.611  56.167  1.00  0.00     0.048 C 
HETATM   24  C   UNL     1      27.832  47.343  55.291  1.00  0.00     0.009 A 
HETATM   25  C   UNL     1      26.829  47.786  54.421  1.00  0.00     0.032 A 
HETATM   26  N   UNL     1      25.416  46.990  52.492  1.00  0.00    -0.277 N 
HETATM   27  H   UNL     1      24.862  47.810  52.270  1.00  0.00     0.189 HD
HETATM   28  N   UNL     1      25.248  45.883  51.744  1.00  0.00    -0.168 NA
ENDBRANCH   1  18
TORSDOF 2
ENDMDL
MODEL 5
REMARK VINA RESULT:      -8.9      1.775      2.571
REMARK  2 active torsions:
REMARK  status: ('A' for Active; 'I' for Inactive)
REMARK    1  A    between atoms: C_9  and  C_10 
REMARK       I    between atoms: C_10  and  N_11 
REMARK    2  A    between atoms: N_11  and  N_12 
ROOT
HETATM    1  C   UNL     1      26.897  43.246  51.031  1.00  0.00     0.291 C 
HETATM    2  N   UNL     1      26.475  42.013  51.473  1.00  0.00    -0.251 N 
HETATM    3  O   UNL     1      27.274  43.482  49.886  1.00  0.00    -0.264 OA
HETATM    4  H   UNL     1      26.273  41.877  52.459  1.00  0.00     0.191 HD
ENDROOT
BRANCH   2   5
HETATM    5  N   UNL     1      26.388  40.945  50.606  1.00  0.00    -0.167 N 
HETATM    6  C   UNL     1      25.414  40.855  49.648  1.00  0.00     0.345 C 
HETATM    7  O   UNL     1      24.453  41.587  49.479  1.00  0.00    -0.245 OA
HETATM    8  N   UNL     1      25.738  39.803  48.815  1.00  0.00    -0.323 N 
HETATM    9  C   UNL     1      27.032  39.225  49.137  1.00  0.00     0.117 C 
HETATM   10  H   UNL     1      25.173  39.590  48.003  1.00  0.00     0.165 HD
HETATM   11  C   UNL     1      28.035  39.399  47.990  1.00  0.00     0.041 C 
HETATM   12  C   UNL     1      26.893  37.764  49.573  1.00  0.00     0.041 C 
HETATM   13  C   UNL     1      27.449  40.119  50.324  1.00  0.00     0.275 C 
HETATM   14  C   UNL     1      27.747  38.461  46.820  1.00  0.00     0.003 C 
HETATM   15  C   UNL     1      27.639  37.010  47.276  1.00  0.00     0.000 C 
HETATM   16  C   UNL     1      26.609  36.839  48.389  1.00  0.00     0.003 C 
HETATM   17  O   UNL     1      28.553  40.110  50.854  1.00  0.00    -0.268 OA
ENDBRANCH   2   5
BRANCH   1  18
HETATM   18  C   UNL     1      26.843  44.261  52.094  1.00  0.00     0.158 A 
HETATM   19  C   UNL     1      27.705  44.379  53.223  1.00  0.00     0.029 A 
HETATM   20  C   UNL     1      28.819  43.680  53.726  1.00  0.00     0.023 A 
HETATM   21  C   UNL     1      27.252  45.501  53.908  1.00  0.00     0.063 A 
HETATM   22  C   UNL     1      29.449  44.133  54.897  1.00  0.00    -0.061 A 
HETATM   23  C   UNL     1      30.651  43.414  55.440  1.00  0.00     0.048 C 
HETATM   24  C   UNL     1      28.953  45.261  55.563  1.00  0.00     0.009 A 
HETATM   25  C   UNL     1      27.844  45.967  55.084  1.00  0.00     0.032 A 
HETATM   26  N   UNL     1      26.190  45.962  53.182  1.00  0.00    -0.277 N 
HETATM   27  H   UNL     1      25.610  46.767  53.390  1.00  0.00     0.189 HD
HETATM   28  N   UNL     1      25.926  45.255  52.067  1.00  0.00    -0.168 NA
ENDBRANCH   1  18
TORSDOF 2
ENDMDL
MODEL 6
REMARK VINA RESULT:      -8.9      6.830      8.898
REMARK  2 active torsions:
REMARK  status: ('A' for Active; 'I' for Inactive)
REMARK    1  A    between atoms: C_9  and  C_10 
REMARK       I    between atoms: C_10  and  N_11 
REMARK    2  A    between atoms: N_11  and  N_12 
ROOT
HETATM    1  C   UNL     1      24.165  47.326  49.756  1.00  0.00     0.291 C 
HETATM    2  N   UNL     1      23.250  47.427  48.733  1.00  0.00    -0.251 N 
HETATM    3  O   UNL     1      24.409  48.221  50.561  1.00  0.00    -0.264 OA
HETATM    4  H   UNL     1      23.177  46.679  48.050  1.00  0.00     0.191 HD
ENDROOT
BRANCH   2   5
HETATM    5  N   UNL     1      22.478  48.560  48.587  1.00  0.00    -0.167 N 
HETATM    6  C   UNL     1      22.893  49.642  47.859  1.00  0.00     0.345 C 
HETATM    7  O   UNL     1      23.984  49.833  47.347  1.00  0.00    -0.245 OA
HETATM    8  N   UNL     1      21.817  50.496  47.721  1.00  0.00    -0.323 N 
HETATM    9  C   UNL     1      20.594  49.932  48.267  1.00  0.00     0.117 C 
HETATM   10  H   UNL     1      21.892  51.342  47.170  1.00  0.00     0.165 HD
HETATM   11  C   UNL     1      19.536  49.706  47.181  1.00  0.00     0.041 C 
HETATM   12  C   UNL     1      20.066  50.777  49.429  1.00  0.00     0.041 C 
HETATM   13  C   UNL     1      21.115  48.568  48.767  1.00  0.00     0.275 C 
HETATM   14  C   UNL     1      18.895  51.011  46.715  1.00  0.00     0.003 C 
HETATM   15  C   UNL     1      18.353  51.822  47.888  1.00  0.00     0.000 C 
HETATM   16  C   UNL     1      19.425  52.078  48.945  1.00  0.00     0.003 C 
HETATM   17  O   UNL     1      20.410  47.658  49.185  1.00  0.00    -0.268 OA
ENDBRANCH   2   5
BRANCH   1  18
HETATM   18  C   UNL     1      24.823  46.011  49.778  1.00  0.00     0.158 A 
HETATM   19  C   UNL     1      25.654  45.475  50.805  1.00  0.00     0.029 A 
HETATM   20  C   UNL     1      26.124  45.911  52.059  1.00  0.00     0.023 A 
HETATM   21  C   UNL     1      26.009  44.208  50.360  1.00  0.00     0.063 A 
HETATM   22  C   UNL     1      26.930  45.057  52.830  1.00  0.00    -0.061 A 
HETATM   23  C   UNL     1      27.427  45.493  54.179  1.00  0.00     0.048 C 
HETATM   24  C   UNL     1      27.274  43.791  52.338  1.00  0.00     0.009 A 
HETATM   25  C   UNL     1      26.823  43.341  51.092  1.00  0.00     0.032 A 
HETATM   26  N   UNL     1      25.400  44.070  49.144  1.00  0.00    -0.277 N 
HETATM   27  H   UNL     1      25.444  43.268  48.525  1.00  0.00     0.189 HD
HETATM   28  N   UNL     1      24.656  45.127  48.768  1.00  0.00    -0.168 NA
ENDBRANCH   1  18
TORSDOF 2
ENDMDL
MODEL 7
REMARK VINA RESULT:      -8.8      5.126      7.920
REMARK  2 active torsions:
REMARK  status: ('A' for Active; 'I' for Inactive)
REMARK    1  A    between atoms: C_9  and  C_10 
REMARK       I    between atoms: C_10  and  N_11 
REMARK    2  A    between atoms: N_11  and  N_12 
ROOT
HETATM    1  C   UNL     1      24.829  47.304  50.445  1.00  0.00     0.291 C 
HETATM    2  N   UNL     1      24.975  46.080  49.832  1.00  0.00    -0.251 N 
HETATM    3  O   UNL     1      25.045  47.514  51.636  1.00  0.00    -0.264 OA
HETATM    4  H   UNL     1      24.683  45.966  48.866  1.00  0.00     0.191 HD
ENDROOT
BRANCH   2   5
HETATM    5  N   UNL     1      25.452  44.993  50.533  1.00  0.00    -0.167 N 
HETATM    6  C   UNL     1      24.625  44.036  51.055  1.00  0.00     0.345 C 
HETATM    7  O   UNL     1      23.405  44.034  51.097  1.00  0.00    -0.245 OA
HETATM    8  N   UNL     1      25.413  42.987  51.486  1.00  0.00    -0.323 N 
HETATM    9  C   UNL     1      26.812  43.173  51.143  1.00  0.00     0.117 C 
HETATM   10  H   UNL     1      24.996  42.146  51.864  1.00  0.00     0.165 HD
HETATM   11  C   UNL     1      27.308  42.100  50.167  1.00  0.00     0.041 C 
HETATM   12  C   UNL     1      27.683  43.265  52.399  1.00  0.00     0.041 C 
HETATM   13  C   UNL     1      26.743  44.534  50.417  1.00  0.00     0.275 C 
HETATM   14  C   UNL     1      27.506  40.746  50.845  1.00  0.00     0.003 C 
HETATM   15  C   UNL     1      28.397  40.860  52.078  1.00  0.00     0.000 C 
HETATM   16  C   UNL     1      27.874  41.901  53.063  1.00  0.00     0.003 C 
HETATM   17  O   UNL     1      27.671  45.052  49.809  1.00  0.00    -0.268 OA
ENDBRANCH   2   5
BRANCH   1  18
HETATM   18  C   UNL     1      24.383  48.342  49.504  1.00  0.00     0.158 A 
HETATM   19  C   UNL     1      23.069  48.534  48.986  1.00  0.00     0.029 A 
HETATM   20  C   UNL     1      21.817  47.907  49.138  1.00  0.00     0.023 A 
HETATM   21  C   UNL     1      23.165  49.648  48.160  1.00  0.00     0.063 A 
HETATM   22  C   UNL     1      20.699  48.422  48.463  1.00  0.00    -0.061 A 
HETATM   23  C   UNL     1      19.350  47.782  48.626  1.00  0.00     0.048 C 
HETATM   24  C   UNL     1      20.842  49.540  47.630  1.00  0.00     0.009 A 
HETATM   25  C   UNL     1      22.077  50.175  47.460  1.00  0.00     0.032 A 
HETATM   26  N   UNL     1      24.474  50.034  48.227  1.00  0.00    -0.277 N 
HETATM   27  H   UNL     1      24.908  50.813  47.744  1.00  0.00     0.189 HD
HETATM   28  N   UNL     1      25.236  49.286  49.046  1.00  0.00    -0.168 NA
ENDBRANCH   1  18
TORSDOF 2
ENDMDL
MODEL 8
REMARK VINA RESULT:      -8.6      4.780      8.040
REMARK  2 active torsions:
REMARK  status: ('A' for Active; 'I' for Inactive)
REMARK    1  A    between atoms: C_9  and  C_10 
REMARK       I    between atoms: C_10  and  N_11 
REMARK    2  A    between atoms: N_11  and  N_12 
ROOT
HETATM    1  C   UNL     1      23.812  44.977  49.139  1.00  0.00     0.291 C 
HETATM    2  N   UNL     1      24.461  45.391  50.281  1.00  0.00    -0.251 N 
HETATM    3  O   UNL     1      24.206  44.074  48.406  1.00  0.00    -0.264 OA
HETATM    4  H   UNL     1      24.123  46.209  50.780  1.00  0.00     0.191 HD
ENDROOT
BRANCH   2   5
HETATM    5  N   UNL     1      25.599  44.748  50.718  1.00  0.00    -0.167 N 
HETATM    6  C   UNL     1      26.842  45.041  50.225  1.00  0.00     0.345 C 
HETATM    7  O   UNL     1      27.131  45.779  49.298  1.00  0.00    -0.245 OA
HETATM    8  N   UNL     1      27.772  44.399  51.019  1.00  0.00    -0.323 N 
HETATM    9  C   UNL     1      27.161  43.743  52.161  1.00  0.00     0.117 C 
HETATM   10  H   UNL     1      28.764  44.522  50.858  1.00  0.00     0.165 HD
HETATM   11  C   UNL     1      27.629  44.354  53.487  1.00  0.00     0.041 C 
HETATM   12  C   UNL     1      27.375  42.228  52.110  1.00  0.00     0.041 C 
HETATM   13  C   UNL     1      25.677  44.100  51.927  1.00  0.00     0.275 C 
HETATM   14  C   UNL     1      29.058  43.950  53.839  1.00  0.00     0.003 C 
HETATM   15  C   UNL     1      29.239  42.436  53.807  1.00  0.00     0.000 C 
HETATM   16  C   UNL     1      28.810  41.841  52.468  1.00  0.00     0.003 C 
HETATM   17  O   UNL     1      24.770  43.885  52.722  1.00  0.00    -0.268 OA
ENDBRANCH   2   5
BRANCH   1  18
HETATM   18  C   UNL     1      22.582  45.744  48.896  1.00  0.00     0.158 A 
HETATM   19  C   UNL     1      22.471  47.136  48.611  1.00  0.00     0.029 A 
HETATM   20  C   UNL     1      23.364  48.214  48.458  1.00  0.00     0.023 A 
HETATM   21  C   UNL     1      21.110  47.365  48.446  1.00  0.00     0.063 A 
HETATM   22  C   UNL     1      22.864  49.487  48.136  1.00  0.00    -0.061 A 
HETATM   23  C   UNL     1      23.800  50.646  47.948  1.00  0.00     0.048 C 
HETATM   24  C   UNL     1      21.483  49.676  47.990  1.00  0.00     0.009 A 
HETATM   25  C   UNL     1      20.578  48.620  48.144  1.00  0.00     0.032 A 
HETATM   26  N   UNL     1      20.515  46.150  48.639  1.00  0.00    -0.277 N 
HETATM   27  H   UNL     1      19.523  45.941  48.599  1.00  0.00     0.189 HD
HETATM   28  N   UNL     1      21.371  45.141  48.888  1.00  0.00    -0.168 NA
ENDBRANCH   1  18
TORSDOF 2
ENDMDL
MODEL 9
REMARK VINA RESULT:      -8.6      5.011      8.095
REMARK  2 active torsions:
REMARK  status: ('A' for Active; 'I' for Inactive)
REMARK    1  A    between atoms: C_9  and  C_10 
REMARK       I    between atoms: C_10  and  N_11 
REMARK    2  A    between atoms: N_11  and  N_12 
ROOT
HETATM    1  C   UNL     1      24.555  47.229  50.289  1.00  0.00     0.291 C 
HETATM    2  N   UNL     1      24.804  46.050  49.623  1.00  0.00    -0.251 N 
HETATM    3  O   UNL     1      25.020  47.515  51.390  1.00  0.00    -0.264 OA
HETATM    4  H   UNL     1      24.304  45.847  48.762  1.00  0.00     0.191 HD
ENDROOT
BRANCH   2   5
HETATM    5  N   UNL     1      25.673  45.115  50.143  1.00  0.00    -0.167 N 
HETATM    6  C   UNL     1      27.029  45.200  49.975  1.00  0.00     0.345 C 
HETATM    7  O   UNL     1      27.656  45.990  49.289  1.00  0.00    -0.245 OA
HETATM    8  N   UNL     1      27.615  44.258  50.797  1.00  0.00    -0.323 N 
HETATM    9  C   UNL     1      26.644  43.585  51.642  1.00  0.00     0.117 C 
HETATM   10  H   UNL     1      28.622  44.183  50.865  1.00  0.00     0.165 HD
HETATM   11  C   UNL     1      26.889  43.869  53.129  1.00  0.00     0.041 C 
HETATM   12  C   UNL     1      26.588  42.086  51.337  1.00  0.00     0.041 C 
HETATM   13  C   UNL     1      25.347  44.290  51.192  1.00  0.00     0.275 C 
HETATM   14  C   UNL     1      28.099  43.114  53.672  1.00  0.00     0.003 C 
HETATM   15  C   UNL     1      28.007  41.620  53.379  1.00  0.00     0.000 C 
HETATM   16  C   UNL     1      27.805  41.344  51.892  1.00  0.00     0.003 C 
HETATM   17  O   UNL     1      24.255  44.160  51.732  1.00  0.00    -0.268 OA
ENDBRANCH   2   5
BRANCH   1  18
HETATM   18  C   UNL     1      23.664  48.115  49.527  1.00  0.00     0.158 A 
HETATM   19  C   UNL     1      22.475  47.755  48.827  1.00  0.00     0.029 A 
HETATM   20  C   UNL     1      21.749  46.569  48.605  1.00  0.00     0.023 A 
HETATM   21  C   UNL     1      21.995  48.945  48.293  1.00  0.00     0.063 A 
HETATM   22  C   UNL     1      20.560  46.615  47.860  1.00  0.00    -0.061 A 
HETATM   23  C   UNL     1      19.759  45.366  47.627  1.00  0.00     0.048 C 
HETATM   24  C   UNL     1      20.117  47.834  47.329  1.00  0.00     0.009 A 
HETATM   25  C   UNL     1      20.826  49.024  47.532  1.00  0.00     0.032 A 
HETATM   26  N   UNL     1      22.889  49.902  48.684  1.00  0.00    -0.277 N 
HETATM   27  H   UNL     1      22.858  50.893  48.469  1.00  0.00     0.189 HD
HETATM   28  N   UNL     1      23.897  49.445  49.450  1.00  0.00    -0.168 NA
ENDBRANCH   1  18
TORSDOF 2
ENDMDL
MODEL 10
REMARK VINA RESULT:      -8.3     14.420     15.267
REMARK  2 active torsions:
REMARK  status: ('A' for Active; 'I' for Inactive)
REMARK    1  A    between atoms: C_9  and  C_10 
REMARK       I    between atoms: C_10  and  N_11 
REMARK    2  A    between atoms: N_11  and  N_12 
ROOT
HETATM    1  C   UNL     1      36.616  52.925  43.594  1.00  0.00     0.291 C 
HETATM    2  N   UNL     1      35.786  51.881  43.936  1.00  0.00    -0.251 N 
HETATM    3  O   UNL     1      36.526  53.571  42.554  1.00  0.00    -0.264 OA
HETATM    4  H   UNL     1      35.987  51.334  44.768  1.00  0.00     0.191 HD
ENDROOT
BRANCH   2   5
HETATM    5  N   UNL     1      34.726  51.529  43.128  1.00  0.00    -0.167 N 
HETATM    6  C   UNL     1      34.871  50.707  42.044  1.00  0.00     0.345 C 
HETATM    7  O   UNL     1      35.903  50.267  41.563  1.00  0.00    -0.245 OA
HETATM    8  N   UNL     1      33.608  50.373  41.596  1.00  0.00    -0.323 N 
HETATM    9  C   UNL     1      32.563  50.884  42.466  1.00  0.00     0.117 C 
HETATM   10  H   UNL     1      33.484  49.728  40.826  1.00  0.00     0.165 HD
HETATM   11  C   UNL     1      31.762  49.751  43.120  1.00  0.00     0.041 C 
HETATM   12  C   UNL     1      31.666  51.882  41.729  1.00  0.00     0.041 C 
HETATM   13  C   UNL     1      33.416  51.593  43.539  1.00  0.00     0.275 C 
HETATM   14  C   UNL     1      30.811  49.072  42.138  1.00  0.00     0.003 C 
HETATM   15  C   UNL     1      29.911  50.084  41.436  1.00  0.00     0.000 C 
HETATM   16  C   UNL     1      30.718  51.185  40.753  1.00  0.00     0.003 C 
HETATM   17  O   UNL     1      32.981  52.064  44.583  1.00  0.00    -0.268 OA
ENDBRANCH   2   5
BRANCH   1  18
HETATM   18  C   UNL     1      37.631  53.183  44.626  1.00  0.00     0.158 A 
HETATM   19  C   UNL     1      38.213  54.437  44.975  1.00  0.00     0.029 A 
HETATM   20  C   UNL     1      38.079  55.771  44.545  1.00  0.00     0.023 A 
HETATM   21  C   UNL     1      39.094  54.151  46.011  1.00  0.00     0.063 A 
HETATM   22  C   UNL     1      38.828  56.779  45.174  1.00  0.00    -0.061 A 
HETATM   23  C   UNL     1      38.686  58.212  44.746  1.00  0.00     0.048 C 
HETATM   24  C   UNL     1      39.714  56.446  46.207  1.00  0.00     0.009 A 
HETATM   25  C   UNL     1      39.868  55.126  46.645  1.00  0.00     0.032 A 
HETATM   26  N   UNL     1      38.994  52.802  46.207  1.00  0.00    -0.277 N 
HETATM   27  H   UNL     1      39.501  52.244  46.885  1.00  0.00     0.189 HD
HETATM   28  N   UNL     1      38.104  52.186  45.408  1.00  0.00    -0.168 NA
ENDBRANCH   1  18
TORSDOF 2
ENDMDL
