MODEL 1
REMARK VINA RESULT:      -8.9      0.000      0.000
REMARK  7 active torsions:
REMARK  status: ('A' for Active; 'I' for Inactive)
REMARK    1  A    between atoms: C_2  and  O_3 
REMARK    2  A    between atoms: O_3  and  C_4 
REMARK    3  A    between atoms: C_4  and  C_5 
REMARK    4  A    between atoms: C_6  and  C_7 
REMARK    5  A    between atoms: C_18  and  C_19 
REMARK    6  A    between atoms: C_19  and  N_20 
REMARK    7  A    between atoms: N_20  and  C_21 
ROOT
HETATM    1  C   UNL     1      23.018  48.485  48.644  1.00  0.00     0.068 A 
HETATM    2  C   UNL     1      21.751  48.478  47.839  1.00  0.00     0.161 A 
HETATM    3  N   UNL     1      21.160  47.154  47.788  1.00  0.00    -0.330 N 
HETATM    4  C   UNL     1      21.585  46.078  48.490  1.00  0.00     0.321 A 
HETATM    5  O   UNL     1      20.989  45.007  48.450  1.00  0.00    -0.247 OA
HETATM    6  N   UNL     1      22.709  46.244  49.238  1.00  0.00    -0.311 N 
HETATM    7  C   UNL     1      23.448  47.407  49.327  1.00  0.00     0.041 A 
HETATM    8  H   UNL     1      20.312  47.015  47.256  1.00  0.00     0.165 HD
HETATM    9  H   UNL     1      23.004  45.414  49.740  1.00  0.00     0.170 HD
ENDROOT
BRANCH   7  10
HETATM   10  C   UNL     1      24.690  47.340  50.190  1.00  0.00     0.150 C 
BRANCH  10  11
HETATM   11  N   UNL     1      24.535  46.213  51.104  1.00  0.00    -0.287 NA
HETATM   12  H   UNL     1      23.590  46.153  51.476  1.00  0.00     0.128 HD
BRANCH  11  13
HETATM   13  C   UNL     1      25.501  46.038  52.105  1.00  0.00     0.010 A 
HETATM   14  C   UNL     1      25.651  47.028  53.084  1.00  0.00     0.047 A 
HETATM   15  C   UNL     1      26.566  46.880  54.136  1.00  0.00     0.041 A 
HETATM   16 CL   UNL     1      26.694  48.170  55.280  1.00  0.00    -0.084 Cl
HETATM   17  C   UNL     1      27.340  45.721  54.254  1.00  0.00    -0.040 A 
HETATM   18  C   UNL     1      28.321  45.517  55.373  1.00  0.00     0.050 C 
HETATM   19  C   UNL     1      27.148  44.702  53.314  1.00  0.00     0.010 A 
HETATM   20  C   UNL     1      26.234  44.857  52.264  1.00  0.00     0.024 A 
ENDBRANCH  11  13
ENDBRANCH  10  11
ENDBRANCH   7  10
BRANCH   1  21
HETATM   21  C   UNL     1      23.783  49.752  48.658  1.00  0.00     0.293 C 
HETATM   22  O   UNL     1      23.627  50.645  49.474  1.00  0.00    -0.259 OA
BRANCH  21  23
HETATM   23  O   UNL     1      24.657  49.758  47.620  1.00  0.00    -0.318 OA
BRANCH  23  24
HETATM   24  C   UNL     1      25.921  50.386  47.881  1.00  0.00     0.174 C 
HETATM   25  C   UNL     1      26.857  49.430  48.597  1.00  0.00     0.034 C 
ENDBRANCH  23  24
ENDBRANCH  21  23
ENDBRANCH   1  21
BRANCH   2  26
HETATM   26  C   UNL     1      20.726  49.478  48.359  1.00  0.00    -0.031 A 
HETATM   27  C   UNL     1      20.454  50.652  47.637  1.00  0.00     0.011 A 
HETATM   28  C   UNL     1      19.550  51.597  48.128  1.00  0.00     0.024 A 
HETATM   29  C   UNL     1      18.909  51.376  49.345  1.00  0.00     0.034 A 
HETATM   30 CL   UNL     1      17.802  52.545  49.952  1.00  0.00    -0.084 Cl
HETATM   31  C   UNL     1      19.161  50.217  50.074  1.00  0.00     0.024 A 
HETATM   32  C   UNL     1      20.065  49.272  49.584  1.00  0.00     0.011 A 
ENDBRANCH   2  26
TORSDOF 7
ENDMDL
MODEL 2
REMARK VINA RESULT:      -8.5     11.329     14.053
REMARK  7 active torsions:
REMARK  status: ('A' for Active; 'I' for Inactive)
REMARK    1  A    between atoms: C_2  and  O_3 
REMARK    2  A    between atoms: O_3  and  C_4 
REMARK    3  A    between atoms: C_4  and  C_5 
REMARK    4  A    between atoms: C_6  and  C_7 
REMARK    5  A    between atoms: C_18  and  C_19 
REMARK    6  A    between atoms: C_19  and  N_20 
REMARK    7  A    between atoms: N_20  and  C_21 
ROOT
HETATM    1  C   UNL     1      31.646  50.776  41.437  1.00  0.00     0.068 A 
HETATM    2  C   UNL     1      32.337  50.204  42.641  1.00  0.00     0.161 A 
HETATM    3  N   UNL     1      32.715  48.820  42.432  1.00  0.00    -0.330 N 
HETATM    4  C   UNL     1      32.612  48.147  41.262  1.00  0.00     0.321 A 
HETATM    5  O   UNL     1      33.018  46.996  41.143  1.00  0.00    -0.247 OA
HETATM    6  N   UNL     1      32.028  48.810  40.227  1.00  0.00    -0.311 N 
HETATM    7  C   UNL     1      31.528  50.096  40.281  1.00  0.00     0.041 A 
HETATM    8  H   UNL     1      33.171  48.316  43.180  1.00  0.00     0.165 HD
HETATM    9  H   UNL     1      31.956  48.270  39.372  1.00  0.00     0.170 HD
ENDROOT
BRANCH   7  10
HETATM   10  C   UNL     1      30.881  50.610  39.012  1.00  0.00     0.150 C 
BRANCH  10  11
HETATM   11  N   UNL     1      30.195  49.488  38.379  1.00  0.00    -0.287 NA
HETATM   12  H   UNL     1      30.439  49.399  37.396  1.00  0.00     0.128 HD
BRANCH  11  13
HETATM   13  C   UNL     1      28.814  49.358  38.588  1.00  0.00     0.010 A 
HETATM   14  C   UNL     1      28.352  48.377  39.474  1.00  0.00     0.047 A 
HETATM   15  C   UNL     1      26.986  48.237  39.760  1.00  0.00     0.041 A 
HETATM   16 CL   UNL     1      26.514  46.980  40.849  1.00  0.00    -0.084 Cl
HETATM   17  C   UNL     1      26.043  49.096  39.184  1.00  0.00    -0.040 A 
HETATM   18  C   UNL     1      24.573  48.989  39.473  1.00  0.00     0.050 C 
HETATM   19  C   UNL     1      26.506  50.117  38.347  1.00  0.00     0.010 A 
HETATM   20  C   UNL     1      27.872  50.250  38.065  1.00  0.00     0.024 A 
ENDBRANCH  11  13
ENDBRANCH  10  11
ENDBRANCH   7  10
BRANCH   1  21
HETATM   21  C   UNL     1      31.096  52.142  41.580  1.00  0.00     0.293 C 
HETATM   22  O   UNL     1      31.701  53.163  41.301  1.00  0.00    -0.259 OA
BRANCH  21  23
HETATM   23  O   UNL     1      29.836  52.066  42.078  1.00  0.00    -0.318 OA
BRANCH  23  24
HETATM   24  C   UNL     1      28.824  52.723  41.301  1.00  0.00     0.174 C 
HETATM   25  C   UNL     1      27.538  51.918  41.305  1.00  0.00     0.034 C 
ENDBRANCH  23  24
ENDBRANCH  21  23
ENDBRANCH   1  21
BRANCH   2  26
HETATM   26  C   UNL     1      33.563  51.014  43.047  1.00  0.00    -0.031 A 
HETATM   27  C   UNL     1      34.741  50.943  42.285  1.00  0.00     0.011 A 
HETATM   28  C   UNL     1      35.885  51.645  42.675  1.00  0.00     0.024 A 
HETATM   29  C   UNL     1      35.860  52.426  43.828  1.00  0.00     0.034 A 
HETATM   30 CL   UNL     1      37.271  53.284  44.310  1.00  0.00    -0.084 Cl
HETATM   31  C   UNL     1      34.700  52.514  44.595  1.00  0.00     0.024 A 
HETATM   32  C   UNL     1      33.557  51.811  44.207  1.00  0.00     0.011 A 
ENDBRANCH   2  26
TORSDOF 7
ENDMDL
MODEL 3
REMARK VINA RESULT:      -8.5      8.444     10.986
REMARK  7 active torsions:
REMARK  status: ('A' for Active; 'I' for Inactive)
REMARK    1  A    between atoms: C_2  and  O_3 
REMARK    2  A    between atoms: O_3  and  C_4 
REMARK    3  A    between atoms: C_4  and  C_5 
REMARK    4  A    between atoms: C_6  and  C_7 
REMARK    5  A    between atoms: C_18  and  C_19 
REMARK    6  A    between atoms: C_19  and  N_20 
REMARK    7  A    between atoms: N_20  and  C_21 
ROOT
HETATM    1  C   UNL     1      28.523  39.606  48.980  1.00  0.00     0.068 A 
HETATM    2  C   UNL     1      29.080  38.326  48.428  1.00  0.00     0.161 A 
HETATM    3  N   UNL     1      29.747  37.549  49.454  1.00  0.00    -0.330 N 
HETATM    4  C   UNL     1      29.752  37.836  50.777  1.00  0.00     0.321 A 
HETATM    5  O   UNL     1      30.280  37.091  51.596  1.00  0.00    -0.247 OA
HETATM    6  N   UNL     1      29.147  38.996  51.151  1.00  0.00    -0.311 N 
HETATM    7  C   UNL     1      28.547  39.897  50.295  1.00  0.00     0.041 A 
HETATM    8  H   UNL     1      30.183  36.672  49.201  1.00  0.00     0.165 HD
HETATM    9  H   UNL     1      29.182  39.184  52.146  1.00  0.00     0.170 HD
ENDROOT
BRANCH   7  10
HETATM   10  C   UNL     1      27.977  41.145  50.938  1.00  0.00     0.150 C 
BRANCH  10  11
HETATM   11  N   UNL     1      28.047  40.969  52.384  1.00  0.00    -0.287 NA
HETATM   12  H   UNL     1      27.299  40.373  52.732  1.00  0.00     0.128 HD
BRANCH  11  13
HETATM   13  C   UNL     1      28.216  42.111  53.180  1.00  0.00     0.010 A 
HETATM   14  C   UNL     1      29.349  42.208  53.996  1.00  0.00     0.047 A 
HETATM   15  C   UNL     1      29.594  43.350  54.772  1.00  0.00     0.041 A 
HETATM   16 CL   UNL     1      31.009  43.361  55.766  1.00  0.00    -0.084 Cl
HETATM   17  C   UNL     1      28.722  44.443  54.732  1.00  0.00    -0.040 A 
HETATM   18  C   UNL     1      28.954  45.689  55.537  1.00  0.00     0.050 C 
HETATM   19  C   UNL     1      27.622  44.377  53.869  1.00  0.00     0.010 A 
HETATM   20  C   UNL     1      27.383  43.232  53.098  1.00  0.00     0.024 A 
ENDBRANCH  11  13
ENDBRANCH  10  11
ENDBRANCH   7  10
BRANCH   1  21
HETATM   21  C   UNL     1      27.935  40.546  48.000  1.00  0.00     0.293 C 
HETATM   22  O   UNL     1      28.582  41.279  47.271  1.00  0.00    -0.259 OA
BRANCH  21  23
HETATM   23  O   UNL     1      26.582  40.467  48.062  1.00  0.00    -0.318 OA
BRANCH  23  24
HETATM   24  C   UNL     1      25.906  40.442  46.796  1.00  0.00     0.174 C 
HETATM   25  C   UNL     1      24.706  39.515  46.847  1.00  0.00     0.034 C 
ENDBRANCH  23  24
ENDBRANCH  21  23
ENDBRANCH   1  21
BRANCH   2  26
HETATM   26  C   UNL     1      28.014  37.473  47.750  1.00  0.00    -0.031 A 
HETATM   27  C   UNL     1      28.058  37.258  46.362  1.00  0.00     0.011 A 
HETATM   28  C   UNL     1      27.060  36.517  45.725  1.00  0.00     0.024 A 
HETATM   29  C   UNL     1      26.010  35.983  46.469  1.00  0.00     0.034 A 
HETATM   30 CL   UNL     1      24.778  35.077  45.681  1.00  0.00    -0.084 Cl
HETATM   31  C   UNL     1      25.950  36.181  47.847  1.00  0.00     0.024 A 
HETATM   32  C   UNL     1      26.947  36.923  48.484  1.00  0.00     0.011 A 
ENDBRANCH   2  26
TORSDOF 7
ENDMDL
MODEL 4
REMARK VINA RESULT:      -8.4      4.694      6.810
REMARK  7 active torsions:
REMARK  status: ('A' for Active; 'I' for Inactive)
REMARK    1  A    between atoms: C_2  and  O_3 
REMARK    2  A    between atoms: O_3  and  C_4 
REMARK    3  A    between atoms: C_4  and  C_5 
REMARK    4  A    between atoms: C_6  and  C_7 
REMARK    5  A    between atoms: C_18  and  C_19 
REMARK    6  A    between atoms: C_19  and  N_20 
REMARK    7  A    between atoms: N_20  and  C_21 
ROOT
HETATM    1  C   UNL     1      18.781  48.874  48.388  1.00  0.00     0.068 A 
HETATM    2  C   UNL     1      19.536  49.888  49.198  1.00  0.00     0.161 A 
HETATM    3  N   UNL     1      19.303  49.715  50.619  1.00  0.00    -0.330 N 
HETATM    4  C   UNL     1      18.624  48.689  51.184  1.00  0.00     0.321 A 
HETATM    5  O   UNL     1      18.529  48.572  52.401  1.00  0.00    -0.247 OA
HETATM    6  N   UNL     1      18.047  47.799  50.332  1.00  0.00    -0.311 N 
HETATM    7  C   UNL     1      18.090  47.865  48.954  1.00  0.00     0.041 A 
HETATM    8  H   UNL     1      19.742  50.352  51.270  1.00  0.00     0.165 HD
HETATM    9  H   UNL     1      17.537  47.052  50.790  1.00  0.00     0.170 HD
ENDROOT
BRANCH   7  10
HETATM   10  C   UNL     1      17.334  46.783  48.212  1.00  0.00     0.150 C 
BRANCH  10  11
HETATM   11  N   UNL     1      17.940  45.502  48.560  1.00  0.00    -0.287 NA
HETATM   12  H   UNL     1      17.957  45.350  49.566  1.00  0.00     0.128 HD
BRANCH  11  13
HETATM   13  C   UNL     1      19.162  45.166  47.960  1.00  0.00     0.010 A 
HETATM   14  C   UNL     1      20.333  45.231  48.725  1.00  0.00     0.047 A 
HETATM   15  C   UNL     1      21.574  44.857  48.191  1.00  0.00     0.041 A 
HETATM   16 CL   UNL     1      22.965  44.997  49.208  1.00  0.00    -0.084 Cl
HETATM   17  C   UNL     1      21.675  44.380  46.879  1.00  0.00    -0.040 A 
HETATM   18  C   UNL     1      22.982  43.957  46.273  1.00  0.00     0.050 C 
HETATM   19  C   UNL     1      20.498  44.254  46.132  1.00  0.00     0.010 A 
HETATM   20  C   UNL     1      19.261  44.631  46.672  1.00  0.00     0.024 A 
ENDBRANCH  11  13
ENDBRANCH  10  11
ENDBRANCH   7  10
BRANCH   1  21
HETATM   21  C   UNL     1      18.834  49.033  46.918  1.00  0.00     0.293 C 
HETATM   22  O   UNL     1      19.349  48.233  46.155  1.00  0.00    -0.259 OA
BRANCH  21  23
HETATM   23  O   UNL     1      18.239  50.202  46.573  1.00  0.00    -0.318 OA
BRANCH  23  24
HETATM   24  C   UNL     1      16.804  50.190  46.574  1.00  0.00     0.174 C 
HETATM   25  C   UNL     1      16.271  49.723  45.232  1.00  0.00     0.034 C 
ENDBRANCH  23  24
ENDBRANCH  21  23
ENDBRANCH   1  21
BRANCH   2  26
HETATM   26  C   UNL     1      21.033  49.859  48.916  1.00  0.00    -0.031 A 
HETATM   27  C   UNL     1      21.755  48.661  49.053  1.00  0.00     0.011 A 
HETATM   28  C   UNL     1      23.136  48.635  48.842  1.00  0.00     0.024 A 
HETATM   29  C   UNL     1      23.807  49.804  48.491  1.00  0.00     0.034 A 
HETATM   30 CL   UNL     1      25.508  49.771  48.239  1.00  0.00    -0.084 Cl
HETATM   31  C   UNL     1      23.109  51.000  48.345  1.00  0.00     0.024 A 
HETATM   32  C   UNL     1      21.729  51.028  48.557  1.00  0.00     0.011 A 
ENDBRANCH   2  26
TORSDOF 7
ENDMDL
MODEL 5
REMARK VINA RESULT:      -8.4      2.094      2.867
REMARK  7 active torsions:
REMARK  status: ('A' for Active; 'I' for Inactive)
REMARK    1  A    between atoms: C_2  and  O_3 
REMARK    2  A    between atoms: O_3  and  C_4 
REMARK    3  A    between atoms: C_4  and  C_5 
REMARK    4  A    between atoms: C_6  and  C_7 
REMARK    5  A    between atoms: C_18  and  C_19 
REMARK    6  A    between atoms: C_19  and  N_20 
REMARK    7  A    between atoms: N_20  and  C_21 
ROOT
HETATM    1  C   UNL     1      24.118  46.302  49.553  1.00  0.00     0.068 A 
HETATM    2  C   UNL     1      23.375  46.720  48.318  1.00  0.00     0.161 A 
HETATM    3  N   UNL     1      22.501  45.666  47.839  1.00  0.00    -0.330 N 
HETATM    4  C   UNL     1      22.249  44.503  48.483  1.00  0.00     0.321 A 
HETATM    5  O   UNL     1      21.442  43.688  48.049  1.00  0.00    -0.247 OA
HETATM    6  N   UNL     1      22.941  44.281  49.633  1.00  0.00    -0.311 N 
HETATM    7  C   UNL     1      23.878  45.135  50.181  1.00  0.00     0.041 A 
HETATM    8  H   UNL     1      21.961  45.820  46.998  1.00  0.00     0.165 HD
HETATM    9  H   UNL     1      22.736  43.395  50.081  1.00  0.00     0.170 HD
ENDROOT
BRANCH   7  10
HETATM   10  C   UNL     1      24.554  44.653  51.448  1.00  0.00     0.150 C 
BRANCH  10  11
HETATM   11  N   UNL     1      25.991  44.625  51.199  1.00  0.00    -0.287 NA
HETATM   12  H   UNL     1      26.248  43.900  50.533  1.00  0.00     0.128 HD
BRANCH  11  13
HETATM   13  C   UNL     1      26.852  44.644  52.306  1.00  0.00     0.010 A 
HETATM   14  C   UNL     1      27.997  43.838  52.289  1.00  0.00     0.047 A 
HETATM   15  C   UNL     1      28.918  43.857  53.346  1.00  0.00     0.041 A 
HETATM   16 CL   UNL     1      30.288  42.806  53.242  1.00  0.00    -0.084 Cl
HETATM   17  C   UNL     1      28.733  44.707  54.442  1.00  0.00    -0.040 A 
HETATM   18  C   UNL     1      29.701  44.767  55.588  1.00  0.00     0.050 C 
HETATM   19  C   UNL     1      27.623  45.560  54.434  1.00  0.00     0.010 A 
HETATM   20  C   UNL     1      26.706  45.534  53.375  1.00  0.00     0.024 A 
ENDBRANCH  11  13
ENDBRANCH  10  11
ENDBRANCH   7  10
BRANCH   1  21
HETATM   21  C   UNL     1      25.139  47.245  50.060  1.00  0.00     0.293 C 
HETATM   22  O   UNL     1      25.029  47.897  51.084  1.00  0.00    -0.259 OA
BRANCH  21  23
HETATM   23  O   UNL     1      26.188  47.273  49.199  1.00  0.00    -0.318 OA
BRANCH  23  24
HETATM   24  C   UNL     1      27.113  48.353  49.389  1.00  0.00     0.174 C 
HETATM   25  C   UNL     1      26.735  49.541  48.524  1.00  0.00     0.034 C 
ENDBRANCH  23  24
ENDBRANCH  21  23
ENDBRANCH   1  21
BRANCH   2  26
HETATM   26  C   UNL     1      22.570  47.997  48.529  1.00  0.00    -0.031 A 
HETATM   27  C   UNL     1      21.265  47.933  49.045  1.00  0.00     0.011 A 
HETATM   28  C   UNL     1      20.502  49.093  49.198  1.00  0.00     0.024 A 
HETATM   29  C   UNL     1      21.037  50.328  48.837  1.00  0.00     0.034 A 
HETATM   30 CL   UNL     1      20.093  51.755  49.020  1.00  0.00    -0.084 Cl
HETATM   31  C   UNL     1      22.330  50.414  48.328  1.00  0.00     0.024 A 
HETATM   32  C   UNL     1      23.093  49.254  48.173  1.00  0.00     0.011 A 
ENDBRANCH   2  26
TORSDOF 7
ENDMDL
MODEL 6
REMARK VINA RESULT:      -8.3      4.120      5.884
REMARK  7 active torsions:
REMARK  status: ('A' for Active; 'I' for Inactive)
REMARK    1  A    between atoms: C_2  and  O_3 
REMARK    2  A    between atoms: O_3  and  C_4 
REMARK    3  A    between atoms: C_4  and  C_5 
REMARK    4  A    between atoms: C_6  and  C_7 
REMARK    5  A    between atoms: C_18  and  C_19 
REMARK    6  A    between atoms: C_19  and  N_20 
REMARK    7  A    between atoms: N_20  and  C_21 
ROOT
HETATM    1  C   UNL     1      26.476  44.080  50.254  1.00  0.00     0.068 A 
HETATM    2  C   UNL     1      25.717  43.285  49.232  1.00  0.00     0.161 A 
HETATM    3  N   UNL     1      25.694  41.873  49.566  1.00  0.00    -0.330 N 
HETATM    4  C   UNL     1      26.152  41.332  50.718  1.00  0.00     0.321 A 
HETATM    5  O   UNL     1      26.033  40.135  50.959  1.00  0.00    -0.247 OA
HETATM    6  N   UNL     1      26.757  42.181  51.592  1.00  0.00    -0.311 N 
HETATM    7  C   UNL     1      26.947  43.534  51.392  1.00  0.00     0.041 A 
HETATM    8  H   UNL     1      25.229  41.229  48.941  1.00  0.00     0.165 HD
HETATM    9  H   UNL     1      27.099  41.738  52.437  1.00  0.00     0.170 HD
ENDROOT
BRANCH   7  10
HETATM   10  C   UNL     1      27.688  44.270  52.489  1.00  0.00     0.150 C 
BRANCH  10  11
HETATM   11  N   UNL     1      28.712  43.371  53.011  1.00  0.00    -0.287 NA
HETATM   12  H   UNL     1      28.394  42.405  53.037  1.00  0.00     0.128 HD
BRANCH  11  13
HETATM   13  C   UNL     1      29.367  43.736  54.196  1.00  0.00     0.010 A 
HETATM   14  C   UNL     1      28.809  44.738  54.999  1.00  0.00     0.047 A 
HETATM   15  C   UNL     1      29.394  45.106  56.219  1.00  0.00     0.041 A 
HETATM   16 CL   UNL     1      28.641  46.372  57.125  1.00  0.00    -0.084 Cl
HETATM   17  C   UNL     1      30.545  44.460  56.685  1.00  0.00    -0.040 A 
HETATM   18  C   UNL     1      31.195  44.815  57.991  1.00  0.00     0.050 C 
HETATM   19  C   UNL     1      31.070  43.415  55.916  1.00  0.00     0.010 A 
HETATM   20  C   UNL     1      30.481  43.054  54.698  1.00  0.00     0.024 A 
ENDBRANCH  11  13
ENDBRANCH  10  11
ENDBRANCH   7  10
BRANCH   1  21
HETATM   21  C   UNL     1      26.682  45.514  49.954  1.00  0.00     0.293 C 
HETATM   22  O   UNL     1      27.574  45.951  49.246  1.00  0.00    -0.259 OA
BRANCH  21  23
HETATM   23  O   UNL     1      25.739  46.246  50.599  1.00  0.00    -0.318 OA
BRANCH  23  24
HETATM   24  C   UNL     1      25.381  47.485  49.970  1.00  0.00     0.174 C 
HETATM   25  C   UNL     1      23.889  47.539  49.701  1.00  0.00     0.034 C 
ENDBRANCH  23  24
ENDBRANCH  21  23
ENDBRANCH   1  21
BRANCH   2  26
HETATM   26  C   UNL     1      24.292  43.791  49.042  1.00  0.00    -0.031 A 
HETATM   27  C   UNL     1      23.372  43.726  50.102  1.00  0.00     0.011 A 
HETATM   28  C   UNL     1      22.051  44.144  49.924  1.00  0.00     0.024 A 
HETATM   29  C   UNL     1      21.638  44.632  48.686  1.00  0.00     0.034 A 
HETATM   30 CL   UNL     1      20.009  45.139  48.467  1.00  0.00    -0.084 Cl
HETATM   31  C   UNL     1      22.536  44.708  47.624  1.00  0.00     0.024 A 
HETATM   32  C   UNL     1      23.857  44.290  47.800  1.00  0.00     0.011 A 
ENDBRANCH   2  26
TORSDOF 7
ENDMDL
MODEL 7
REMARK VINA RESULT:      -8.1      1.898      2.784
REMARK  7 active torsions:
REMARK  status: ('A' for Active; 'I' for Inactive)
REMARK    1  A    between atoms: C_2  and  O_3 
REMARK    2  A    between atoms: O_3  and  C_4 
REMARK    3  A    between atoms: C_4  and  C_5 
REMARK    4  A    between atoms: C_6  and  C_7 
REMARK    5  A    between atoms: C_18  and  C_19 
REMARK    6  A    between atoms: C_19  and  N_20 
REMARK    7  A    between atoms: N_20  and  C_21 
ROOT
HETATM    1  C   UNL     1      22.538  47.738  48.304  1.00  0.00     0.068 A 
HETATM    2  C   UNL     1      21.464  47.166  47.426  1.00  0.00     0.161 A 
HETATM    3  N   UNL     1      21.355  45.728  47.586  1.00  0.00    -0.330 N 
HETATM    4  C   UNL     1      22.014  44.989  48.508  1.00  0.00     0.321 A 
HETATM    5  O   UNL     1      21.817  43.785  48.629  1.00  0.00    -0.247 OA
HETATM    6  N   UNL     1      22.912  45.649  49.289  1.00  0.00    -0.311 N 
HETATM    7  C   UNL     1      23.206  46.996  49.207  1.00  0.00     0.041 A 
HETATM    8  H   UNL     1      20.678  45.222  47.031  1.00  0.00     0.165 HD
HETATM    9  H   UNL     1      23.395  45.062  49.959  1.00  0.00     0.170 HD
ENDROOT
BRANCH   7  10
HETATM   10  C   UNL     1      24.276  47.500  50.154  1.00  0.00     0.150 C 
BRANCH  10  11
HETATM   11  N   UNL     1      25.314  46.478  50.233  1.00  0.00    -0.287 NA
HETATM   12  H   UNL     1      25.050  45.627  49.743  1.00  0.00     0.128 HD
BRANCH  11  13
HETATM   13  C   UNL     1      25.874  46.203  51.490  1.00  0.00     0.010 A 
HETATM   14  C   UNL     1      26.557  44.996  51.679  1.00  0.00     0.047 A 
HETATM   15  C   UNL     1      27.179  44.693  52.898  1.00  0.00     0.041 A 
HETATM   16 CL   UNL     1      27.976  43.165  53.040  1.00  0.00    -0.084 Cl
HETATM   17  C   UNL     1      27.158  45.606  53.959  1.00  0.00    -0.040 A 
HETATM   18  C   UNL     1      27.823  45.327  55.276  1.00  0.00     0.050 C 
HETATM   19  C   UNL     1      26.531  46.840  53.753  1.00  0.00     0.010 A 
HETATM   20  C   UNL     1      25.910  47.135  52.533  1.00  0.00     0.024 A 
ENDBRANCH  11  13
ENDBRANCH  10  11
ENDBRANCH   7  10
BRANCH   1  21
HETATM   21  C   UNL     1      22.833  49.178  48.131  1.00  0.00     0.293 C 
HETATM   22  O   UNL     1      23.561  49.635  47.266  1.00  0.00    -0.259 OA
BRANCH  21  23
HETATM   23  O   UNL     1      22.182  49.885  49.089  1.00  0.00    -0.318 OA
BRANCH  23  24
HETATM   24  C   UNL     1      21.744  51.195  48.698  1.00  0.00     0.174 C 
HETATM   25  C   UNL     1      20.272  51.384  49.016  1.00  0.00     0.034 C 
ENDBRANCH  23  24
ENDBRANCH  21  23
ENDBRANCH   1  21
BRANCH   2  26
HETATM   26  C   UNL     1      20.106  47.813  47.673  1.00  0.00    -0.031 A 
HETATM   27  C   UNL     1      19.462  47.654  48.911  1.00  0.00     0.011 A 
HETATM   28  C   UNL     1      18.196  48.205  49.131  1.00  0.00     0.024 A 
HETATM   29  C   UNL     1      17.565  48.919  48.115  1.00  0.00     0.034 A 
HETATM   30 CL   UNL     1      16.004  49.590  48.386  1.00  0.00    -0.084 Cl
HETATM   31  C   UNL     1      18.188  49.092  46.882  1.00  0.00     0.024 A 
HETATM   32  C   UNL     1      19.453  48.541  46.661  1.00  0.00     0.011 A 
ENDBRANCH   2  26
TORSDOF 7
ENDMDL
MODEL 8
REMARK VINA RESULT:      -8.1      8.084     10.340
REMARK  7 active torsions:
REMARK  status: ('A' for Active; 'I' for Inactive)
REMARK    1  A    between atoms: C_2  and  O_3 
REMARK    2  A    between atoms: O_3  and  C_4 
REMARK    3  A    between atoms: C_4  and  C_5 
REMARK    4  A    between atoms: C_6  and  C_7 
REMARK    5  A    between atoms: C_18  and  C_19 
REMARK    6  A    between atoms: C_19  and  N_20 
REMARK    7  A    between atoms: N_20  and  C_21 
ROOT
HETATM    1  C   UNL     1      27.830  39.475  49.830  1.00  0.00     0.068 A 
HETATM    2  C   UNL     1      26.783  39.284  48.771  1.00  0.00     0.161 A 
HETATM    3  N   UNL     1      25.617  40.111  49.021  1.00  0.00    -0.330 N 
HETATM    4  C   UNL     1      25.516  41.055  49.985  1.00  0.00     0.321 A 
HETATM    5  O   UNL     1      24.522  41.765  50.090  1.00  0.00    -0.247 OA
HETATM    6  N   UNL     1      26.571  41.170  50.837  1.00  0.00    -0.311 N 
HETATM    7  C   UNL     1      27.718  40.402  50.800  1.00  0.00     0.041 A 
HETATM    8  H   UNL     1      24.832  40.056  48.386  1.00  0.00     0.165 HD
HETATM    9  H   UNL     1      26.455  41.878  51.553  1.00  0.00     0.170 HD
ENDROOT
BRANCH   7  10
HETATM   10  C   UNL     1      28.740  40.683  51.881  1.00  0.00     0.150 C 
BRANCH  10  11
HETATM   11  N   UNL     1      29.184  42.064  51.723  1.00  0.00    -0.287 NA
HETATM   12  H   UNL     1      30.096  42.122  51.277  1.00  0.00     0.128 HD
BRANCH  11  13
HETATM   13  C   UNL     1      29.090  42.918  52.832  1.00  0.00     0.010 A 
HETATM   14  C   UNL     1      30.039  42.807  53.855  1.00  0.00     0.047 A 
HETATM   15  C   UNL     1      30.023  43.669  54.961  1.00  0.00     0.041 A 
HETATM   16 CL   UNL     1      31.222  43.434  56.184  1.00  0.00    -0.084 Cl
HETATM   17  C   UNL     1      29.069  44.688  55.061  1.00  0.00    -0.040 A 
HETATM   18  C   UNL     1      29.025  45.640  56.221  1.00  0.00     0.050 C 
HETATM   19  C   UNL     1      28.158  44.843  54.009  1.00  0.00     0.010 A 
HETATM   20  C   UNL     1      28.179  43.977  52.908  1.00  0.00     0.024 A 
ENDBRANCH  11  13
ENDBRANCH  10  11
ENDBRANCH   7  10
BRANCH   1  21
HETATM   21  C   UNL     1      29.011  38.586  49.756  1.00  0.00     0.293 C 
HETATM   22  O   UNL     1      30.001  38.808  49.079  1.00  0.00    -0.259 OA
BRANCH  21  23
HETATM   23  O   UNL     1      28.802  37.498  50.539  1.00  0.00    -0.318 OA
BRANCH  23  24
HETATM   24  C   UNL     1      29.891  37.140  51.403  1.00  0.00     0.174 C 
HETATM   25  C   UNL     1      29.792  35.683  51.815  1.00  0.00     0.034 C 
ENDBRANCH  23  24
ENDBRANCH  21  23
ENDBRANCH   1  21
BRANCH   2  26
HETATM   26  C   UNL     1      27.316  39.559  47.370  1.00  0.00    -0.031 A 
HETATM   27  C   UNL     1      27.419  38.515  46.436  1.00  0.00     0.011 A 
HETATM   28  C   UNL     1      27.950  38.747  45.164  1.00  0.00     0.024 A 
HETATM   29  C   UNL     1      28.382  40.025  44.816  1.00  0.00     0.034 A 
HETATM   30 CL   UNL     1      29.042  40.307  43.252  1.00  0.00    -0.084 Cl
HETATM   31  C   UNL     1      28.284  41.075  45.726  1.00  0.00     0.024 A 
HETATM   32  C   UNL     1      27.755  40.843  46.997  1.00  0.00     0.011 A 
ENDBRANCH   2  26
TORSDOF 7
ENDMDL
MODEL 9
REMARK VINA RESULT:      -8.0      2.824      8.467
REMARK  7 active torsions:
REMARK  status: ('A' for Active; 'I' for Inactive)
REMARK    1  A    between atoms: C_2  and  O_3 
REMARK    2  A    between atoms: O_3  and  C_4 
REMARK    3  A    between atoms: C_4  and  C_5 
REMARK    4  A    between atoms: C_6  and  C_7 
REMARK    5  A    between atoms: C_18  and  C_19 
REMARK    6  A    between atoms: C_19  and  N_20 
REMARK    7  A    between atoms: N_20  and  C_21 
ROOT
HETATM    1  C   UNL     1      25.120  45.966  51.586  1.00  0.00     0.068 A 
HETATM    2  C   UNL     1      25.056  44.646  52.298  1.00  0.00     0.161 A 
HETATM    3  N   UNL     1      24.284  43.674  51.548  1.00  0.00    -0.330 N 
HETATM    4  C   UNL     1      23.801  43.852  50.297  1.00  0.00     0.321 A 
HETATM    5  O   UNL     1      23.216  42.955  49.698  1.00  0.00    -0.247 OA
HETATM    6  N   UNL     1      23.991  45.078  49.739  1.00  0.00    -0.311 N 
HETATM    7  C   UNL     1      24.621  46.145  50.348  1.00  0.00     0.041 A 
HETATM    8  H   UNL     1      24.151  42.749  51.935  1.00  0.00     0.165 HD
HETATM    9  H   UNL     1      23.605  45.179  48.807  1.00  0.00     0.170 HD
ENDROOT
BRANCH   7  10
HETATM   10  C   UNL     1      24.675  47.429  49.547  1.00  0.00     0.150 C 
BRANCH  10  11
HETATM   11  N   UNL     1      23.721  48.361  50.139  1.00  0.00    -0.287 NA
HETATM   12  H   UNL     1      23.313  47.995  50.995  1.00  0.00     0.128 HD
BRANCH  11  13
HETATM   13  C   UNL     1      22.752  48.932  49.301  1.00  0.00     0.010 A 
HETATM   14  C   UNL     1      21.886  48.091  48.593  1.00  0.00     0.047 A 
HETATM   15  C   UNL     1      20.866  48.608  47.782  1.00  0.00     0.041 A 
HETATM   16 CL   UNL     1      19.866  47.486  46.928  1.00  0.00    -0.084 Cl
HETATM   17  C   UNL     1      20.666  49.989  47.679  1.00  0.00    -0.040 A 
HETATM   18  C   UNL     1      19.577  50.584  46.833  1.00  0.00     0.050 C 
HETATM   19  C   UNL     1      21.488  50.833  48.435  1.00  0.00     0.010 A 
HETATM   20  C   UNL     1      22.506  50.308  49.241  1.00  0.00     0.024 A 
ENDBRANCH  11  13
ENDBRANCH  10  11
ENDBRANCH   7  10
BRANCH   1  21
HETATM   21  C   UNL     1      25.769  47.078  52.316  1.00  0.00     0.293 C 
HETATM   22  O   UNL     1      26.498  47.909  51.802  1.00  0.00    -0.259 OA
BRANCH  21  23
HETATM   23  O   UNL     1      25.434  47.006  53.629  1.00  0.00    -0.318 OA
BRANCH  23  24
HETATM   24  C   UNL     1      26.220  47.821  54.512  1.00  0.00     0.174 C 
HETATM   25  C   UNL     1      27.455  47.071  54.977  1.00  0.00     0.034 C 
ENDBRANCH  23  24
ENDBRANCH  21  23
ENDBRANCH   1  21
BRANCH   2  26
HETATM   26  C   UNL     1      26.439  44.081  52.600  1.00  0.00    -0.031 A 
HETATM   27  C   UNL     1      26.766  43.672  53.903  1.00  0.00     0.011 A 
HETATM   28  C   UNL     1      28.046  43.196  54.200  1.00  0.00     0.024 A 
HETATM   29  C   UNL     1      29.009  43.124  53.195  1.00  0.00     0.034 A 
HETATM   30 CL   UNL     1      30.586  42.544  53.564  1.00  0.00    -0.084 Cl
HETATM   31  C   UNL     1      28.703  43.520  51.896  1.00  0.00     0.024 A 
HETATM   32  C   UNL     1      27.424  43.997  51.599  1.00  0.00     0.011 A 
ENDBRANCH   2  26
TORSDOF 7
ENDMDL
MODEL 10
REMARK VINA RESULT:      -7.9     20.835     22.619
REMARK  7 active torsions:
REMARK  status: ('A' for Active; 'I' for Inactive)
REMARK    1  A    between atoms: C_2  and  O_3 
REMARK    2  A    between atoms: O_3  and  C_4 
REMARK    3  A    between atoms: C_4  and  C_5 
REMARK    4  A    between atoms: C_6  and  C_7 
REMARK    5  A    between atoms: C_18  and  C_19 
REMARK    6  A    between atoms: C_19  and  N_20 
REMARK    7  A    between atoms: N_20  and  C_21 
ROOT
HETATM    1  C   UNL     1      38.303  45.395  64.793  1.00  0.00     0.068 A 
HETATM    2  C   UNL     1      39.142  44.908  63.648  1.00  0.00     0.161 A 
HETATM    3  N   UNL     1      40.432  45.571  63.614  1.00  0.00    -0.330 N 
HETATM    4  C   UNL     1      40.908  46.410  64.563  1.00  0.00     0.321 A 
HETATM    5  O   UNL     1      42.040  46.878  64.500  1.00  0.00    -0.247 OA
HETATM    6  N   UNL     1      40.065  46.713  65.587  1.00  0.00    -0.311 N 
HETATM    7  C   UNL     1      38.774  46.245  65.726  1.00  0.00     0.041 A 
HETATM    8  H   UNL     1      41.082  45.343  62.874  1.00  0.00     0.165 HD
HETATM    9  H   UNL     1      40.451  47.353  66.271  1.00  0.00     0.170 HD
ENDROOT
BRANCH   7  10
HETATM   10  C   UNL     1      38.008  46.755  66.928  1.00  0.00     0.150 C 
BRANCH  10  11
HETATM   11  N   UNL     1      36.980  47.671  66.443  1.00  0.00    -0.287 NA
HETATM   12  H   UNL     1      36.728  47.482  65.476  1.00  0.00     0.128 HD
BRANCH  11  13
HETATM   13  C   UNL     1      37.155  49.042  66.678  1.00  0.00     0.010 A 
HETATM   14  C   UNL     1      36.850  49.558  67.943  1.00  0.00     0.047 A 
HETATM   15  C   UNL     1      37.054  50.911  68.248  1.00  0.00     0.041 A 
HETATM   16 CL   UNL     1      36.622  51.456  69.831  1.00  0.00    -0.084 Cl
HETATM   17  C   UNL     1      37.598  51.784  67.299  1.00  0.00    -0.040 A 
HETATM   18  C   UNL     1      37.846  53.237  67.590  1.00  0.00     0.050 C 
HETATM   19  C   UNL     1      37.964  51.260  66.055  1.00  0.00     0.010 A 
HETATM   20  C   UNL     1      37.755  49.907  65.757  1.00  0.00     0.024 A 
ENDBRANCH  11  13
ENDBRANCH  10  11
ENDBRANCH   7  10
BRANCH   1  21
HETATM   21  C   UNL     1      36.914  44.887  64.854  1.00  0.00     0.293 C 
HETATM   22  O   UNL     1      35.982  45.346  64.216  1.00  0.00    -0.259 OA
BRANCH  21  23
HETATM   23  O   UNL     1      36.853  43.857  65.735  1.00  0.00    -0.318 OA
BRANCH  23  24
HETATM   24  C   UNL     1      35.736  42.971  65.572  1.00  0.00     0.174 C 
HETATM   25  C   UNL     1      36.204  41.591  65.148  1.00  0.00     0.034 C 
ENDBRANCH  23  24
ENDBRANCH  21  23
ENDBRANCH   1  21
BRANCH   2  26
HETATM   26  C   UNL     1      39.343  43.397  63.676  1.00  0.00    -0.031 A 
HETATM   27  C   UNL     1      40.134  42.807  64.676  1.00  0.00     0.011 A 
HETATM   28  C   UNL     1      40.362  41.429  64.682  1.00  0.00     0.024 A 
HETATM   29  C   UNL     1      39.800  40.628  63.690  1.00  0.00     0.034 A 
HETATM   30 CL   UNL     1      40.089  38.932  63.696  1.00  0.00    -0.084 Cl
HETATM   31  C   UNL     1      39.010  41.193  62.692  1.00  0.00     0.024 A 
HETATM   32  C   UNL     1      38.782  42.571  62.684  1.00  0.00     0.011 A 
ENDBRANCH   2  26
TORSDOF 7
ENDMDL
