MODEL 1
REMARK VINA RESULT:      -8.7      0.000      0.000
REMARK  6 active torsions:
REMARK  status: ('A' for Active; 'I' for Inactive)
REMARK    1  A    between atoms: C_2  and  O_3 
REMARK    2  A    between atoms: O_3  and  C_4 
REMARK    3  A    between atoms: C_5  and  O_6 
REMARK    4  A    between atoms: C_10  and  C_11 
REMARK    5  A    between atoms: C_20  and  C_21 
REMARK       I    between atoms: C_21  and  N_22 
REMARK    6  A    between atoms: N_22  and  C_23 
ROOT
HETATM    1  C   UNL     1      25.016  43.291  51.434  1.00  0.00     0.202 C 
HETATM    2  N   UNL     1      24.003  43.595  50.418  1.00  0.00    -0.084 N 
HETATM    3  C   UNL     1      23.701  44.860  49.992  1.00  0.00     0.725 A 
HETATM    4  N   UNL     1      22.766  44.800  49.080  1.00  0.00    -0.054 NA
HETATM    5  C   UNL     1      22.500  43.457  49.005  1.00  0.00     0.275 A 
HETATM    6  N   UNL     1      23.222  42.674  49.816  1.00  0.00    -0.149 NA
HETATM    7  N   UNL     1      24.326  45.913  50.553  1.00  0.00    -0.192 N 
HETATM    8  C   UNL     1      25.146  45.798  51.672  1.00  0.00     0.037 C 
HETATM    9  C   UNL     1      25.478  47.098  52.364  1.00  0.00     0.070 C 
HETATM   10  C   UNL     1      25.518  44.567  52.108  1.00  0.00     0.062 C 
HETATM   11  H   UNL     1      23.983  46.842  50.317  1.00  0.00     0.184 HD
ENDROOT
BRANCH   1  12
HETATM   12  C   UNL     1      26.141  42.472  50.799  1.00  0.00    -0.024 A 
HETATM   13  C   UNL     1      26.974  41.691  51.620  1.00  0.00     0.031 A 
HETATM   14  C   UNL     1      27.976  40.894  51.062  1.00  0.00     0.047 A 
HETATM   15  C   UNL     1      28.157  40.879  49.681  1.00  0.00     0.116 A 
HETATM   16 BR   UNL     1      29.050  39.843  52.218  1.00  0.00    -0.048 Br
HETATM   17  C   UNL     1      27.348  41.659  48.843  1.00  0.00     0.103 A 
HETATM   18  C   UNL     1      26.341  42.448  49.403  1.00  0.00     0.049 A 
BRANCH  15  19
HETATM   19  O   UNL     1      29.130  40.094  49.115  1.00  0.00    -0.357 OA
HETATM   20  H   UNL     1      29.522  39.592  49.855  1.00  0.00     0.218 HD
ENDBRANCH  15  19
BRANCH  17  21
HETATM   21  O   UNL     1      27.636  41.549  47.505  1.00  0.00    -0.349 OA
BRANCH  21  22
HETATM   22  C   UNL     1      26.753  40.759  46.710  1.00  0.00     0.171 C 
HETATM   23  C   UNL     1      27.595  39.783  45.909  1.00  0.00     0.034 C 
ENDBRANCH  21  22
ENDBRANCH  17  21
ENDBRANCH   1  12
BRANCH  10  24
HETATM   24  C   UNL     1      26.318  44.317  53.340  1.00  0.00     0.256 C 
HETATM   25  N   UNL     1      27.665  44.560  53.186  1.00  0.00    -0.323 N 
HETATM   26  H   UNL     1      27.983  44.842  52.268  1.00  0.00     0.169 HD
HETATM   27  O   UNL     1      25.742  43.898  54.335  1.00  0.00    -0.267 OA
BRANCH  25  28
HETATM   28  C   UNL     1      28.658  44.518  54.188  1.00  0.00     0.035 A 
HETATM   29  C   UNL     1      28.865  45.530  55.126  1.00  0.00     0.029 A 
HETATM   30  C   UNL     1      29.893  45.425  56.068  1.00  0.00     0.002 A 
HETATM   31  C   UNL     1      30.728  44.311  56.077  1.00  0.00     0.000 A 
HETATM   32  C   UNL     1      30.530  43.293  55.147  1.00  0.00     0.002 A 
HETATM   33  C   UNL     1      29.496  43.394  54.211  1.00  0.00     0.029 A 
ENDBRANCH  25  28
ENDBRANCH  10  24
TORSDOF 6
ENDMDL
MODEL 2
REMARK VINA RESULT:      -8.6      3.151      6.058
REMARK  6 active torsions:
REMARK  status: ('A' for Active; 'I' for Inactive)
REMARK    1  A    between atoms: C_2  and  O_3 
REMARK    2  A    between atoms: O_3  and  C_4 
REMARK    3  A    between atoms: C_5  and  O_6 
REMARK    4  A    between atoms: C_10  and  C_11 
REMARK    5  A    between atoms: C_20  and  C_21 
REMARK       I    between atoms: C_21  and  N_22 
REMARK    6  A    between atoms: N_22  and  C_23 
ROOT
HETATM    1  C   UNL     1      26.687  44.049  53.565  1.00  0.00     0.202 C 
HETATM    2  N   UNL     1      26.793  45.319  54.290  1.00  0.00    -0.084 N 
HETATM    3  C   UNL     1      27.968  45.833  54.767  1.00  0.00     0.725 A 
HETATM    4  N   UNL     1      27.735  46.976  55.358  1.00  0.00    -0.054 NA
HETATM    5  C   UNL     1      26.375  47.105  55.244  1.00  0.00     0.275 A 
HETATM    6  N   UNL     1      25.746  46.108  54.609  1.00  0.00    -0.149 NA
HETATM    7  N   UNL     1      29.107  45.131  54.613  1.00  0.00    -0.192 N 
HETATM    8  C   UNL     1      29.130  43.820  54.144  1.00  0.00     0.037 C 
HETATM    9  C   UNL     1      30.428  43.081  54.360  1.00  0.00     0.070 C 
HETATM   10  C   UNL     1      28.005  43.277  53.613  1.00  0.00     0.062 C 
HETATM   11  H   UNL     1      29.936  45.470  55.097  1.00  0.00     0.184 HD
ENDROOT
BRANCH   1  12
HETATM   12  C   UNL     1      26.208  44.319  52.137  1.00  0.00    -0.024 A 
HETATM   13  C   UNL     1      25.152  43.555  51.607  1.00  0.00     0.031 A 
HETATM   14  C   UNL     1      24.662  43.813  50.326  1.00  0.00     0.047 A 
HETATM   15  C   UNL     1      25.228  44.833  49.563  1.00  0.00     0.116 A 
HETATM   16 BR   UNL     1      23.221  42.767  49.677  1.00  0.00    -0.048 Br
HETATM   17  C   UNL     1      26.289  45.599  50.064  1.00  0.00     0.103 A 
HETATM   18  C   UNL     1      26.772  45.344  51.349  1.00  0.00     0.049 A 
BRANCH  15  19
HETATM   19  O   UNL     1      24.751  45.107  48.306  1.00  0.00    -0.357 OA
HETATM   20  H   UNL     1      24.952  46.050  48.152  1.00  0.00     0.218 HD
ENDBRANCH  15  19
BRANCH  17  21
HETATM   21  O   UNL     1      26.751  46.567  49.207  1.00  0.00    -0.349 OA
BRANCH  21  22
HETATM   22  C   UNL     1      26.528  47.927  49.578  1.00  0.00     0.171 C 
HETATM   23  C   UNL     1      27.704  48.745  49.075  1.00  0.00     0.034 C 
ENDBRANCH  21  22
ENDBRANCH  17  21
ENDBRANCH   1  12
BRANCH  10  24
HETATM   24  C   UNL     1      27.886  41.863  53.160  1.00  0.00     0.256 C 
HETATM   25  N   UNL     1      28.173  41.681  51.826  1.00  0.00    -0.323 N 
HETATM   26  H   UNL     1      28.397  42.505  51.283  1.00  0.00     0.169 HD
HETATM   27  O   UNL     1      27.520  41.020  53.969  1.00  0.00    -0.267 OA
BRANCH  25  28
HETATM   28  C   UNL     1      28.252  40.456  51.130  1.00  0.00     0.035 A 
HETATM   29  C   UNL     1      29.312  39.556  51.249  1.00  0.00     0.029 A 
HETATM   30  C   UNL     1      29.329  38.376  50.499  1.00  0.00     0.002 A 
HETATM   31  C   UNL     1      28.288  38.086  49.620  1.00  0.00     0.000 A 
HETATM   32  C   UNL     1      27.223  38.975  49.495  1.00  0.00     0.002 A 
HETATM   33  C   UNL     1      27.203  40.151  50.251  1.00  0.00     0.029 A 
ENDBRANCH  25  28
ENDBRANCH  10  24
TORSDOF 6
ENDMDL
MODEL 3
REMARK VINA RESULT:      -8.5      3.320      5.274
REMARK  6 active torsions:
REMARK  status: ('A' for Active; 'I' for Inactive)
REMARK    1  A    between atoms: C_2  and  O_3 
REMARK    2  A    between atoms: O_3  and  C_4 
REMARK    3  A    between atoms: C_5  and  O_6 
REMARK    4  A    between atoms: C_10  and  C_11 
REMARK    5  A    between atoms: C_20  and  C_21 
REMARK       I    between atoms: C_21  and  N_22 
REMARK    6  A    between atoms: N_22  and  C_23 
ROOT
HETATM    1  C   UNL     1      27.692  42.881  50.204  1.00  0.00     0.202 C 
HETATM    2  N   UNL     1      27.461  41.718  49.340  1.00  0.00    -0.084 N 
HETATM    3  C   UNL     1      27.207  40.457  49.805  1.00  0.00     0.725 A 
HETATM    4  N   UNL     1      27.041  39.645  48.793  1.00  0.00    -0.054 NA
HETATM    5  C   UNL     1      27.238  40.464  47.711  1.00  0.00     0.275 A 
HETATM    6  N   UNL     1      27.513  41.744  47.992  1.00  0.00    -0.149 NA
HETATM    7  N   UNL     1      27.205  40.230  51.133  1.00  0.00    -0.192 N 
HETATM    8  C   UNL     1      27.620  41.179  52.063  1.00  0.00     0.037 C 
HETATM    9  C   UNL     1      27.879  40.649  53.452  1.00  0.00     0.070 C 
HETATM   10  C   UNL     1      27.837  42.459  51.665  1.00  0.00     0.062 C 
HETATM   11  H   UNL     1      27.153  39.262  51.442  1.00  0.00     0.184 HD
ENDROOT
BRANCH   1  12
HETATM   12  C   UNL     1      26.573  43.902  49.988  1.00  0.00    -0.024 A 
HETATM   13  C   UNL     1      25.235  43.468  49.976  1.00  0.00     0.031 A 
HETATM   14  C   UNL     1      24.192  44.386  49.832  1.00  0.00     0.047 A 
HETATM   15  C   UNL     1      24.480  45.742  49.693  1.00  0.00     0.116 A 
HETATM   16 BR   UNL     1      22.409  43.744  49.849  1.00  0.00    -0.048 Br
HETATM   17  C   UNL     1      25.806  46.197  49.690  1.00  0.00     0.103 A 
HETATM   18  C   UNL     1      26.847  45.278  49.842  1.00  0.00     0.049 A 
BRANCH  15  19
HETATM   19  O   UNL     1      23.467  46.658  49.562  1.00  0.00    -0.357 OA
HETATM   20  H   UNL     1      22.790  46.220  49.011  1.00  0.00     0.218 HD
ENDBRANCH  15  19
BRANCH  17  21
HETATM   21  O   UNL     1      25.945  47.555  49.543  1.00  0.00    -0.349 OA
BRANCH  21  22
HETATM   22  C   UNL     1      27.252  48.049  49.255  1.00  0.00     0.171 C 
HETATM   23  C   UNL     1      27.115  49.491  48.798  1.00  0.00     0.034 C 
ENDBRANCH  21  22
ENDBRANCH  17  21
ENDBRANCH   1  12
BRANCH  10  24
HETATM   24  C   UNL     1      28.363  43.537  52.549  1.00  0.00     0.256 C 
HETATM   25  N   UNL     1      27.380  44.289  53.153  1.00  0.00    -0.323 N 
HETATM   26  H   UNL     1      26.420  44.070  52.921  1.00  0.00     0.169 HD
HETATM   27  O   UNL     1      29.575  43.685  52.631  1.00  0.00    -0.267 OA
BRANCH  25  28
HETATM   28  C   UNL     1      27.556  45.303  54.118  1.00  0.00     0.035 A 
HETATM   29  C   UNL     1      28.366  45.176  55.247  1.00  0.00     0.029 A 
HETATM   30  C   UNL     1      28.461  46.219  56.174  1.00  0.00     0.002 A 
HETATM   31  C   UNL     1      27.743  47.397  55.982  1.00  0.00     0.000 A 
HETATM   32  C   UNL     1      26.934  47.537  54.858  1.00  0.00     0.002 A 
HETATM   33  C   UNL     1      26.845  46.497  53.928  1.00  0.00     0.029 A 
ENDBRANCH  25  28
ENDBRANCH  10  24
TORSDOF 6
ENDMDL
MODEL 4
REMARK VINA RESULT:      -8.4      2.323      6.406
REMARK  6 active torsions:
REMARK  status: ('A' for Active; 'I' for Inactive)
REMARK    1  A    between atoms: C_2  and  O_3 
REMARK    2  A    between atoms: O_3  and  C_4 
REMARK    3  A    between atoms: C_5  and  O_6 
REMARK    4  A    between atoms: C_10  and  C_11 
REMARK    5  A    between atoms: C_20  and  C_21 
REMARK       I    between atoms: C_21  and  N_22 
REMARK    6  A    between atoms: N_22  and  C_23 
ROOT
HETATM    1  C   UNL     1      26.138  45.086  49.946  1.00  0.00     0.202 C 
HETATM    2  N   UNL     1      25.695  46.467  49.725  1.00  0.00    -0.084 N 
HETATM    3  C   UNL     1      24.390  46.832  49.537  1.00  0.00     0.725 A 
HETATM    4  N   UNL     1      24.319  48.128  49.374  1.00  0.00    -0.054 NA
HETATM    5  C   UNL     1      25.634  48.514  49.437  1.00  0.00     0.275 A 
HETATM    6  N   UNL     1      26.521  47.531  49.638  1.00  0.00    -0.149 NA
HETATM    7  N   UNL     1      23.436  45.882  49.506  1.00  0.00    -0.192 N 
HETATM    8  C   UNL     1      23.725  44.520  49.483  1.00  0.00     0.037 C 
HETATM    9  C   UNL     1      22.572  43.623  49.104  1.00  0.00     0.070 C 
HETATM   10  C   UNL     1      24.995  44.099  49.714  1.00  0.00     0.062 C 
HETATM   11  H   UNL     1      22.500  46.167  49.228  1.00  0.00     0.184 HD
ENDROOT
BRANCH   1  12
HETATM   12  C   UNL     1      26.751  44.968  51.343  1.00  0.00    -0.024 A 
HETATM   13  C   UNL     1      27.826  44.086  51.553  1.00  0.00     0.031 A 
HETATM   14  C   UNL     1      28.437  43.996  52.805  1.00  0.00     0.047 A 
HETATM   15  C   UNL     1      27.972  44.782  53.858  1.00  0.00     0.116 A 
HETATM   16 BR   UNL     1      29.898  42.808  53.019  1.00  0.00    -0.048 Br
HETATM   17  C   UNL     1      26.895  45.659  53.677  1.00  0.00     0.103 A 
HETATM   18  C   UNL     1      26.291  45.753  52.421  1.00  0.00     0.049 A 
BRANCH  15  19
HETATM   19  O   UNL     1      28.568  44.713  55.092  1.00  0.00    -0.357 OA
HETATM   20  H   UNL     1      29.527  44.776  54.922  1.00  0.00     0.218 HD
ENDBRANCH  15  19
BRANCH  17  21
HETATM   21  O   UNL     1      26.541  46.370  54.797  1.00  0.00    -0.349 OA
BRANCH  21  22
HETATM   22  C   UNL     1      26.111  47.717  54.605  1.00  0.00     0.171 C 
HETATM   23  C   UNL     1      26.456  48.499  55.860  1.00  0.00     0.034 C 
ENDBRANCH  21  22
ENDBRANCH  17  21
ENDBRANCH   1  12
BRANCH  10  24
HETATM   24  C   UNL     1      25.440  42.680  49.629  1.00  0.00     0.256 C 
HETATM   25  N   UNL     1      26.355  42.444  48.628  1.00  0.00    -0.323 N 
HETATM   26  H   UNL     1      26.607  43.225  48.036  1.00  0.00     0.169 HD
HETATM   27  O   UNL     1      24.946  41.866  50.399  1.00  0.00    -0.267 OA
BRANCH  25  28
HETATM   28  C   UNL     1      27.037  41.237  48.364  1.00  0.00     0.035 A 
HETATM   29  C   UNL     1      28.026  40.701  49.191  1.00  0.00     0.029 A 
HETATM   30  C   UNL     1      28.678  39.514  48.841  1.00  0.00     0.002 A 
HETATM   31  C   UNL     1      28.350  38.854  47.660  1.00  0.00     0.000 A 
HETATM   32  C   UNL     1      27.363  39.377  46.828  1.00  0.00     0.002 A 
HETATM   33  C   UNL     1      26.706  40.560  47.182  1.00  0.00     0.029 A 
ENDBRANCH  25  28
ENDBRANCH  10  24
TORSDOF 6
ENDMDL
MODEL 5
REMARK VINA RESULT:      -8.1      2.901      6.028
REMARK  6 active torsions:
REMARK  status: ('A' for Active; 'I' for Inactive)
REMARK    1  A    between atoms: C_2  and  O_3 
REMARK    2  A    between atoms: O_3  and  C_4 
REMARK    3  A    between atoms: C_5  and  O_6 
REMARK    4  A    between atoms: C_10  and  C_11 
REMARK    5  A    between atoms: C_20  and  C_21 
REMARK       I    between atoms: C_21  and  N_22 
REMARK    6  A    between atoms: N_22  and  C_23 
ROOT
HETATM    1  C   UNL     1      25.959  45.470  50.028  1.00  0.00     0.202 C 
HETATM    2  N   UNL     1      25.657  46.868  49.707  1.00  0.00    -0.084 N 
HETATM    3  C   UNL     1      24.394  47.348  49.489  1.00  0.00     0.725 A 
HETATM    4  N   UNL     1      24.452  48.629  49.234  1.00  0.00    -0.054 NA
HETATM    5  C   UNL     1      25.799  48.886  49.275  1.00  0.00     0.275 A 
HETATM    6  N   UNL     1      26.584  47.835  49.548  1.00  0.00    -0.149 NA
HETATM    7  N   UNL     1      23.349  46.498  49.522  1.00  0.00    -0.192 N 
HETATM    8  C   UNL     1      23.500  45.116  49.597  1.00  0.00     0.037 C 
HETATM    9  C   UNL     1      22.262  44.314  49.279  1.00  0.00     0.070 C 
HETATM   10  C   UNL     1      24.723  44.588  49.862  1.00  0.00     0.062 C 
HETATM   11  H   UNL     1      22.445  46.855  49.221  1.00  0.00     0.184 HD
ENDROOT
BRANCH   1  12
HETATM   12  C   UNL     1      26.562  45.390  51.432  1.00  0.00    -0.024 A 
HETATM   13  C   UNL     1      26.255  46.390  52.372  1.00  0.00     0.031 A 
HETATM   14  C   UNL     1      26.750  46.316  53.676  1.00  0.00     0.047 A 
HETATM   15  C   UNL     1      27.561  45.245  54.046  1.00  0.00     0.116 A 
HETATM   16 BR   UNL     1      26.280  47.680  54.905  1.00  0.00    -0.048 Br
HETATM   17  C   UNL     1      27.891  44.243  53.123  1.00  0.00     0.103 A 
HETATM   18  C   UNL     1      27.387  44.316  51.823  1.00  0.00     0.049 A 
BRANCH  15  19
HETATM   19  O   UNL     1      28.047  45.150  55.325  1.00  0.00    -0.357 OA
HETATM   20  H   UNL     1      28.054  44.196  55.531  1.00  0.00     0.218 HD
ENDBRANCH  15  19
BRANCH  17  21
HETATM   21  O   UNL     1      28.698  43.249  53.621  1.00  0.00    -0.349 OA
BRANCH  21  22
HETATM   22  C   UNL     1      29.241  42.321  52.684  1.00  0.00     0.171 C 
HETATM   23  C   UNL     1      28.644  40.957  52.980  1.00  0.00     0.034 C 
ENDBRANCH  21  22
ENDBRANCH  17  21
ENDBRANCH   1  12
BRANCH  10  24
HETATM   24  C   UNL     1      25.023  43.129  49.880  1.00  0.00     0.256 C 
HETATM   25  N   UNL     1      25.810  42.711  48.830  1.00  0.00    -0.323 N 
HETATM   26  H   UNL     1      26.075  43.405  48.144  1.00  0.00     0.169 HD
HETATM   27  O   UNL     1      24.533  42.442  50.767  1.00  0.00    -0.267 OA
BRANCH  25  28
HETATM   28  C   UNL     1      26.348  41.422  48.629  1.00  0.00     0.035 A 
HETATM   29  C   UNL     1      25.668  40.380  47.996  1.00  0.00     0.029 A 
HETATM   30  C   UNL     1      26.262  39.121  47.864  1.00  0.00     0.002 A 
HETATM   31  C   UNL     1      27.539  38.890  48.368  1.00  0.00     0.000 A 
HETATM   32  C   UNL     1      28.229  39.922  48.999  1.00  0.00     0.002 A 
HETATM   33  C   UNL     1      27.638  41.183  49.124  1.00  0.00     0.029 A 
ENDBRANCH  25  28
ENDBRANCH  10  24
TORSDOF 6
ENDMDL
MODEL 6
REMARK VINA RESULT:      -8.1      4.045      5.727
REMARK  6 active torsions:
REMARK  status: ('A' for Active; 'I' for Inactive)
REMARK    1  A    between atoms: C_2  and  O_3 
REMARK    2  A    between atoms: O_3  and  C_4 
REMARK    3  A    between atoms: C_5  and  O_6 
REMARK    4  A    between atoms: C_10  and  C_11 
REMARK    5  A    between atoms: C_20  and  C_21 
REMARK       I    between atoms: C_21  and  N_22 
REMARK    6  A    between atoms: N_22  and  C_23 
ROOT
HETATM    1  C   UNL     1      23.960  47.947  49.755  1.00  0.00     0.202 C 
HETATM    2  N   UNL     1      23.427  49.138  49.086  1.00  0.00    -0.084 N 
HETATM    3  C   UNL     1      24.181  49.992  48.327  1.00  0.00     0.725 A 
HETATM    4  N   UNL     1      23.420  50.949  47.864  1.00  0.00    -0.054 NA
HETATM    5  C   UNL     1      22.195  50.651  48.402  1.00  0.00     0.275 A 
HETATM    6  N   UNL     1      22.147  49.557  49.172  1.00  0.00    -0.149 NA
HETATM    7  N   UNL     1      25.505  49.774  48.205  1.00  0.00    -0.192 N 
HETATM    8  C   UNL     1      26.186  48.817  48.953  1.00  0.00     0.037 C 
HETATM    9  C   UNL     1      27.690  48.943  48.943  1.00  0.00     0.070 C 
HETATM   10  C   UNL     1      25.486  47.912  49.684  1.00  0.00     0.062 C 
HETATM   11  H   UNL     1      26.059  50.498  47.754  1.00  0.00     0.184 HD
ENDROOT
BRANCH   1  12
HETATM   12  C   UNL     1      23.309  46.697  49.158  1.00  0.00    -0.024 A 
HETATM   13  C   UNL     1      22.646  46.788  47.921  1.00  0.00     0.031 A 
HETATM   14  C   UNL     1      22.087  45.653  47.329  1.00  0.00     0.047 A 
HETATM   15  C   UNL     1      22.182  44.421  47.974  1.00  0.00     0.116 A 
HETATM   16 BR   UNL     1      21.228  45.834  45.650  1.00  0.00    -0.048 Br
HETATM   17  C   UNL     1      22.828  44.307  49.212  1.00  0.00     0.103 A 
HETATM   18  C   UNL     1      23.393  45.443  49.798  1.00  0.00     0.049 A 
BRANCH  15  19
HETATM   19  O   UNL     1      21.648  43.294  47.401  1.00  0.00    -0.357 OA
HETATM   20  H   UNL     1      22.320  42.597  47.525  1.00  0.00     0.218 HD
ENDBRANCH  15  19
BRANCH  17  21
HETATM   21  O   UNL     1      22.847  43.037  49.734  1.00  0.00    -0.349 OA
BRANCH  21  22
HETATM   22  C   UNL     1      23.998  42.659  50.487  1.00  0.00     0.171 C 
HETATM   23  C   UNL     1      24.999  42.039  49.528  1.00  0.00     0.034 C 
ENDBRANCH  21  22
ENDBRANCH  17  21
ENDBRANCH   1  12
BRANCH  10  24
HETATM   24  C   UNL     1      26.103  46.902  50.587  1.00  0.00     0.256 C 
HETATM   25  N   UNL     1      25.810  47.095  51.919  1.00  0.00    -0.323 N 
HETATM   26  H   UNL     1      25.248  47.902  52.158  1.00  0.00     0.169 HD
HETATM   27  O   UNL     1      26.823  46.042  50.097  1.00  0.00    -0.267 OA
BRANCH  25  28
HETATM   28  C   UNL     1      26.155  46.254  52.999  1.00  0.00     0.035 A 
HETATM   29  C   UNL     1      27.158  46.544  53.925  1.00  0.00     0.029 A 
HETATM   30  C   UNL     1      27.460  45.641  54.950  1.00  0.00     0.002 A 
HETATM   31  C   UNL     1      26.766  44.438  55.054  1.00  0.00     0.000 A 
HETATM   32  C   UNL     1      25.762  44.140  54.137  1.00  0.00     0.002 A 
HETATM   33  C   UNL     1      25.454  45.046  53.118  1.00  0.00     0.029 A 
ENDBRANCH  25  28
ENDBRANCH  10  24
TORSDOF 6
ENDMDL
MODEL 7
REMARK VINA RESULT:      -8.0      3.818      7.611
REMARK  6 active torsions:
REMARK  status: ('A' for Active; 'I' for Inactive)
REMARK    1  A    between atoms: C_2  and  O_3 
REMARK    2  A    between atoms: O_3  and  C_4 
REMARK    3  A    between atoms: C_5  and  O_6 
REMARK    4  A    between atoms: C_10  and  C_11 
REMARK    5  A    between atoms: C_20  and  C_21 
REMARK       I    between atoms: C_21  and  N_22 
REMARK    6  A    between atoms: N_22  and  C_23 
ROOT
HETATM    1  C   UNL     1      24.990  46.053  51.950  1.00  0.00     0.202 C 
HETATM    2  N   UNL     1      25.803  46.541  53.069  1.00  0.00    -0.084 N 
HETATM    3  C   UNL     1      26.944  45.929  53.510  1.00  0.00     0.725 A 
HETATM    4  N   UNL     1      27.441  46.605  54.513  1.00  0.00    -0.054 NA
HETATM    5  C   UNL     1      26.535  47.622  54.673  1.00  0.00     0.275 A 
HETATM    6  N   UNL     1      25.502  47.620  53.820  1.00  0.00    -0.149 NA
HETATM    7  N   UNL     1      27.347  44.783  52.928  1.00  0.00    -0.192 N 
HETATM    8  C   UNL     1      26.568  44.087  52.008  1.00  0.00     0.037 C 
HETATM    9  C   UNL     1      27.013  42.673  51.725  1.00  0.00     0.070 C 
HETATM   10  C   UNL     1      25.451  44.668  51.499  1.00  0.00     0.062 C 
HETATM   11  H   UNL     1      28.116  44.280  53.366  1.00  0.00     0.184 HD
ENDROOT
BRANCH   1  12
HETATM   12  C   UNL     1      25.011  47.084  50.820  1.00  0.00    -0.024 A 
HETATM   13  C   UNL     1      26.221  47.721  50.490  1.00  0.00     0.031 A 
HETATM   14  C   UNL     1      26.280  48.629  49.430  1.00  0.00     0.047 A 
HETATM   15  C   UNL     1      25.129  48.910  48.698  1.00  0.00     0.116 A 
HETATM   16 BR   UNL     1      27.944  49.436  49.018  1.00  0.00    -0.048 Br
HETATM   17  C   UNL     1      23.909  48.297  49.015  1.00  0.00     0.103 A 
HETATM   18  C   UNL     1      23.855  47.384  50.070  1.00  0.00     0.049 A 
BRANCH  15  19
HETATM   19  O   UNL     1      25.171  49.791  47.647  1.00  0.00    -0.357 OA
HETATM   20  H   UNL     1      24.499  49.473  47.014  1.00  0.00     0.218 HD
ENDBRANCH  15  19
BRANCH  17  21
HETATM   21  O   UNL     1      22.857  48.666  48.214  1.00  0.00    -0.349 OA
BRANCH  21  22
HETATM   22  C   UNL     1      21.599  48.040  48.460  1.00  0.00     0.171 C 
HETATM   23  C   UNL     1      21.265  47.176  47.258  1.00  0.00     0.034 C 
ENDBRANCH  21  22
ENDBRANCH  17  21
ENDBRANCH   1  12
BRANCH  10  24
HETATM   24  C   UNL     1      24.496  43.991  50.578  1.00  0.00     0.256 C 
HETATM   25  N   UNL     1      24.912  43.969  49.265  1.00  0.00    -0.323 N 
HETATM   26  H   UNL     1      25.784  44.433  49.047  1.00  0.00     0.169 HD
HETATM   27  O   UNL     1      23.446  43.561  51.037  1.00  0.00    -0.267 OA
BRANCH  25  28
HETATM   28  C   UNL     1      24.284  43.315  48.183  1.00  0.00     0.035 A 
HETATM   29  C   UNL     1      24.520  41.985  47.830  1.00  0.00     0.029 A 
HETATM   30  C   UNL     1      23.880  41.420  46.723  1.00  0.00     0.002 A 
HETATM   31  C   UNL     1      23.002  42.181  45.955  1.00  0.00     0.000 A 
HETATM   32  C   UNL     1      22.757  43.508  46.298  1.00  0.00     0.002 A 
HETATM   33  C   UNL     1      23.391  44.071  47.410  1.00  0.00     0.029 A 
ENDBRANCH  25  28
ENDBRANCH  10  24
TORSDOF 6
ENDMDL
MODEL 8
REMARK VINA RESULT:      -7.9      4.121      5.981
REMARK  6 active torsions:
REMARK  status: ('A' for Active; 'I' for Inactive)
REMARK    1  A    between atoms: C_2  and  O_3 
REMARK    2  A    between atoms: O_3  and  C_4 
REMARK    3  A    between atoms: C_5  and  O_6 
REMARK    4  A    between atoms: C_10  and  C_11 
REMARK    5  A    between atoms: C_20  and  C_21 
REMARK       I    between atoms: C_21  and  N_22 
REMARK    6  A    between atoms: N_22  and  C_23 
ROOT
HETATM    1  C   UNL     1      23.953  48.001  49.668  1.00  0.00     0.202 C 
HETATM    2  N   UNL     1      23.435  49.212  49.023  1.00  0.00    -0.084 N 
HETATM    3  C   UNL     1      24.205  50.090  48.312  1.00  0.00     0.725 A 
HETATM    4  N   UNL     1      23.455  51.061  47.859  1.00  0.00    -0.054 NA
HETATM    5  C   UNL     1      22.216  50.744  48.356  1.00  0.00     0.275 A 
HETATM    6  N   UNL     1      22.152  49.625  49.090  1.00  0.00    -0.149 NA
HETATM    7  N   UNL     1      25.533  49.879  48.216  1.00  0.00    -0.192 N 
HETATM    8  C   UNL     1      26.197  48.900  48.951  1.00  0.00     0.037 C 
HETATM    9  C   UNL     1      27.700  49.029  48.983  1.00  0.00     0.070 C 
HETATM   10  C   UNL     1      25.480  47.971  49.635  1.00  0.00     0.062 C 
HETATM   11  H   UNL     1      26.096  50.617  47.802  1.00  0.00     0.184 HD
ENDROOT
BRANCH   1  12
HETATM   12  C   UNL     1      23.321  46.769  49.016  1.00  0.00    -0.024 A 
HETATM   13  C   UNL     1      23.465  45.512  49.630  1.00  0.00     0.031 A 
HETATM   14  C   UNL     1      22.856  44.381  49.085  1.00  0.00     0.047 A 
HETATM   15  C   UNL     1      22.105  44.497  47.917  1.00  0.00     0.116 A 
HETATM   16 BR   UNL     1      23.065  42.719  49.972  1.00  0.00    -0.048 Br
HETATM   17  C   UNL     1      21.957  45.736  47.279  1.00  0.00     0.103 A 
HETATM   18  C   UNL     1      22.561  46.868  47.832  1.00  0.00     0.049 A 
BRANCH  15  19
HETATM   19  O   UNL     1      21.491  43.397  47.372  1.00  0.00    -0.357 OA
HETATM   20  H   UNL     1      21.857  43.314  46.471  1.00  0.00     0.218 HD
ENDBRANCH  15  19
BRANCH  17  21
HETATM   21  O   UNL     1      21.194  45.706  46.138  1.00  0.00    -0.349 OA
BRANCH  21  22
HETATM   22  C   UNL     1      20.175  46.696  46.009  1.00  0.00     0.171 C 
HETATM   23  C   UNL     1      18.989  46.257  46.850  1.00  0.00     0.034 C 
ENDBRANCH  21  22
ENDBRANCH  17  21
ENDBRANCH   1  12
BRANCH  10  24
HETATM   24  C   UNL     1      26.077  46.934  50.522  1.00  0.00     0.256 C 
HETATM   25  N   UNL     1      25.762  47.093  51.853  1.00  0.00    -0.323 N 
HETATM   26  H   UNL     1      25.199  47.896  52.103  1.00  0.00     0.169 HD
HETATM   27  O   UNL     1      26.801  46.084  50.021  1.00  0.00    -0.267 OA
BRANCH  25  28
HETATM   28  C   UNL     1      26.084  46.222  52.915  1.00  0.00     0.035 A 
HETATM   29  C   UNL     1      27.093  46.466  53.848  1.00  0.00     0.029 A 
HETATM   30  C   UNL     1      27.371  45.536  54.854  1.00  0.00     0.002 A 
HETATM   31  C   UNL     1      26.645  44.350  54.934  1.00  0.00     0.000 A 
HETATM   32  C   UNL     1      25.634  44.096  54.011  1.00  0.00     0.002 A 
HETATM   33  C   UNL     1      25.351  45.030  53.010  1.00  0.00     0.029 A 
ENDBRANCH  25  28
ENDBRANCH  10  24
TORSDOF 6
ENDMDL
MODEL 9
REMARK VINA RESULT:      -7.6      4.761      8.898
REMARK  6 active torsions:
REMARK  status: ('A' for Active; 'I' for Inactive)
REMARK    1  A    between atoms: C_2  and  O_3 
REMARK    2  A    between atoms: O_3  and  C_4 
REMARK    3  A    between atoms: C_5  and  O_6 
REMARK    4  A    between atoms: C_10  and  C_11 
REMARK    5  A    between atoms: C_20  and  C_21 
REMARK       I    between atoms: C_21  and  N_22 
REMARK    6  A    between atoms: N_22  and  C_23 
ROOT
HETATM    1  C   UNL     1      23.863  46.060  50.179  1.00  0.00     0.202 C 
HETATM    2  N   UNL     1      24.873  45.598  51.136  1.00  0.00    -0.084 N 
HETATM    3  C   UNL     1      25.569  44.427  51.009  1.00  0.00     0.725 A 
HETATM    4  N   UNL     1      26.396  44.300  52.013  1.00  0.00    -0.054 NA
HETATM    5  C   UNL     1      26.142  45.423  52.759  1.00  0.00     0.275 A 
HETATM    6  N   UNL     1      25.205  46.246  52.271  1.00  0.00    -0.149 NA
HETATM    7  N   UNL     1      25.300  43.607  49.973  1.00  0.00    -0.192 N 
HETATM    8  C   UNL     1      24.224  43.805  49.112  1.00  0.00     0.037 C 
HETATM    9  C   UNL     1      23.873  42.625  48.239  1.00  0.00     0.070 C 
HETATM   10  C   UNL     1      23.530  44.971  49.160  1.00  0.00     0.062 C 
HETATM   11  H   UNL     1      25.731  42.685  49.982  1.00  0.00     0.184 HD
ENDROOT
BRANCH   1  12
HETATM   12  C   UNL     1      24.340  47.359  49.525  1.00  0.00    -0.024 A 
HETATM   13  C   UNL     1      25.695  47.724  49.625  1.00  0.00     0.031 A 
HETATM   14  C   UNL     1      26.169  48.877  48.995  1.00  0.00     0.047 A 
HETATM   15  C   UNL     1      25.289  49.676  48.267  1.00  0.00     0.116 A 
HETATM   16 BR   UNL     1      28.009  49.303  49.145  1.00  0.00    -0.048 Br
HETATM   17  C   UNL     1      23.933  49.340  48.163  1.00  0.00     0.103 A 
HETATM   18  C   UNL     1      23.464  48.181  48.787  1.00  0.00     0.049 A 
BRANCH  15  19
HETATM   19  O   UNL     1      25.740  50.806  47.634  1.00  0.00    -0.357 OA
HETATM   20  H   UNL     1      26.650  50.599  47.348  1.00  0.00     0.218 HD
ENDBRANCH  15  19
BRANCH  17  21
HETATM   21  O   UNL     1      23.181  50.215  47.419  1.00  0.00    -0.349 OA
BRANCH  21  22
HETATM   22  C   UNL     1      21.763  50.130  47.548  1.00  0.00     0.171 C 
HETATM   23  C   UNL     1      21.319  51.203  48.526  1.00  0.00     0.034 C 
ENDBRANCH  21  22
ENDBRANCH  17  21
ENDBRANCH   1  12
BRANCH  10  24
HETATM   24  C   UNL     1      22.313  45.260  48.352  1.00  0.00     0.256 C 
HETATM   25  N   UNL     1      21.180  45.462  49.108  1.00  0.00    -0.323 N 
HETATM   26  H   UNL     1      21.268  45.364  50.111  1.00  0.00     0.169 HD
HETATM   27  O   UNL     1      22.408  45.255  47.131  1.00  0.00    -0.267 OA
BRANCH  25  28
HETATM   28  C   UNL     1      19.906  45.855  48.645  1.00  0.00     0.035 A 
HETATM   29  C   UNL     1      19.037  45.019  47.943  1.00  0.00     0.029 A 
HETATM   30  C   UNL     1      17.802  45.496  47.491  1.00  0.00     0.002 A 
HETATM   31  C   UNL     1      17.428  46.816  47.733  1.00  0.00     0.000 A 
HETATM   32  C   UNL     1      18.285  47.659  48.435  1.00  0.00     0.002 A 
HETATM   33  C   UNL     1      19.516  47.179  48.894  1.00  0.00     0.029 A 
ENDBRANCH  25  28
ENDBRANCH  10  24
TORSDOF 6
ENDMDL
MODEL 10
REMARK VINA RESULT:      -7.5     17.649     20.063
REMARK  6 active torsions:
REMARK  status: ('A' for Active; 'I' for Inactive)
REMARK    1  A    between atoms: C_2  and  O_3 
REMARK    2  A    between atoms: O_3  and  C_4 
REMARK    3  A    between atoms: C_5  and  O_6 
REMARK    4  A    between atoms: C_10  and  C_11 
REMARK    5  A    between atoms: C_20  and  C_21 
REMARK       I    between atoms: C_21  and  N_22 
REMARK    6  A    between atoms: N_22  and  C_23 
ROOT
HETATM    1  C   UNL     1      38.574  48.930  65.426  1.00  0.00     0.202 C 
HETATM    2  N   UNL     1      38.426  50.192  66.158  1.00  0.00    -0.084 N 
HETATM    3  C   UNL     1      37.522  50.392  67.165  1.00  0.00     0.725 A 
HETATM    4  N   UNL     1      37.640  51.612  67.621  1.00  0.00    -0.054 NA
HETATM    5  C   UNL     1      38.624  52.140  66.824  1.00  0.00     0.275 A 
HETATM    6  N   UNL     1      39.131  51.313  65.901  1.00  0.00    -0.149 NA
HETATM    7  N   UNL     1      36.672  49.400  67.497  1.00  0.00    -0.192 N 
HETATM    8  C   UNL     1      36.546  48.231  66.752  1.00  0.00     0.037 C 
HETATM    9  C   UNL     1      35.326  47.399  67.061  1.00  0.00     0.070 C 
HETATM   10  C   UNL     1      37.447  47.958  65.774  1.00  0.00     0.062 C 
HETATM   11  H   UNL     1      35.924  49.623  68.149  1.00  0.00     0.184 HD
ENDROOT
BRANCH   1  12
HETATM   12  C   UNL     1      39.964  48.348  65.693  1.00  0.00    -0.024 A 
HETATM   13  C   UNL     1      40.551  48.517  66.959  1.00  0.00     0.031 A 
HETATM   14  C   UNL     1      41.796  47.953  67.246  1.00  0.00     0.047 A 
HETATM   15  C   UNL     1      42.465  47.223  66.266  1.00  0.00     0.116 A 
HETATM   16 BR   UNL     1      42.525  48.193  68.979  1.00  0.00    -0.048 Br
HETATM   17  C   UNL     1      41.906  47.052  64.992  1.00  0.00     0.103 A 
HETATM   18  C   UNL     1      40.657  47.609  64.711  1.00  0.00     0.049 A 
BRANCH  15  19
HETATM   19  O   UNL     1      43.684  46.653  66.534  1.00  0.00    -0.357 OA
HETATM   20  H   UNL     1      43.982  46.266  65.688  1.00  0.00     0.218 HD
ENDBRANCH  15  19
BRANCH  17  21
HETATM   21  O   UNL     1      42.672  46.313  64.125  1.00  0.00    -0.349 OA
BRANCH  21  22
HETATM   22  C   UNL     1      42.127  45.079  63.662  1.00  0.00     0.171 C 
HETATM   23  C   UNL     1      42.210  44.077  64.799  1.00  0.00     0.034 C 
ENDBRANCH  21  22
ENDBRANCH  17  21
ENDBRANCH   1  12
BRANCH  10  24
HETATM   24  C   UNL     1      37.365  46.786  64.857  1.00  0.00     0.256 C 
HETATM   25  N   UNL     1      37.993  45.659  65.339  1.00  0.00    -0.323 N 
HETATM   26  H   UNL     1      38.469  45.738  66.228  1.00  0.00     0.169 HD
HETATM   27  O   UNL     1      36.802  46.927  63.779  1.00  0.00    -0.267 OA
BRANCH  25  28
HETATM   28  C   UNL     1      37.999  44.373  64.758  1.00  0.00     0.035 A 
HETATM   29  C   UNL     1      37.397  43.253  65.333  1.00  0.00     0.029 A 
HETATM   30  C   UNL     1      37.475  42.005  64.707  1.00  0.00     0.002 A 
HETATM   31  C   UNL     1      38.160  41.864  63.503  1.00  0.00     0.000 A 
HETATM   32  C   UNL     1      38.762  42.975  62.918  1.00  0.00     0.002 A 
HETATM   33  C   UNL     1      38.677  44.225  63.540  1.00  0.00     0.029 A 
ENDBRANCH  25  28
ENDBRANCH  10  24
TORSDOF 6
ENDMDL
