MODEL 1
REMARK VINA RESULT:      -7.2      0.000      0.000
REMARK  10 active torsions:
REMARK  status: ('A' for Active; 'I' for Inactive)
REMARK    1  A    between atoms: C_1  and  C_8 
REMARK    2  A    between atoms: C_1  and  S_9 
REMARK    3  A    between atoms: C_3  and  C_24 
REMARK    4  A    between atoms: C_7  and  C_8 
REMARK    5  A    between atoms: S_9  and  C_10 
REMARK    6  A    between atoms: C_10  and  S_11 
REMARK    7  A    between atoms: S_11  and  C_12 
REMARK    8  A    between atoms: C_12  and  C_13 
REMARK    9  A    between atoms: C_13  and  C_14 
REMARK   10  A    between atoms: C_18  and  C_19 
ROOT
HETATM    1  C           1      19.388  48.575  49.851  0.00  0.00     0.092 C 
HETATM    2  C           1      21.075  47.752  48.359  0.00  0.00     0.156 C 
HETATM    3  N           1      20.641  48.225  49.752  0.00  0.00    -0.350 N 
HETATM    4  N           1      18.857  49.048  50.899  0.00  0.00    -0.388 N 
HETATM    5  C           1      18.694  48.382  48.528  0.00  0.00     0.127 C 
HETATM    6  C           1      19.660  47.446  47.745  0.00  0.00     0.136 C 
HETATM    7  C           1      19.279  46.024  48.008  0.00  0.00     0.079 C 
HETATM    8  N           1      18.868  44.959  48.211  0.00  0.00    -0.196 NA
HETATM    9  C           1      18.332  49.664  47.668  0.00  0.00     0.248 C 
HETATM   10  N           1      17.607  49.283  46.348  0.00  0.00    -0.040 N 
HETATM   11  C           1      18.511  48.393  45.639  0.00  0.00     0.105 C 
HETATM   12  C           1      18.389  48.424  44.136  0.00  0.00     0.075 C 
HETATM   13  C           1      19.441  47.623  46.247  0.00  0.00     0.036 C 
HETATM   14  H           1      21.295  48.291  50.544  0.00  0.00     0.163 HD
HETATM   15  H           1      17.859  49.379  50.888  0.00  0.00     0.157 HD
HETATM   16  H           1      19.412  49.151  51.783  0.00  0.00     0.157 HD
HETATM   17  H           1      17.497  50.156  45.784  0.00  0.00     0.284 HD
HETATM   18  H           1      16.665  48.862  46.471  0.00  0.00     0.284 HD
ENDROOT
BRANCH   2  19
HETATM   19  S           1      22.112  46.270  48.580  0.00  0.00    -0.125 SA
BRANCH  19  20
HETATM   20  C           1      23.623  46.933  49.343  0.00  0.00     0.077 C 
BRANCH  20  21
HETATM   21  C           1      24.600  45.774  49.599  0.00  0.00     0.010 C 
BRANCH  21  22
HETATM   22  C           1      26.043  46.279  49.770  0.00  0.00    -0.004 C 
HETATM   23  C           1      27.034  45.123  49.957  0.00  0.00     0.005 C 
ENDBRANCH  21  22
ENDBRANCH  20  21
ENDBRANCH  19  20
ENDBRANCH   2  19
BRANCH   2  24
HETATM   24  S           1      21.824  49.159  47.470  0.00  0.00    -0.125 SA
BRANCH  24  25
HETATM   25  C           1      21.970  50.372  48.820  0.00  0.00     0.077 C 
BRANCH  25  26
HETATM   26  C           1      23.460  50.658  49.066  0.00  0.00     0.010 C 
BRANCH  26  27
HETATM   27  C           1      24.319  50.275  47.849  0.00  0.00    -0.004 C 
HETATM   28  C           1      25.746  49.884  48.256  0.00  0.00     0.005 C 
ENDBRANCH  26  27
ENDBRANCH  25  26
ENDBRANCH  24  25
ENDBRANCH   2  24
BRANCH   5  29
HETATM   29  C           1      17.336  47.790  48.541  0.00  0.00     0.105 C 
HETATM   30  N           1      16.625  47.327  49.330  0.00  0.00    -0.151 N 
ENDBRANCH   5  29
BRANCH   9  31
HETATM   31  C           1      17.545  50.704  48.454  0.00  0.00    -0.026 A 
HETATM   32  C           1      18.202  51.686  49.101  0.00  0.00     0.009 A 
HETATM   33  C           1      17.548  52.618  49.810  0.00  0.00     0.001 A 
HETATM   34  C           1      16.210  52.589  49.880  0.00  0.00     0.000 A 
HETATM   35  C           1      15.537  51.628  49.232  0.00  0.00     0.001 A 
HETATM   36  C           1      16.201  50.699  48.524  0.00  0.00     0.009 A 
ENDBRANCH   9  31
TORSDOF 10
ENDMDL
MODEL 2
REMARK VINA RESULT:      -6.7      1.594      2.510
REMARK  10 active torsions:
REMARK  status: ('A' for Active; 'I' for Inactive)
REMARK    1  A    between atoms: C_1  and  C_8 
REMARK    2  A    between atoms: C_1  and  S_9 
REMARK    3  A    between atoms: C_3  and  C_24 
REMARK    4  A    between atoms: C_7  and  C_8 
REMARK    5  A    between atoms: S_9  and  C_10 
REMARK    6  A    between atoms: C_10  and  S_11 
REMARK    7  A    between atoms: S_11  and  C_12 
REMARK    8  A    between atoms: C_12  and  C_13 
REMARK    9  A    between atoms: C_13  and  C_14 
REMARK   10  A    between atoms: C_18  and  C_19 
ROOT
HETATM    1  C           1      19.360  48.088  49.672  0.00  0.00     0.092 C 
HETATM    2  C           1      20.822  46.998  48.114  0.00  0.00     0.156 C 
HETATM    3  N           1      20.530  47.526  49.524  0.00  0.00    -0.350 N 
HETATM    4  N           1      18.959  48.636  50.740  0.00  0.00    -0.388 N 
HETATM    5  C           1      18.595  48.029  48.376  0.00  0.00     0.127 C 
HETATM    6  C           1      19.353  46.947  47.554  0.00  0.00     0.136 C 
HETATM    7  C           1      18.742  45.610  47.829  0.00  0.00     0.079 C 
HETATM    8  N           1      18.160  44.631  48.045  0.00  0.00    -0.196 NA
HETATM    9  C           1      18.429  49.362  47.533  0.00  0.00     0.248 C 
HETATM   10  N           1      17.599  49.123  46.241  0.00  0.00    -0.040 N 
HETATM   11  C           1      18.307  48.097  45.496  0.00  0.00     0.105 C 
HETATM   12  C           1      18.137  48.162  43.999  0.00  0.00     0.075 C 
HETATM   13  C           1      19.112  47.173  46.066  0.00  0.00     0.036 C 
HETATM   14  H           1      21.214  47.471  50.290  0.00  0.00     0.163 HD
HETATM   15  H           1      18.034  49.135  50.768  0.00  0.00     0.157 HD
HETATM   16  H           1      19.557  48.633  51.603  0.00  0.00     0.157 HD
HETATM   17  H           1      17.620  50.008  45.683  0.00  0.00     0.284 HD
HETATM   18  H           1      16.603  48.871  46.400  0.00  0.00     0.284 HD
ENDROOT
BRANCH   2  19
HETATM   19  S           1      21.594  45.357  48.292  0.00  0.00    -0.125 SA
BRANCH  19  20
HETATM   20  C           1      22.559  45.185  46.761  0.00  0.00     0.077 C 
BRANCH  20  21
HETATM   21  C           1      21.681  44.513  45.693  0.00  0.00     0.010 C 
BRANCH  21  22
HETATM   22  C           1      21.069  43.200  46.209  0.00  0.00    -0.004 C 
HETATM   23  C           1      19.811  42.809  45.424  0.00  0.00     0.005 C 
ENDBRANCH  21  22
ENDBRANCH  20  21
ENDBRANCH  19  20
ENDBRANCH   2  19
BRANCH   2  24
HETATM   24  S           1      21.770  48.262  47.200  0.00  0.00    -0.125 SA
BRANCH  24  25
HETATM   25  C           1      23.015  48.717  48.446  0.00  0.00     0.077 C 
BRANCH  25  26
HETATM   26  C           1      23.651  50.057  48.041  0.00  0.00     0.010 C 
BRANCH  26  27
HETATM   27  C           1      23.285  51.179  49.028  0.00  0.00    -0.004 C 
HETATM   28  C           1      22.065  50.812  49.884  0.00  0.00     0.005 C 
ENDBRANCH  26  27
ENDBRANCH  25  26
ENDBRANCH  24  25
ENDBRANCH   2  24
BRANCH   5  29
HETATM   29  C           1      17.155  47.681  48.440  0.00  0.00     0.105 C 
HETATM   30  N           1      16.416  47.294  49.243  0.00  0.00    -0.151 N 
ENDBRANCH   5  29
BRANCH   9  31
HETATM   31  C           1      17.863  50.515  48.350  0.00  0.00    -0.026 A 
HETATM   32  C           1      18.703  51.413  48.903  0.00  0.00     0.009 A 
HETATM   33  C           1      18.249  52.440  49.637  0.00  0.00     0.001 A 
HETATM   34  C           1      16.930  52.595  49.827  0.00  0.00     0.000 A 
HETATM   35  C           1      16.078  51.721  49.273  0.00  0.00     0.001 A 
HETATM   36  C           1      16.543  50.696  48.541  0.00  0.00     0.009 A 
ENDBRANCH   9  31
TORSDOF 10
ENDMDL
MODEL 3
REMARK VINA RESULT:      -6.5     23.452     26.069
REMARK  10 active torsions:
REMARK  status: ('A' for Active; 'I' for Inactive)
REMARK    1  A    between atoms: C_1  and  C_8 
REMARK    2  A    between atoms: C_1  and  S_9 
REMARK    3  A    between atoms: C_3  and  C_24 
REMARK    4  A    between atoms: C_7  and  C_8 
REMARK    5  A    between atoms: S_9  and  C_10 
REMARK    6  A    between atoms: C_10  and  S_11 
REMARK    7  A    between atoms: S_11  and  C_12 
REMARK    8  A    between atoms: C_12  and  C_13 
REMARK    9  A    between atoms: C_13  and  C_14 
REMARK   10  A    between atoms: C_18  and  C_19 
ROOT
HETATM    1  C           1      39.484  44.647  64.993  0.00  0.00     0.092 C 
HETATM    2  C           1      38.197  45.758  66.684  0.00  0.00     0.156 C 
HETATM    3  N           1      39.541  45.472  66.003  0.00  0.00    -0.350 N 
HETATM    4  N           1      40.492  44.241  64.342  0.00  0.00    -0.388 N 
HETATM    5  C           1      38.059  44.220  64.759  0.00  0.00     0.127 C 
HETATM    6  C           1      37.229  45.277  65.542  0.00  0.00     0.136 C 
HETATM    7  C           1      36.904  46.415  64.627  0.00  0.00     0.079 C 
HETATM    8  N           1      36.639  47.213  63.829  0.00  0.00    -0.196 NA
HETATM    9  C           1      37.632  42.750  65.173  0.00  0.00     0.248 C 
HETATM   10  N           1      36.138  42.473  64.845  0.00  0.00    -0.040 N 
HETATM   11  C           1      35.378  43.480  65.564  0.00  0.00     0.105 C 
HETATM   12  C           1      33.987  43.063  65.970  0.00  0.00     0.075 C 
HETATM   13  C           1      35.871  44.691  65.910  0.00  0.00     0.036 C 
HETATM   14  H           1      40.428  45.874  66.336  0.00  0.00     0.163 HD
HETATM   15  H           1      40.382  43.519  63.586  0.00  0.00     0.157 HD
HETATM   16  H           1      41.455  44.589  64.570  0.00  0.00     0.157 HD
HETATM   17  H           1      35.896  41.535  65.239  0.00  0.00     0.284 HD
HETATM   18  H           1      35.907  42.462  63.832  0.00  0.00     0.284 HD
ENDROOT
BRANCH   2  19
HETATM   19  S           1      38.115  47.550  67.005  0.00  0.00    -0.125 SA
BRANCH  19  20
HETATM   20  C           1      39.616  48.184  66.198  0.00  0.00     0.077 C 
BRANCH  20  21
HETATM   21  C           1      39.263  49.467  65.429  0.00  0.00     0.010 C 
BRANCH  21  22
HETATM   22  C           1      37.856  49.973  65.791  0.00  0.00    -0.004 C 
HETATM   23  C           1      37.877  51.438  66.247  0.00  0.00     0.005 C 
ENDBRANCH  21  22
ENDBRANCH  20  21
ENDBRANCH  19  20
ENDBRANCH   2  19
BRANCH   2  24
HETATM   24  S           1      38.022  44.652  68.125  0.00  0.00    -0.125 SA
BRANCH  24  25
HETATM   25  C           1      39.763  44.471  68.624  0.00  0.00     0.077 C 
BRANCH  25  26
HETATM   26  C           1      40.182  43.005  68.426  0.00  0.00     0.010 C 
BRANCH  26  27
HETATM   27  C           1      41.712  42.845  68.447  0.00  0.00    -0.004 C 
HETATM   28  C           1      42.286  42.659  67.036  0.00  0.00     0.005 C 
ENDBRANCH  26  27
ENDBRANCH  25  26
ENDBRANCH  24  25
ENDBRANCH   2  24
BRANCH   5  29
HETATM   29  C           1      37.579  44.154  63.358  0.00  0.00     0.105 C 
HETATM   30  N           1      37.985  44.446  62.313  0.00  0.00    -0.151 N 
ENDBRANCH   5  29
BRANCH   9  31
HETATM   31  C           1      38.537  41.678  64.581  0.00  0.00    -0.026 A 
HETATM   32  C           1      39.408  41.029  65.380  0.00  0.00     0.009 A 
HETATM   33  C           1      40.229  40.084  64.899  0.00  0.00     0.001 A 
HETATM   34  C           1      40.189  39.760  63.598  0.00  0.00     0.000 A 
HETATM   35  C           1      39.320  40.384  62.791  0.00  0.00     0.001 A 
HETATM   36  C           1      38.502  41.330  63.282  0.00  0.00     0.009 A 
ENDBRANCH   9  31
TORSDOF 10
ENDMDL
MODEL 4
REMARK VINA RESULT:      -6.5     23.504     25.782
REMARK  10 active torsions:
REMARK  status: ('A' for Active; 'I' for Inactive)
REMARK    1  A    between atoms: C_1  and  C_8 
REMARK    2  A    between atoms: C_1  and  S_9 
REMARK    3  A    between atoms: C_3  and  C_24 
REMARK    4  A    between atoms: C_7  and  C_8 
REMARK    5  A    between atoms: S_9  and  C_10 
REMARK    6  A    between atoms: C_10  and  S_11 
REMARK    7  A    between atoms: S_11  and  C_12 
REMARK    8  A    between atoms: C_12  and  C_13 
REMARK    9  A    between atoms: C_13  and  C_14 
REMARK   10  A    between atoms: C_18  and  C_19 
ROOT
HETATM    1  C           1      39.474  44.691  64.968  0.00  0.00     0.092 C 
HETATM    2  C           1      38.222  45.770  66.706  0.00  0.00     0.156 C 
HETATM    3  N           1      39.550  45.504  65.986  0.00  0.00    -0.350 N 
HETATM    4  N           1      40.467  44.302  64.285  0.00  0.00    -0.388 N 
HETATM    5  C           1      38.047  44.253  64.766  0.00  0.00     0.127 C 
HETATM    6  C           1      37.228  45.294  65.584  0.00  0.00     0.136 C 
HETATM    7  C           1      36.869  46.439  64.692  0.00  0.00     0.079 C 
HETATM    8  N           1      36.575  47.245  63.911  0.00  0.00    -0.196 NA
HETATM    9  C           1      37.644  42.775  65.173  0.00  0.00     0.248 C 
HETATM   10  N           1      36.144  42.488  64.881  0.00  0.00    -0.040 N 
HETATM   11  C           1      35.395  43.480  65.633  0.00  0.00     0.105 C 
HETATM   12  C           1      34.019  43.045  66.070  0.00  0.00     0.075 C 
HETATM   13  C           1      35.886  44.691  65.981  0.00  0.00     0.036 C 
HETATM   14  H           1      40.442  45.911  66.300  0.00  0.00     0.163 HD
HETATM   15  H           1      40.344  43.589  63.523  0.00  0.00     0.157 HD
HETATM   16  H           1      41.433  44.657  64.492  0.00  0.00     0.157 HD
HETATM   17  H           1      35.921  41.543  65.270  0.00  0.00     0.284 HD
HETATM   18  H           1      35.886  42.487  63.875  0.00  0.00     0.284 HD
ENDROOT
BRANCH   2  19
HETATM   19  S           1      38.133  47.557  67.051  0.00  0.00    -0.125 SA
BRANCH  19  20
HETATM   20  C           1      39.596  48.217  66.196  0.00  0.00     0.077 C 
BRANCH  20  21
HETATM   21  C           1      39.179  49.451  65.379  0.00  0.00     0.010 C 
BRANCH  21  22
HETATM   22  C           1      37.778  49.945  65.777  0.00  0.00    -0.004 C 
HETATM   23  C           1      37.816  51.367  66.352  0.00  0.00     0.005 C 
ENDBRANCH  21  22
ENDBRANCH  20  21
ENDBRANCH  19  20
ENDBRANCH   2  19
BRANCH   2  24
HETATM   24  S           1      38.096  44.645  68.137  0.00  0.00    -0.125 SA
BRANCH  24  25
HETATM   25  C           1      37.130  45.671  69.289  0.00  0.00     0.077 C 
BRANCH  25  26
HETATM   26  C           1      36.108  44.775  70.008  0.00  0.00     0.010 C 
BRANCH  26  27
HETATM   27  C           1      34.690  44.968  69.446  0.00  0.00    -0.004 C 
HETATM   28  C           1      33.793  43.756  69.729  0.00  0.00     0.005 C 
ENDBRANCH  26  27
ENDBRANCH  25  26
ENDBRANCH  24  25
ENDBRANCH   2  24
BRANCH   5  29
HETATM   29  C           1      37.531  44.200  63.378  0.00  0.00     0.105 C 
HETATM   30  N           1      37.914  44.488  62.323  0.00  0.00    -0.151 N 
ENDBRANCH   5  29
BRANCH   9  31
HETATM   31  C           1      38.543  41.719  64.545  0.00  0.00    -0.026 A 
HETATM   32  C           1      39.462  41.091  65.305  0.00  0.00     0.009 A 
HETATM   33  C           1      40.279  40.160  64.790  0.00  0.00     0.001 A 
HETATM   34  C           1      40.187  39.830  63.494  0.00  0.00     0.000 A 
HETATM   35  C           1      39.269  40.433  62.725  0.00  0.00     0.001 A 
HETATM   36  C           1      38.456  41.365  63.249  0.00  0.00     0.009 A 
ENDBRANCH   9  31
TORSDOF 10
ENDMDL
MODEL 5
REMARK VINA RESULT:      -6.4      3.470      7.573
REMARK  10 active torsions:
REMARK  status: ('A' for Active; 'I' for Inactive)
REMARK    1  A    between atoms: C_1  and  C_8 
REMARK    2  A    between atoms: C_1  and  S_9 
REMARK    3  A    between atoms: C_3  and  C_24 
REMARK    4  A    between atoms: C_7  and  C_8 
REMARK    5  A    between atoms: S_9  and  C_10 
REMARK    6  A    between atoms: C_10  and  S_11 
REMARK    7  A    between atoms: S_11  and  C_12 
REMARK    8  A    between atoms: C_12  and  C_13 
REMARK    9  A    between atoms: C_13  and  C_14 
REMARK   10  A    between atoms: C_18  and  C_19 
ROOT
HETATM    1  C           1      18.767  49.440  46.877  0.00  0.00     0.092 C 
HETATM    2  C           1      16.831  50.531  45.975  0.00  0.00     0.156 C 
HETATM    3  N           1      18.079  49.658  45.790  0.00  0.00    -0.350 N 
HETATM    4  N           1      19.857  48.796  46.918  0.00  0.00    -0.388 N 
HETATM    5  C           1      18.099  50.107  48.051  0.00  0.00     0.127 C 
HETATM    6  C           1      16.661  50.398  47.533  0.00  0.00     0.136 C 
HETATM    7  C           1      15.782  49.233  47.859  0.00  0.00     0.079 C 
HETATM    8  N           1      15.163  48.320  48.217  0.00  0.00    -0.196 NA
HETATM    9  C           1      18.757  51.420  48.650  0.00  0.00     0.248 C 
HETATM   10  N           1      17.951  51.963  49.863  0.00  0.00    -0.040 N 
HETATM   11  C           1      16.607  52.208  49.370  0.00  0.00     0.105 C 
HETATM   12  C           1      15.857  53.309  50.078  0.00  0.00     0.075 C 
HETATM   13  C           1      16.058  51.555  48.321  0.00  0.00     0.036 C 
HETATM   14  H           1      18.372  49.297  44.872  0.00  0.00     0.163 HD
HETATM   15  H           1      20.397  48.720  47.817  0.00  0.00     0.157 HD
HETATM   16  H           1      20.256  48.360  46.051  0.00  0.00     0.157 HD
HETATM   17  H           1      18.372  52.880  50.138  0.00  0.00     0.284 HD
HETATM   18  H           1      17.951  51.348  50.700  0.00  0.00     0.284 HD
ENDROOT
BRANCH   2  19
HETATM   19  S           1      15.479  49.765  45.024  0.00  0.00    -0.125 SA
BRANCH  19  20
HETATM   20  C           1      14.185  51.041  45.043  0.00  0.00     0.077 C 
BRANCH  20  21
HETATM   21  C           1      13.563  51.139  43.641  0.00  0.00     0.010 C 
BRANCH  21  22
HETATM   22  C           1      13.397  52.603  43.198  0.00  0.00    -0.004 C 
HETATM   23  C           1      13.656  52.777  41.696  0.00  0.00     0.005 C 
ENDBRANCH  21  22
ENDBRANCH  20  21
ENDBRANCH  19  20
ENDBRANCH   2  19
BRANCH   2  24
HETATM   24  S           1      17.257  52.257  45.563  0.00  0.00    -0.125 SA
BRANCH  24  25
HETATM   25  C           1      17.359  52.155  43.748  0.00  0.00     0.077 C 
BRANCH  25  26
HETATM   26  C           1      17.050  53.541  43.159  0.00  0.00     0.010 C 
BRANCH  26  27
HETATM   27  C           1      17.318  53.585  41.645  0.00  0.00    -0.004 C 
HETATM   28  C           1      18.426  52.607  41.232  0.00  0.00     0.005 C 
ENDBRANCH  26  27
ENDBRANCH  25  26
ENDBRANCH  24  25
ENDBRANCH   2  24
BRANCH   5  29
HETATM   29  C           1      18.023  49.352  49.323  0.00  0.00     0.105 C 
HETATM   30  N           1      18.375  48.320  49.714  0.00  0.00    -0.151 N 
ENDBRANCH   5  29
BRANCH   9  31
HETATM   31  C           1      20.229  51.242  48.998  0.00  0.00    -0.026 A 
HETATM   32  C           1      21.155  51.307  48.021  0.00  0.00     0.009 A 
HETATM   33  C           1      22.461  51.148  48.282  0.00  0.00     0.001 A 
HETATM   34  C           1      22.871  50.927  49.539  0.00  0.00     0.000 A 
HETATM   35  C           1      21.966  50.873  50.527  0.00  0.00     0.001 A 
HETATM   36  C           1      20.660  51.032  50.255  0.00  0.00     0.009 A 
ENDBRANCH   9  31
TORSDOF 10
ENDMDL
MODEL 6
REMARK VINA RESULT:      -6.4     10.749     13.785
REMARK  10 active torsions:
REMARK  status: ('A' for Active; 'I' for Inactive)
REMARK    1  A    between atoms: C_1  and  C_8 
REMARK    2  A    between atoms: C_1  and  S_9 
REMARK    3  A    between atoms: C_3  and  C_24 
REMARK    4  A    between atoms: C_7  and  C_8 
REMARK    5  A    between atoms: S_9  and  C_10 
REMARK    6  A    between atoms: C_10  and  S_11 
REMARK    7  A    between atoms: S_11  and  C_12 
REMARK    8  A    between atoms: C_12  and  C_13 
REMARK    9  A    between atoms: C_13  and  C_14 
REMARK   10  A    between atoms: C_18  and  C_19 
ROOT
HETATM    1  C           1      29.918  48.351  38.964  0.00  0.00     0.092 C 
HETATM    2  C           1      31.343  50.099  39.778  0.00  0.00     0.156 C 
HETATM    3  N           1      31.157  48.694  39.193  0.00  0.00    -0.350 N 
HETATM    4  N           1      29.556  47.213  38.540  0.00  0.00    -0.388 N 
HETATM    5  C           1      28.995  49.485  39.325  0.00  0.00     0.127 C 
HETATM    6  C           1      29.945  50.715  39.404  0.00  0.00     0.136 C 
HETATM    7  C           1      30.010  51.365  38.059  0.00  0.00     0.079 C 
HETATM    8  N           1      29.942  51.843  37.004  0.00  0.00    -0.196 NA
HETATM    9  C           1      28.124  49.361  40.645  0.00  0.00     0.248 C 
HETATM   10  N           1      27.220  50.608  40.853  0.00  0.00    -0.040 N 
HETATM   11  C           1      28.117  51.748  40.902  0.00  0.00     0.105 C 
HETATM   12  C           1      27.631  52.910  41.733  0.00  0.00     0.075 C 
HETATM   13  C           1      29.331  51.779  40.306  0.00  0.00     0.036 C 
HETATM   14  H           1      31.945  48.055  39.023  0.00  0.00     0.163 HD
HETATM   15  H           1      28.536  46.979  38.447  0.00  0.00     0.157 HD
HETATM   16  H           1      30.266  46.475  38.311  0.00  0.00     0.157 HD
HETATM   17  H           1      26.759  50.512  41.787  0.00  0.00     0.284 HD
HETATM   18  H           1      26.473  50.731  40.141  0.00  0.00     0.284 HD
ENDROOT
BRANCH   2  19
HETATM   19  S           1      32.741  50.876  38.905  0.00  0.00    -0.125 SA
BRANCH  19  20
HETATM   20  C           1      32.797  52.548  39.617  0.00  0.00     0.077 C 
BRANCH  20  21
HETATM   21  C           1      34.214  53.116  39.440  0.00  0.00     0.010 C 
BRANCH  21  22
HETATM   22  C           1      35.272  52.000  39.416  0.00  0.00    -0.004 C 
HETATM   23  C           1      36.650  52.529  38.998  0.00  0.00     0.005 C 
ENDBRANCH  21  22
ENDBRANCH  20  21
ENDBRANCH  19  20
ENDBRANCH   2  19
BRANCH   2  24
HETATM   24  S           1      31.474  49.966  41.594  0.00  0.00    -0.125 SA
BRANCH  24  25
HETATM   25  C           1      33.278  49.833  41.793  0.00  0.00     0.077 C 
BRANCH  25  26
HETATM   26  C           1      33.750  50.934  42.757  0.00  0.00     0.010 C 
BRANCH  26  27
HETATM   27  C           1      32.572  51.779  43.271  0.00  0.00    -0.004 C 
HETATM   28  C           1      32.611  51.947  44.796  0.00  0.00     0.005 C 
ENDBRANCH  26  27
ENDBRANCH  25  26
ENDBRANCH  24  25
ENDBRANCH   2  24
BRANCH   5  29
HETATM   29  C           1      27.875  49.784  38.403  0.00  0.00     0.105 C 
HETATM   30  N           1      27.256  49.207  37.612  0.00  0.00    -0.151 N 
ENDBRANCH   5  29
BRANCH   9  31
HETATM   31  C           1      27.316  48.073  40.705  0.00  0.00    -0.026 A 
HETATM   32  C           1      25.989  48.109  40.469  0.00  0.00     0.009 A 
HETATM   33  C           1      25.237  46.999  40.518  0.00  0.00     0.001 A 
HETATM   34  C           1      25.806  45.818  40.801  0.00  0.00     0.000 A 
HETATM   35  C           1      27.126  45.759  41.024  0.00  0.00     0.001 A 
HETATM   36  C           1      27.870  46.876  40.973  0.00  0.00     0.009 A 
ENDBRANCH   9  31
TORSDOF 10
ENDMDL
MODEL 7
REMARK VINA RESULT:      -6.3      3.219      6.653
REMARK  10 active torsions:
REMARK  status: ('A' for Active; 'I' for Inactive)
REMARK    1  A    between atoms: C_1  and  C_8 
REMARK    2  A    between atoms: C_1  and  S_9 
REMARK    3  A    between atoms: C_3  and  C_24 
REMARK    4  A    between atoms: C_7  and  C_8 
REMARK    5  A    between atoms: S_9  and  C_10 
REMARK    6  A    between atoms: C_10  and  S_11 
REMARK    7  A    between atoms: S_11  and  C_12 
REMARK    8  A    between atoms: C_12  and  C_13 
REMARK    9  A    between atoms: C_13  and  C_14 
REMARK   10  A    between atoms: C_18  and  C_19 
ROOT
HETATM    1  C           1      18.762  49.439  46.839  0.00  0.00     0.092 C 
HETATM    2  C           1      16.826  50.539  45.948  0.00  0.00     0.156 C 
HETATM    3  N           1      18.070  49.663  45.755  0.00  0.00    -0.350 N 
HETATM    4  N           1      19.849  48.791  46.873  0.00  0.00    -0.388 N 
HETATM    5  C           1      18.101  50.105  48.017  0.00  0.00     0.127 C 
HETATM    6  C           1      16.662  50.403  47.506  0.00  0.00     0.136 C 
HETATM    7  C           1      15.780  49.239  47.833  0.00  0.00     0.079 C 
HETATM    8  N           1      15.160  48.328  48.190  0.00  0.00    -0.196 NA
HETATM    9  C           1      18.766  51.414  48.617  0.00  0.00     0.248 C 
HETATM   10  N           1      17.967  51.956  49.835  0.00  0.00    -0.040 N 
HETATM   11  C           1      16.622  52.208  49.348  0.00  0.00     0.105 C 
HETATM   12  C           1      15.879  53.309  50.063  0.00  0.00     0.075 C 
HETATM   13  C           1      16.066  51.560  48.300  0.00  0.00     0.036 C 
HETATM   14  H           1      18.357  49.303  44.834  0.00  0.00     0.163 HD
HETATM   15  H           1      20.393  48.711  47.769  0.00  0.00     0.157 HD
HETATM   16  H           1      20.243  48.356  46.003  0.00  0.00     0.157 HD
HETATM   17  H           1      18.392  52.870  50.111  0.00  0.00     0.284 HD
HETATM   18  H           1      17.968  51.338  50.671  0.00  0.00     0.284 HD
ENDROOT
BRANCH   2  19
HETATM   19  S           1      15.467  49.781  45.000  0.00  0.00    -0.125 SA
BRANCH  19  20
HETATM   20  C           1      16.286  48.413  44.126  0.00  0.00     0.077 C 
BRANCH  20  21
HETATM   21  C           1      15.918  47.090  44.817  0.00  0.00     0.010 C 
BRANCH  21  22
HETATM   22  C           1      17.161  46.221  45.071  0.00  0.00    -0.004 C 
HETATM   23  C           1      17.418  46.017  46.570  0.00  0.00     0.005 C 
ENDBRANCH  21  22
ENDBRANCH  20  21
ENDBRANCH  19  20
ENDBRANCH   2  19
BRANCH   2  24
HETATM   24  S           1      17.256  52.265  45.539  0.00  0.00    -0.125 SA
BRANCH  24  25
HETATM   25  C           1      15.987  52.642  44.289  0.00  0.00     0.077 C 
BRANCH  25  26
HETATM   26  C           1      16.574  53.636  43.274  0.00  0.00     0.010 C 
BRANCH  26  27
HETATM   27  C           1      16.091  53.338  41.845  0.00  0.00    -0.004 C 
HETATM   28  C           1      17.179  53.627  40.802  0.00  0.00     0.005 C 
ENDBRANCH  26  27
ENDBRANCH  25  26
ENDBRANCH  24  25
ENDBRANCH   2  24
BRANCH   5  29
HETATM   29  C           1      18.027  49.347  49.287  0.00  0.00     0.105 C 
HETATM   30  N           1      18.368  48.308  49.671  0.00  0.00    -0.151 N 
ENDBRANCH   5  29
BRANCH   9  31
HETATM   31  C           1      20.239  51.229  48.959  0.00  0.00    -0.026 A 
HETATM   32  C           1      20.604  51.034  50.241  0.00  0.00     0.009 A 
HETATM   33  C           1      21.890  50.874  50.587  0.00  0.00     0.001 A 
HETATM   34  C           1      22.845  50.899  49.646  0.00  0.00     0.000 A 
HETATM   35  C           1      22.500  51.078  48.363  0.00  0.00     0.001 A 
HETATM   36  C           1      21.209  51.238  48.027  0.00  0.00     0.009 A 
ENDBRANCH   9  31
TORSDOF 10
ENDMDL
MODEL 8
REMARK VINA RESULT:      -6.3      7.052     11.213
REMARK  10 active torsions:
REMARK  status: ('A' for Active; 'I' for Inactive)
REMARK    1  A    between atoms: C_1  and  C_8 
REMARK    2  A    between atoms: C_1  and  S_9 
REMARK    3  A    between atoms: C_3  and  C_24 
REMARK    4  A    between atoms: C_7  and  C_8 
REMARK    5  A    between atoms: S_9  and  C_10 
REMARK    6  A    between atoms: C_10  and  S_11 
REMARK    7  A    between atoms: S_11  and  C_12 
REMARK    8  A    between atoms: C_12  and  C_13 
REMARK    9  A    between atoms: C_13  and  C_14 
REMARK   10  A    between atoms: C_18  and  C_19 
ROOT
HETATM    1  C           1      26.848  41.395  52.121  0.00  0.00     0.092 C 
HETATM    2  C           1      26.290  41.509  49.791  0.00  0.00     0.156 C 
HETATM    3  N           1      26.633  40.691  51.043  0.00  0.00    -0.350 N 
HETATM    4  N           1      27.201  40.908  53.236  0.00  0.00    -0.388 N 
HETATM    5  C           1      26.662  42.859  51.824  0.00  0.00     0.127 C 
HETATM    6  C           1      25.878  42.861  50.480  0.00  0.00     0.136 C 
HETATM    7  C           1      24.411  42.865  50.773  0.00  0.00     0.079 C 
HETATM    8  N           1      23.300  42.942  51.094  0.00  0.00    -0.196 NA
HETATM    9  C           1      27.949  43.781  51.726  0.00  0.00     0.248 C 
HETATM   10  N           1      27.573  45.260  51.433  0.00  0.00    -0.040 N 
HETATM   11  C           1      26.824  45.243  50.188  0.00  0.00     0.105 C 
HETATM   12  C           1      26.931  46.499  49.360  0.00  0.00     0.075 C 
HETATM   13  C           1      26.119  44.176  49.749  0.00  0.00     0.036 C 
HETATM   14  H           1      26.719  39.665  51.029  0.00  0.00     0.163 HD
HETATM   15  H           1      27.428  41.540  54.045  0.00  0.00     0.157 HD
HETATM   16  H           1      27.308  39.872  53.360  0.00  0.00     0.157 HD
HETATM   17  H           1      28.463  45.787  51.273  0.00  0.00     0.284 HD
HETATM   18  H           1      27.052  45.739  52.193  0.00  0.00     0.284 HD
ENDROOT
BRANCH   2  19
HETATM   19  S           1      24.912  40.668  48.947  0.00  0.00    -0.125 SA
BRANCH  19  20
HETATM   20  C           1      25.238  41.001  47.190  0.00  0.00     0.077 C 
BRANCH  20  21
HETATM   21  C           1      23.959  41.557  46.544  0.00  0.00     0.010 C 
BRANCH  21  22
HETATM   22  C           1      22.887  41.879  47.599  0.00  0.00    -0.004 C 
HETATM   23  C           1      22.482  43.359  47.567  0.00  0.00     0.005 C 
ENDBRANCH  21  22
ENDBRANCH  20  21
ENDBRANCH  19  20
ENDBRANCH   2  19
BRANCH   2  24
HETATM   24  S           1      27.816  41.768  48.825  0.00  0.00    -0.125 SA
BRANCH  24  25
HETATM   25  C           1      28.714  40.228  49.192  0.00  0.00     0.077 C 
BRANCH  25  26
HETATM   26  C           1      28.403  39.201  48.091  0.00  0.00     0.010 C 
BRANCH  26  27
HETATM   27  C           1      28.846  37.785  48.494  0.00  0.00    -0.004 C 
HETATM   28  C           1      29.654  37.789  49.799  0.00  0.00     0.005 C 
ENDBRANCH  26  27
ENDBRANCH  25  26
ENDBRANCH  24  25
ENDBRANCH   2  24
BRANCH   5  29
HETATM   29  C           1      25.934  43.679  52.821  0.00  0.00     0.105 C 
HETATM   30  N           1      25.497  43.525  53.883  0.00  0.00    -0.151 N 
ENDBRANCH   5  29
BRANCH   9  31
HETATM   31  C           1      28.854  43.669  52.944  0.00  0.00    -0.026 A 
HETATM   32  C           1      29.905  42.826  52.916  0.00  0.00     0.009 A 
HETATM   33  C           1      30.725  42.691  53.970  0.00  0.00     0.001 A 
HETATM   34  C           1      30.510  43.411  55.081  0.00  0.00     0.000 A 
HETATM   35  C           1      29.478  44.265  55.123  0.00  0.00     0.001 A 
HETATM   36  C           1      28.663  44.393  54.063  0.00  0.00     0.009 A 
ENDBRANCH   9  31
TORSDOF 10
ENDMDL
MODEL 9
REMARK VINA RESULT:      -6.3     23.855     26.369
REMARK  10 active torsions:
REMARK  status: ('A' for Active; 'I' for Inactive)
REMARK    1  A    between atoms: C_1  and  C_8 
REMARK    2  A    between atoms: C_1  and  S_9 
REMARK    3  A    between atoms: C_3  and  C_24 
REMARK    4  A    between atoms: C_7  and  C_8 
REMARK    5  A    between atoms: S_9  and  C_10 
REMARK    6  A    between atoms: C_10  and  S_11 
REMARK    7  A    between atoms: S_11  and  C_12 
REMARK    8  A    between atoms: C_12  and  C_13 
REMARK    9  A    between atoms: C_13  and  C_14 
REMARK   10  A    between atoms: C_18  and  C_19 
ROOT
HETATM    1  C           1      39.339  44.506  66.437  0.00  0.00     0.092 C 
HETATM    2  C           1      37.035  45.095  66.127  0.00  0.00     0.156 C 
HETATM    3  N           1      38.144  44.038  66.200  0.00  0.00    -0.350 N 
HETATM    4  N           1      40.390  43.801  66.474  0.00  0.00    -0.388 N 
HETATM    5  C           1      39.281  46.002  66.605  0.00  0.00     0.127 C 
HETATM    6  C           1      37.770  46.281  66.852  0.00  0.00     0.136 C 
HETATM    7  C           1      37.502  46.233  68.323  0.00  0.00     0.079 C 
HETATM    8  N           1      37.402  46.249  69.478  0.00  0.00    -0.196 NA
HETATM    9  C           1      39.838  46.917  65.436  0.00  0.00     0.248 C 
HETATM   10  N           1      39.717  48.427  65.784  0.00  0.00    -0.040 N 
HETATM   11  C           1      38.307  48.667  66.033  0.00  0.00     0.105 C 
HETATM   12  C           1      37.832  50.065  65.725  0.00  0.00     0.075 C 
HETATM   13  C           1      37.444  47.716  66.457  0.00  0.00     0.036 C 
HETATM   14  H           1      37.967  43.036  66.043  0.00  0.00     0.163 HD
HETATM   15  H           1      41.331  44.254  66.597  0.00  0.00     0.157 HD
HETATM   16  H           1      40.344  42.761  66.347  0.00  0.00     0.157 HD
HETATM   17  H           1      39.998  48.971  64.936  0.00  0.00     0.284 HD
HETATM   18  H           1      40.311  48.744  66.576  0.00  0.00     0.284 HD
ENDROOT
BRANCH   2  19
HETATM   19  S           1      35.601  44.451  67.048  0.00  0.00    -0.125 SA
BRANCH  19  20
HETATM   20  C           1      34.642  43.586  65.768  0.00  0.00     0.077 C 
BRANCH  20  21
HETATM   21  C           1      33.998  42.336  66.390  0.00  0.00     0.010 C 
BRANCH  21  22
HETATM   22  C           1      32.783  42.699  67.260  0.00  0.00    -0.004 C 
HETATM   23  C           1      32.922  42.159  68.689  0.00  0.00     0.005 C 
ENDBRANCH  21  22
ENDBRANCH  20  21
ENDBRANCH  19  20
ENDBRANCH   2  19
BRANCH   2  24
HETATM   24  S           1      36.762  45.538  64.378  0.00  0.00    -0.125 SA
BRANCH  24  25
HETATM   25  C           1      37.247  43.987  63.557  0.00  0.00     0.077 C 
BRANCH  25  26
HETATM   26  C           1      38.509  44.247  62.719  0.00  0.00     0.010 C 
BRANCH  26  27
HETATM   27  C           1      39.467  43.044  62.749  0.00  0.00    -0.004 C 
HETATM   28  C           1      38.718  41.722  62.965  0.00  0.00     0.005 C 
ENDBRANCH  26  27
ENDBRANCH  25  26
ENDBRANCH  24  25
ENDBRANCH   2  24
BRANCH   5  29
HETATM   29  C           1      40.080  46.605  67.697  0.00  0.00     0.105 C 
HETATM   30  N           1      40.769  46.226  68.548  0.00  0.00    -0.151 N 
ENDBRANCH   5  29
BRANCH   9  31
HETATM   31  C           1      41.258  46.555  65.023  0.00  0.00    -0.026 A 
HETATM   32  C           1      42.299  47.199  65.588  0.00  0.00     0.009 A 
HETATM   33  C           1      43.566  46.917  65.249  0.00  0.00     0.001 A 
HETATM   34  C           1      43.818  45.970  64.333  0.00  0.00     0.000 A 
HETATM   35  C           1      42.797  45.309  63.770  0.00  0.00     0.001 A 
HETATM   36  C           1      41.532  45.599  64.117  0.00  0.00     0.009 A 
ENDBRANCH   9  31
TORSDOF 10
ENDMDL
MODEL 10
REMARK VINA RESULT:      -6.0      9.797     13.309
REMARK  10 active torsions:
REMARK  status: ('A' for Active; 'I' for Inactive)
REMARK    1  A    between atoms: C_1  and  C_8 
REMARK    2  A    between atoms: C_1  and  S_9 
REMARK    3  A    between atoms: C_3  and  C_24 
REMARK    4  A    between atoms: C_7  and  C_8 
REMARK    5  A    between atoms: S_9  and  C_10 
REMARK    6  A    between atoms: C_10  and  S_11 
REMARK    7  A    between atoms: S_11  and  C_12 
REMARK    8  A    between atoms: C_12  and  C_13 
REMARK    9  A    between atoms: C_13  and  C_14 
REMARK   10  A    between atoms: C_18  and  C_19 
ROOT
HETATM    1  C           1      27.538  49.455  40.667  0.00  0.00     0.092 C 
HETATM    2  C           1      26.094  47.630  40.089  0.00  0.00     0.156 C 
HETATM    3  N           1      26.380  48.900  40.900  0.00  0.00    -0.350 N 
HETATM    4  N           1      27.981  50.472  41.278  0.00  0.00    -0.388 N 
HETATM    5  C           1      28.277  48.678  39.609  0.00  0.00     0.127 C 
HETATM    6  C           1      27.164  47.811  38.951  0.00  0.00     0.136 C 
HETATM    7  C           1      26.574  48.567  37.804  0.00  0.00     0.079 C 
HETATM    8  N           1      26.230  49.194  36.891  0.00  0.00    -0.196 NA
HETATM    9  C           1      29.504  47.776  40.051  0.00  0.00     0.248 C 
HETATM   10  N           1      30.158  47.063  38.835  0.00  0.00    -0.040 N 
HETATM   11  C           1      29.103  46.276  38.219  0.00  0.00     0.105 C 
HETATM   12  C           1      29.568  45.032  37.505  0.00  0.00     0.075 C 
HETATM   13  C           1      27.788  46.578  38.309  0.00  0.00     0.036 C 
HETATM   14  H           1      25.723  49.272  41.600  0.00  0.00     0.163 HD
HETATM   15  H           1      28.954  50.824  41.091  0.00  0.00     0.157 HD
HETATM   16  H           1      27.400  50.958  42.005  0.00  0.00     0.157 HD
HETATM   17  H           1      30.883  46.406  39.205  0.00  0.00     0.284 HD
HETATM   18  H           1      30.620  47.695  38.152  0.00  0.00     0.284 HD
ENDROOT
BRANCH   2  19
HETATM   19  S           1      24.373  47.733  39.498  0.00  0.00    -0.125 SA
BRANCH  19  20
HETATM   20  C           1      23.933  49.469  39.806  0.00  0.00     0.077 C 
BRANCH  20  21
HETATM   21  C           1      23.119  49.995  38.612  0.00  0.00     0.010 C 
BRANCH  21  22
HETATM   22  C           1      21.721  50.467  39.045  0.00  0.00    -0.004 C 
HETATM   23  C           1      21.789  51.436  40.234  0.00  0.00     0.005 C 
ENDBRANCH  21  22
ENDBRANCH  20  21
ENDBRANCH  19  20
ENDBRANCH   2  19
BRANCH   2  24
HETATM   24  S           1      26.534  46.177  41.102  0.00  0.00    -0.125 SA
BRANCH  24  25
HETATM   25  C           1      25.318  44.964  40.499  0.00  0.00     0.077 C 
BRANCH  25  26
HETATM   26  C           1      26.072  43.752  39.929  0.00  0.00     0.010 C 
BRANCH  26  27
HETATM   27  C           1      27.480  43.625  40.534  0.00  0.00    -0.004 C 
HETATM   28  C           1      28.132  42.279  40.190  0.00  0.00     0.005 C 
ENDBRANCH  26  27
ENDBRANCH  25  26
ENDBRANCH  24  25
ENDBRANCH   2  24
BRANCH   5  29
HETATM   29  C           1      28.990  49.444  38.561  0.00  0.00     0.105 C 
HETATM   30  N           1      29.137  50.560  38.283  0.00  0.00    -0.151 N 
ENDBRANCH   5  29
BRANCH   9  31
HETATM   31  C           1      30.538  48.539  40.868  0.00  0.00    -0.026 A 
HETATM   32  C           1      30.439  48.559  42.212  0.00  0.00     0.009 A 
HETATM   33  C           1      31.323  49.224  42.970  0.00  0.00     0.001 A 
HETATM   34  C           1      32.339  49.882  42.393  0.00  0.00     0.000 A 
HETATM   35  C           1      32.463  49.861  41.059  0.00  0.00     0.001 A 
HETATM   36  C           1      31.572  49.193  40.308  0.00  0.00     0.009 A 
ENDBRANCH   9  31
TORSDOF 10
ENDMDL
