MODEL 1
REMARK VINA RESULT:      -8.1      0.000      0.000
REMARK  5 active torsions:
REMARK  status: ('A' for Active; 'I' for Inactive)
REMARK    1  A    between atoms: C_7  and  C_8 
REMARK    2  A    between atoms: C_8  and  N_9 
REMARK    3  A    between atoms: N_9  and  C_12 
REMARK    4  A    between atoms: C_15  and  O_16 
REMARK    5  A    between atoms: O_16  and  C_17 
ROOT
HETATM    1  C   UNL     1      28.352  44.146  53.185  1.00  0.00     0.164 A 
HETATM    2  N   UNL     1      28.248  44.891  54.306  1.00  0.00    -0.236 NA
HETATM    3  C   UNL     1      29.177  44.670  55.270  1.00  0.00     0.142 A 
HETATM    4  C   UNL     1      30.197  43.734  55.165  1.00  0.00     0.062 A 
HETATM    5  C   UNL     1      31.139  43.564  56.225  1.00  0.00     0.101 C 
HETATM    6  N   UNL     1      31.901  43.430  57.089  1.00  0.00    -0.191 NA
HETATM    7  C   UNL     1      30.267  42.971  54.000  1.00  0.00     0.028 A 
HETATM    8  C   UNL     1      29.324  43.176  52.993  1.00  0.00     0.059 A 
ENDROOT
BRANCH   1   9
HETATM    9  O   UNL     1      27.432  44.306  52.171  1.00  0.00    -0.329 OA
BRANCH   9  10
HETATM   10  C   UNL     1      26.410  45.275  52.440  1.00  0.00     0.130 C 
HETATM   11  C   UNL     1      26.462  46.292  51.291  1.00  0.00     0.034 C 
HETATM   12  C   UNL     1      26.112  45.656  49.943  1.00  0.00     0.035 C 
HETATM   13  C   UNL     1      24.762  44.934  49.952  1.00  0.00     0.186 C 
HETATM   14  C   UNL     1      24.661  43.959  51.131  1.00  0.00     0.035 C 
HETATM   15  C   UNL     1      25.033  44.595  52.475  1.00  0.00     0.034 C 
BRANCH  13  16
HETATM   16  N   UNL     1      23.627  45.919  50.047  1.00  0.00    -0.067 N 
HETATM   17  H   UNL     1      23.842  46.682  50.700  1.00  0.00     0.278 HD
HETATM   18  H   UNL     1      22.811  45.443  50.457  1.00  0.00     0.278 HD
BRANCH  16  19
HETATM   19  C   UNL     1      23.157  46.510  48.754  1.00  0.00     0.280 C 
BRANCH  19  20
HETATM   20  C   UNL     1      22.857  47.955  48.914  1.00  0.00     0.034 A 
HETATM   21  C   UNL     1      23.724  49.029  49.030  1.00  0.00     0.046 A 
HETATM   22  C   UNL     1      25.212  49.002  49.015  1.00  0.00     0.071 C 
HETATM   23  N   UNL     1      23.101  50.252  49.176  1.00  0.00    -0.250 NA
HETATM   24  C   UNL     1      21.794  50.123  49.136  1.00  0.00     0.072 A 
HETATM   25  C   UNL     1      20.829  51.254  49.216  1.00  0.00     0.078 C 
HETATM   26  S   UNL     1      21.233  48.508  48.980  1.00  0.00    -0.076 SA
ENDBRANCH  19  20
ENDBRANCH  16  19
ENDBRANCH  13  16
ENDBRANCH   9  10
ENDBRANCH   1   9
TORSDOF 5
ENDMDL
MODEL 2
REMARK VINA RESULT:      -7.4      2.711      9.125
REMARK  5 active torsions:
REMARK  status: ('A' for Active; 'I' for Inactive)
REMARK    1  A    between atoms: C_7  and  C_8 
REMARK    2  A    between atoms: C_8  and  N_9 
REMARK    3  A    between atoms: N_9  and  C_12 
REMARK    4  A    between atoms: C_15  and  O_16 
REMARK    5  A    between atoms: O_16  and  C_17 
ROOT
HETATM    1  C   UNL     1      23.249  48.670  48.861  1.00  0.00     0.164 A 
HETATM    2  N   UNL     1      21.952  48.300  48.873  1.00  0.00    -0.236 NA
HETATM    3  C   UNL     1      21.036  49.295  48.757  1.00  0.00     0.142 A 
HETATM    4  C   UNL     1      21.362  50.640  48.638  1.00  0.00     0.062 A 
HETATM    5  C   UNL     1      20.336  51.627  48.517  1.00  0.00     0.101 C 
HETATM    6  N   UNL     1      19.501  52.425  48.419  1.00  0.00    -0.191 NA
HETATM    7  C   UNL     1      22.711  50.988  48.644  1.00  0.00     0.028 A 
HETATM    8  C   UNL     1      23.674  49.986  48.764  1.00  0.00     0.059 A 
ENDROOT
BRANCH   1   9
HETATM    9  O   UNL     1      24.233  47.714  48.993  1.00  0.00    -0.329 OA
BRANCH   9  10
HETATM   10  C   UNL     1      24.352  47.157  50.308  1.00  0.00     0.130 C 
HETATM   11  C   UNL     1      23.850  45.708  50.215  1.00  0.00     0.034 C 
HETATM   12  C   UNL     1      24.731  44.852  49.301  1.00  0.00     0.035 C 
HETATM   13  C   UNL     1      26.210  44.877  49.697  1.00  0.00     0.186 C 
HETATM   14  C   UNL     1      26.717  46.315  49.861  1.00  0.00     0.035 C 
HETATM   15  C   UNL     1      25.820  47.174  50.760  1.00  0.00     0.034 C 
BRANCH  13  16
HETATM   16  N   UNL     1      26.432  44.141  50.992  1.00  0.00    -0.067 N 
HETATM   17  H   UNL     1      25.822  43.318  51.068  1.00  0.00     0.278 HD
HETATM   18  H   UNL     1      26.148  44.752  51.771  1.00  0.00     0.278 HD
BRANCH  16  19
HETATM   19  C   UNL     1      27.841  43.725  51.281  1.00  0.00     0.280 C 
BRANCH  19  20
HETATM   20  C   UNL     1      28.221  44.083  52.670  1.00  0.00     0.034 A 
HETATM   21  C   UNL     1      29.252  43.596  53.457  1.00  0.00     0.046 A 
HETATM   22  C   UNL     1      30.267  42.571  53.094  1.00  0.00     0.071 C 
HETATM   23  N   UNL     1      29.314  44.147  54.721  1.00  0.00    -0.250 NA
HETATM   24  C   UNL     1      28.380  45.058  54.885  1.00  0.00     0.072 A 
HETATM   25  C   UNL     1      28.202  45.875  56.117  1.00  0.00     0.078 C 
HETATM   26  S   UNL     1      27.328  45.261  53.544  1.00  0.00    -0.076 SA
ENDBRANCH  19  20
ENDBRANCH  16  19
ENDBRANCH  13  16
ENDBRANCH   9  10
ENDBRANCH   1   9
TORSDOF 5
ENDMDL
MODEL 3
REMARK VINA RESULT:      -7.3      1.836      2.538
REMARK  5 active torsions:
REMARK  status: ('A' for Active; 'I' for Inactive)
REMARK    1  A    between atoms: C_7  and  C_8 
REMARK    2  A    between atoms: C_8  and  N_9 
REMARK    3  A    between atoms: N_9  and  C_12 
REMARK    4  A    between atoms: C_15  and  O_16 
REMARK    5  A    between atoms: O_16  and  C_17 
ROOT
HETATM    1  C   UNL     1      28.650  44.204  53.585  1.00  0.00     0.164 A 
HETATM    2  N   UNL     1      28.632  45.144  54.553  1.00  0.00    -0.236 NA
HETATM    3  C   UNL     1      29.513  44.982  55.573  1.00  0.00     0.142 A 
HETATM    4  C   UNL     1      30.402  43.920  55.669  1.00  0.00     0.062 A 
HETATM    5  C   UNL     1      31.302  43.825  56.774  1.00  0.00     0.101 C 
HETATM    6  N   UNL     1      32.030  43.750  57.674  1.00  0.00    -0.191 NA
HETATM    7  C   UNL     1      30.386  42.960  54.658  1.00  0.00     0.028 A 
HETATM    8  C   UNL     1      29.489  43.100  53.600  1.00  0.00     0.059 A 
ENDROOT
BRANCH   1   9
HETATM    9  O   UNL     1      27.771  44.295  52.527  1.00  0.00    -0.329 OA
BRANCH   9  10
HETATM   10  C   UNL     1      26.605  45.088  52.788  1.00  0.00     0.130 C 
HETATM   11  C   UNL     1      26.519  46.121  51.655  1.00  0.00     0.034 C 
HETATM   12  C   UNL     1      26.298  45.462  50.291  1.00  0.00     0.035 C 
HETATM   13  C   UNL     1      25.077  44.537  50.261  1.00  0.00     0.186 C 
HETATM   14  C   UNL     1      25.108  43.539  51.424  1.00  0.00     0.035 C 
HETATM   15  C   UNL     1      25.351  44.202  52.785  1.00  0.00     0.034 C 
BRANCH  13  16
HETATM   16  N   UNL     1      23.801  45.331  50.346  1.00  0.00    -0.067 N 
HETATM   17  H   UNL     1      23.706  45.800  51.256  1.00  0.00     0.278 HD
HETATM   18  H   UNL     1      23.003  44.680  50.301  1.00  0.00     0.278 HD
BRANCH  16  19
HETATM   19  C   UNL     1      23.577  46.339  49.261  1.00  0.00     0.280 C 
BRANCH  19  20
HETATM   20  C   UNL     1      22.222  46.189  48.675  1.00  0.00     0.034 A 
HETATM   21  C   UNL     1      21.238  47.142  48.471  1.00  0.00     0.046 A 
HETATM   22  C   UNL     1      21.298  48.594  48.791  1.00  0.00     0.071 C 
HETATM   23  N   UNL     1      20.078  46.653  47.904  1.00  0.00    -0.250 NA
HETATM   24  C   UNL     1      20.185  45.367  47.647  1.00  0.00     0.072 A 
HETATM   25  C   UNL     1      19.131  44.546  46.992  1.00  0.00     0.078 C 
HETATM   26  S   UNL     1      21.671  44.657  48.130  1.00  0.00    -0.076 SA
ENDBRANCH  19  20
ENDBRANCH  16  19
ENDBRANCH  13  16
ENDBRANCH   9  10
ENDBRANCH   1   9
TORSDOF 5
ENDMDL
MODEL 4
REMARK VINA RESULT:      -7.2      1.663      2.290
REMARK  5 active torsions:
REMARK  status: ('A' for Active; 'I' for Inactive)
REMARK    1  A    between atoms: C_7  and  C_8 
REMARK    2  A    between atoms: C_8  and  N_9 
REMARK    3  A    between atoms: N_9  and  C_12 
REMARK    4  A    between atoms: C_15  and  O_16 
REMARK    5  A    between atoms: O_16  and  C_17 
ROOT
HETATM    1  C   UNL     1      27.730  45.288  53.858  1.00  0.00     0.164 A 
HETATM    2  N   UNL     1      28.737  44.410  54.045  1.00  0.00    -0.236 NA
HETATM    3  C   UNL     1      29.466  44.556  55.181  1.00  0.00     0.142 A 
HETATM    4  C   UNL     1      29.236  45.543  56.129  1.00  0.00     0.062 A 
HETATM    5  C   UNL     1      30.048  45.626  57.302  1.00  0.00     0.101 C 
HETATM    6  N   UNL     1      30.709  45.691  58.252  1.00  0.00    -0.191 NA
HETATM    7  C   UNL     1      28.197  46.443  55.898  1.00  0.00     0.028 A 
HETATM    8  C   UNL     1      27.433  46.318  54.738  1.00  0.00     0.059 A 
ENDROOT
BRANCH   1   9
HETATM    9  O   UNL     1      26.959  45.211  52.718  1.00  0.00    -0.329 OA
BRANCH   9  10
HETATM   10  C   UNL     1      25.669  45.825  52.827  1.00  0.00     0.130 C 
HETATM   11  C   UNL     1      25.792  47.214  52.184  1.00  0.00     0.034 C 
HETATM   12  C   UNL     1      26.106  47.130  50.688  1.00  0.00     0.035 C 
HETATM   13  C   UNL     1      25.103  46.272  49.911  1.00  0.00     0.186 C 
HETATM   14  C   UNL     1      24.913  44.902  50.573  1.00  0.00     0.035 C 
HETATM   15  C   UNL     1      24.620  44.991  52.075  1.00  0.00     0.034 C 
BRANCH  13  16
HETATM   16  N   UNL     1      23.763  46.954  49.831  1.00  0.00    -0.067 N 
HETATM   17  H   UNL     1      23.376  47.139  50.764  1.00  0.00     0.278 HD
HETATM   18  H   UNL     1      23.091  46.310  49.389  1.00  0.00     0.278 HD
BRANCH  16  19
HETATM   19  C   UNL     1      23.714  48.219  49.030  1.00  0.00     0.280 C 
BRANCH  19  20
HETATM   20  C   UNL     1      22.365  48.834  49.100  1.00  0.00     0.034 A 
HETATM   21  C   UNL     1      21.126  48.277  48.830  1.00  0.00     0.046 A 
HETATM   22  C   UNL     1      20.830  46.885  48.397  1.00  0.00     0.071 C 
HETATM   23  N   UNL     1      20.064  49.144  48.989  1.00  0.00    -0.250 NA
HETATM   24  C   UNL     1      20.474  50.322  49.405  1.00  0.00     0.072 A 
HETATM   25  C   UNL     1      19.578  51.467  49.720  1.00  0.00     0.078 C 
HETATM   26  S   UNL     1      22.176  50.474  49.572  1.00  0.00    -0.076 SA
ENDBRANCH  19  20
ENDBRANCH  16  19
ENDBRANCH  13  16
ENDBRANCH   9  10
ENDBRANCH   1   9
TORSDOF 5
ENDMDL
MODEL 5
REMARK VINA RESULT:      -7.2      3.529      9.478
REMARK  5 active torsions:
REMARK  status: ('A' for Active; 'I' for Inactive)
REMARK    1  A    between atoms: C_7  and  C_8 
REMARK    2  A    between atoms: C_8  and  N_9 
REMARK    3  A    between atoms: N_9  and  C_12 
REMARK    4  A    between atoms: C_15  and  O_16 
REMARK    5  A    between atoms: O_16  and  C_17 
ROOT
HETATM    1  C   UNL     1      23.246  48.670  48.835  1.00  0.00     0.164 A 
HETATM    2  N   UNL     1      21.955  48.282  48.789  1.00  0.00    -0.236 NA
HETATM    3  C   UNL     1      21.027  49.270  48.717  1.00  0.00     0.142 A 
HETATM    4  C   UNL     1      21.334  50.624  48.698  1.00  0.00     0.062 A 
HETATM    5  C   UNL     1      20.297  51.603  48.618  1.00  0.00     0.101 C 
HETATM    6  N   UNL     1      19.452  52.394  48.553  1.00  0.00    -0.191 NA
HETATM    7  C   UNL     1      22.678  50.990  48.762  1.00  0.00     0.028 A 
HETATM    8  C   UNL     1      23.653  49.996  48.839  1.00  0.00     0.059 A 
ENDROOT
BRANCH   1   9
HETATM    9  O   UNL     1      24.242  47.721  48.926  1.00  0.00    -0.329 OA
BRANCH   9  10
HETATM   10  C   UNL     1      24.495  47.248  50.256  1.00  0.00     0.130 C 
HETATM   11  C   UNL     1      24.140  45.754  50.262  1.00  0.00     0.034 C 
HETATM   12  C   UNL     1      25.048  44.943  49.333  1.00  0.00     0.035 C 
HETATM   13  C   UNL     1      26.538  45.136  49.631  1.00  0.00     0.186 C 
HETATM   14  C   UNL     1      26.903  46.624  49.697  1.00  0.00     0.035 C 
HETATM   15  C   UNL     1      25.978  47.435  50.610  1.00  0.00     0.034 C 
BRANCH  13  16
HETATM   16  N   UNL     1      26.910  44.495  50.942  1.00  0.00    -0.067 N 
HETATM   17  H   UNL     1      26.789  45.144  51.729  1.00  0.00     0.278 HD
HETATM   18  H   UNL     1      27.918  44.280  50.930  1.00  0.00     0.278 HD
BRANCH  16  19
HETATM   19  C   UNL     1      26.215  43.209  51.268  1.00  0.00     0.280 C 
BRANCH  19  20
HETATM   20  C   UNL     1      27.086  42.047  50.960  1.00  0.00     0.034 A 
HETATM   21  C   UNL     1      27.892  41.300  51.803  1.00  0.00     0.046 A 
HETATM   22  C   UNL     1      28.086  41.477  53.268  1.00  0.00     0.071 C 
HETATM   23  N   UNL     1      28.584  40.282  51.178  1.00  0.00    -0.250 NA
HETATM   24  C   UNL     1      28.287  40.228  49.898  1.00  0.00     0.072 A 
HETATM   25  C   UNL     1      28.824  39.215  48.949  1.00  0.00     0.078 C 
HETATM   26  S   UNL     1      27.201  41.441  49.358  1.00  0.00    -0.076 SA
ENDBRANCH  19  20
ENDBRANCH  16  19
ENDBRANCH  13  16
ENDBRANCH   9  10
ENDBRANCH   1   9
TORSDOF 5
ENDMDL
MODEL 6
REMARK VINA RESULT:      -7.0      5.181      7.628
REMARK  5 active torsions:
REMARK  status: ('A' for Active; 'I' for Inactive)
REMARK    1  A    between atoms: C_7  and  C_8 
REMARK    2  A    between atoms: C_8  and  N_9 
REMARK    3  A    between atoms: N_9  and  C_12 
REMARK    4  A    between atoms: C_15  and  O_16 
REMARK    5  A    between atoms: O_16  and  C_17 
ROOT
HETATM    1  C   UNL     1      29.073  43.902  53.667  1.00  0.00     0.164 A 
HETATM    2  N   UNL     1      30.113  43.081  53.922  1.00  0.00    -0.236 NA
HETATM    3  C   UNL     1      30.753  43.262  55.105  1.00  0.00     0.142 A 
HETATM    4  C   UNL     1      30.403  44.230  56.036  1.00  0.00     0.062 A 
HETATM    5  C   UNL     1      31.126  44.353  57.262  1.00  0.00     0.101 C 
HETATM    6  N   UNL     1      31.716  44.450  58.256  1.00  0.00    -0.191 NA
HETATM    7  C   UNL     1      29.332  45.071  55.735  1.00  0.00     0.028 A 
HETATM    8  C   UNL     1      28.658  44.909  54.525  1.00  0.00     0.059 A 
ENDROOT
BRANCH   1   9
HETATM    9  O   UNL     1      28.388  43.787  52.476  1.00  0.00    -0.329 OA
BRANCH   9  10
HETATM   10  C   UNL     1      27.219  42.960  52.538  1.00  0.00     0.130 C 
HETATM   11  C   UNL     1      26.369  43.314  51.309  1.00  0.00     0.034 C 
HETATM   12  C   UNL     1      27.079  42.962  49.999  1.00  0.00     0.035 C 
HETATM   13  C   UNL     1      27.527  41.499  49.932  1.00  0.00     0.186 C 
HETATM   14  C   UNL     1      28.321  41.103  51.182  1.00  0.00     0.035 C 
HETATM   15  C   UNL     1      27.616  41.477  52.491  1.00  0.00     0.034 C 
BRANCH  13  16
HETATM   16  N   UNL     1      26.340  40.580  49.809  1.00  0.00    -0.067 N 
HETATM   17  H   UNL     1      25.837  40.727  48.926  1.00  0.00     0.278 HD
HETATM   18  H   UNL     1      25.659  40.821  50.543  1.00  0.00     0.278 HD
BRANCH  16  19
HETATM   19  C   UNL     1      26.620  39.117  49.965  1.00  0.00     0.280 C 
BRANCH  19  20
HETATM   20  C   UNL     1      27.382  38.599  48.802  1.00  0.00     0.034 A 
HETATM   21  C   UNL     1      28.656  38.059  48.750  1.00  0.00     0.046 A 
HETATM   22  C   UNL     1      29.602  37.852  49.880  1.00  0.00     0.071 C 
HETATM   23  N   UNL     1      29.066  37.682  47.488  1.00  0.00    -0.250 NA
HETATM   24  C   UNL     1      28.117  37.893  46.602  1.00  0.00     0.072 A 
HETATM   25  C   UNL     1      28.219  37.551  45.157  1.00  0.00     0.078 C 
HETATM   26  S   UNL     1      26.693  38.617  47.229  1.00  0.00    -0.076 SA
ENDBRANCH  19  20
ENDBRANCH  16  19
ENDBRANCH  13  16
ENDBRANCH   9  10
ENDBRANCH   1   9
TORSDOF 5
ENDMDL
MODEL 7
REMARK VINA RESULT:      -7.0      2.844      4.010
REMARK  5 active torsions:
REMARK  status: ('A' for Active; 'I' for Inactive)
REMARK    1  A    between atoms: C_7  and  C_8 
REMARK    2  A    between atoms: C_8  and  N_9 
REMARK    3  A    between atoms: N_9  and  C_12 
REMARK    4  A    between atoms: C_15  and  O_16 
REMARK    5  A    between atoms: O_16  and  C_17 
ROOT
HETATM    1  C   UNL     1      28.409  44.735  54.039  1.00  0.00     0.164 A 
HETATM    2  N   UNL     1      28.765  45.608  55.004  1.00  0.00    -0.236 NA
HETATM    3  C   UNL     1      29.742  45.207  55.856  1.00  0.00     0.142 A 
HETATM    4  C   UNL     1      30.369  43.971  55.790  1.00  0.00     0.062 A 
HETATM    5  C   UNL     1      31.394  43.625  56.724  1.00  0.00     0.101 C 
HETATM    6  N   UNL     1      32.224  43.349  57.485  1.00  0.00    -0.191 NA
HETATM    7  C   UNL     1      29.968  43.086  54.790  1.00  0.00     0.028 A 
HETATM    8  C   UNL     1      28.964  43.471  53.902  1.00  0.00     0.059 A 
ENDROOT
BRANCH   1   9
HETATM    9  O   UNL     1      27.411  45.069  53.149  1.00  0.00    -0.329 OA
BRANCH   9  10
HETATM   10  C   UNL     1      26.992  43.998  52.293  1.00  0.00     0.130 C 
HETATM   11  C   UNL     1      25.504  43.760  52.589  1.00  0.00     0.034 C 
HETATM   12  C   UNL     1      24.643  44.972  52.220  1.00  0.00     0.035 C 
HETATM   13  C   UNL     1      24.831  45.422  50.767  1.00  0.00     0.186 C 
HETATM   14  C   UNL     1      26.316  45.601  50.429  1.00  0.00     0.035 C 
HETATM   15  C   UNL     1      27.176  44.394  50.821  1.00  0.00     0.034 C 
BRANCH  13  16
HETATM   16  N   UNL     1      24.242  44.416  49.814  1.00  0.00    -0.067 N 
HETATM   17  H   UNL     1      23.347  44.047  50.158  1.00  0.00     0.278 HD
HETATM   18  H   UNL     1      24.866  43.598  49.770  1.00  0.00     0.278 HD
BRANCH  16  19
HETATM   19  C   UNL     1      24.059  44.876  48.400  1.00  0.00     0.280 C 
BRANCH  19  20
HETATM   20  C   UNL     1      22.926  44.166  47.758  1.00  0.00     0.034 A 
HETATM   21  C   UNL     1      21.573  44.466  47.773  1.00  0.00     0.046 A 
HETATM   22  C   UNL     1      20.903  45.609  48.449  1.00  0.00     0.071 C 
HETATM   23  N   UNL     1      20.784  43.578  47.070  1.00  0.00    -0.250 NA
HETATM   24  C   UNL     1      21.515  42.645  46.501  1.00  0.00     0.072 A 
HETATM   25  C   UNL     1      20.979  41.563  45.632  1.00  0.00     0.078 C 
HETATM   26  S   UNL     1      23.197  42.747  46.831  1.00  0.00    -0.076 SA
ENDBRANCH  19  20
ENDBRANCH  16  19
ENDBRANCH  13  16
ENDBRANCH   9  10
ENDBRANCH   1   9
TORSDOF 5
ENDMDL
MODEL 8
REMARK VINA RESULT:      -6.9     12.146     13.459
REMARK  5 active torsions:
REMARK  status: ('A' for Active; 'I' for Inactive)
REMARK    1  A    between atoms: C_7  and  C_8 
REMARK    2  A    between atoms: C_8  and  N_9 
REMARK    3  A    between atoms: N_9  and  C_12 
REMARK    4  A    between atoms: C_15  and  O_16 
REMARK    5  A    between atoms: O_16  and  C_17 
ROOT
HETATM    1  C   UNL     1      35.461  51.620  42.846  1.00  0.00     0.164 A 
HETATM    2  N   UNL     1      36.265  50.685  42.300  1.00  0.00    -0.236 NA
HETATM    3  C   UNL     1      37.510  50.571  42.828  1.00  0.00     0.142 A 
HETATM    4  C   UNL     1      37.985  51.356  43.870  1.00  0.00     0.062 A 
HETATM    5  C   UNL     1      39.310  51.171  44.373  1.00  0.00     0.101 C 
HETATM    6  N   UNL     1      40.385  51.018  44.778  1.00  0.00    -0.191 NA
HETATM    7  C   UNL     1      37.133  52.323  44.402  1.00  0.00     0.028 A 
HETATM    8  C   UNL     1      35.849  52.462  43.876  1.00  0.00     0.059 A 
ENDROOT
BRANCH   1   9
HETATM    9  O   UNL     1      34.189  51.802  42.347  1.00  0.00    -0.329 OA
BRANCH   9  10
HETATM   10  C   UNL     1      33.318  50.675  42.507  1.00  0.00     0.130 C 
HETATM   11  C   UNL     1      32.212  51.113  43.478  1.00  0.00     0.034 C 
HETATM   12  C   UNL     1      31.355  52.243  42.901  1.00  0.00     0.035 C 
HETATM   13  C   UNL     1      30.757  51.906  41.532  1.00  0.00     0.186 C 
HETATM   14  C   UNL     1      31.834  51.401  40.565  1.00  0.00     0.035 C 
HETATM   15  C   UNL     1      32.703  50.285  41.154  1.00  0.00     0.034 C 
BRANCH  13  16
HETATM   16  N   UNL     1      29.694  50.847  41.658  1.00  0.00    -0.067 N 
HETATM   17  H   UNL     1      29.746  50.363  42.563  1.00  0.00     0.278 HD
HETATM   18  H   UNL     1      29.874  50.114  40.957  1.00  0.00     0.278 HD
BRANCH  16  19
HETATM   19  C   UNL     1      28.283  51.299  41.434  1.00  0.00     0.280 C 
BRANCH  19  20
HETATM   20  C   UNL     1      27.816  50.913  40.080  1.00  0.00     0.034 A 
HETATM   21  C   UNL     1      28.021  51.542  38.863  1.00  0.00     0.046 A 
HETATM   22  C   UNL     1      28.788  52.790  38.602  1.00  0.00     0.071 C 
HETATM   23  N   UNL     1      27.429  50.911  37.787  1.00  0.00    -0.250 NA
HETATM   24  C   UNL     1      26.818  49.810  38.164  1.00  0.00     0.072 A 
HETATM   25  C   UNL     1      26.122  48.871  37.243  1.00  0.00     0.078 C 
HETATM   26  S   UNL     1      26.869  49.499  39.852  1.00  0.00    -0.076 SA
ENDBRANCH  19  20
ENDBRANCH  16  19
ENDBRANCH  13  16
ENDBRANCH   9  10
ENDBRANCH   1   9
TORSDOF 5
ENDMDL
MODEL 9
REMARK VINA RESULT:      -6.9      3.325      5.192
REMARK  5 active torsions:
REMARK  status: ('A' for Active; 'I' for Inactive)
REMARK    1  A    between atoms: C_7  and  C_8 
REMARK    2  A    between atoms: C_8  and  N_9 
REMARK    3  A    between atoms: N_9  and  C_12 
REMARK    4  A    between atoms: C_15  and  O_16 
REMARK    5  A    between atoms: O_16  and  C_17 
ROOT
HETATM    1  C   UNL     1      28.263  44.455  53.736  1.00  0.00     0.164 A 
HETATM    2  N   UNL     1      28.479  45.325  54.745  1.00  0.00    -0.236 NA
HETATM    3  C   UNL     1      29.467  45.007  55.619  1.00  0.00     0.142 A 
HETATM    4  C   UNL     1      30.240  43.857  55.532  1.00  0.00     0.062 A 
HETATM    5  C   UNL     1      31.266  43.597  56.491  1.00  0.00     0.101 C 
HETATM    6  N   UNL     1      32.097  43.390  57.273  1.00  0.00    -0.191 NA
HETATM    7  C   UNL     1      29.981  42.973  54.486  1.00  0.00     0.028 A 
HETATM    8  C   UNL     1      28.969  43.273  53.574  1.00  0.00     0.059 A 
ENDROOT
BRANCH   1   9
HETATM    9  O   UNL     1      27.262  44.705  52.821  1.00  0.00    -0.329 OA
BRANCH   9  10
HETATM   10  C   UNL     1      27.311  43.886  51.646  1.00  0.00     0.130 C 
HETATM   11  C   UNL     1      25.922  43.245  51.504  1.00  0.00     0.034 C 
HETATM   12  C   UNL     1      24.829  44.290  51.259  1.00  0.00     0.035 C 
HETATM   13  C   UNL     1      25.123  45.196  50.058  1.00  0.00     0.186 C 
HETATM   14  C   UNL     1      26.531  45.794  50.145  1.00  0.00     0.035 C 
HETATM   15  C   UNL     1      27.619  44.747  50.412  1.00  0.00     0.034 C 
BRANCH  13  16
HETATM   16  N   UNL     1      25.007  44.429  48.768  1.00  0.00    -0.067 N 
HETATM   17  H   UNL     1      25.789  43.774  48.645  1.00  0.00     0.278 HD
HETATM   18  H   UNL     1      25.093  45.091  47.983  1.00  0.00     0.278 HD
BRANCH  16  19
HETATM   19  C   UNL     1      23.722  43.691  48.552  1.00  0.00     0.280 C 
BRANCH  19  20
HETATM   20  C   UNL     1      23.953  42.451  47.770  1.00  0.00     0.034 A 
HETATM   21  C   UNL     1      23.636  42.165  46.452  1.00  0.00     0.046 A 
HETATM   22  C   UNL     1      22.973  43.058  45.463  1.00  0.00     0.071 C 
HETATM   23  N   UNL     1      23.988  40.895  46.043  1.00  0.00    -0.250 NA
HETATM   24  C   UNL     1      24.592  40.239  47.008  1.00  0.00     0.072 A 
HETATM   25  C   UNL     1      25.141  38.861  46.880  1.00  0.00     0.078 C 
HETATM   26  S   UNL     1      24.717  41.093  48.492  1.00  0.00    -0.076 SA
ENDBRANCH  19  20
ENDBRANCH  16  19
ENDBRANCH  13  16
ENDBRANCH   9  10
ENDBRANCH   1   9
TORSDOF 5
ENDMDL
MODEL 10
REMARK VINA RESULT:      -6.9      4.647     11.700
REMARK  5 active torsions:
REMARK  status: ('A' for Active; 'I' for Inactive)
REMARK    1  A    between atoms: C_7  and  C_8 
REMARK    2  A    between atoms: C_8  and  N_9 
REMARK    3  A    between atoms: N_9  and  C_12 
REMARK    4  A    between atoms: C_15  and  O_16 
REMARK    5  A    between atoms: O_16  and  C_17 
ROOT
HETATM    1  C   UNL     1      17.608  51.702  48.565  1.00  0.00     0.164 A 
HETATM    2  N   UNL     1      16.610  51.611  47.661  1.00  0.00    -0.236 NA
HETATM    3  C   UNL     1      15.485  52.323  47.925  1.00  0.00     0.142 A 
HETATM    4  C   UNL     1      15.314  53.112  49.055  1.00  0.00     0.062 A 
HETATM    5  C   UNL     1      14.098  53.835  49.258  1.00  0.00     0.101 C 
HETATM    6  N   UNL     1      13.110  54.419  49.419  1.00  0.00    -0.191 NA
HETATM    7  C   UNL     1      16.359  53.172  49.976  1.00  0.00     0.028 A 
HETATM    8  C   UNL     1      17.525  52.449  49.730  1.00  0.00     0.059 A 
ENDROOT
BRANCH   1   9
HETATM    9  O   UNL     1      18.773  50.991  48.370  1.00  0.00    -0.329 OA
BRANCH   9  10
HETATM   10  C   UNL     1      19.512  50.718  49.567  1.00  0.00     0.130 C 
HETATM   11  C   UNL     1      19.442  49.199  49.785  1.00  0.00     0.034 C 
HETATM   12  C   UNL     1      20.135  48.424  48.661  1.00  0.00     0.035 C 
HETATM   13  C   UNL     1      21.586  48.862  48.435  1.00  0.00     0.186 C 
HETATM   14  C   UNL     1      21.689  50.384  48.281  1.00  0.00     0.035 C 
HETATM   15  C   UNL     1      20.975  51.155  49.397  1.00  0.00     0.034 C 
BRANCH  13  16
HETATM   16  N   UNL     1      22.459  48.438  49.586  1.00  0.00    -0.067 N 
HETATM   17  H   UNL     1      21.991  47.743  50.181  1.00  0.00     0.278 HD
HETATM   18  H   UNL     1      22.613  49.250  50.200  1.00  0.00     0.278 HD
BRANCH  16  19
HETATM   19  C   UNL     1      23.820  47.924  49.227  1.00  0.00     0.280 C 
BRANCH  19  20
HETATM   20  C   UNL     1      24.017  46.548  49.745  1.00  0.00     0.034 A 
HETATM   21  C   UNL     1      24.776  46.108  50.816  1.00  0.00     0.046 A 
HETATM   22  C   UNL     1      25.601  46.929  51.744  1.00  0.00     0.071 C 
HETATM   23  N   UNL     1      24.743  44.743  51.017  1.00  0.00    -0.250 NA
HETATM   24  C   UNL     1      23.951  44.157  50.146  1.00  0.00     0.072 A 
HETATM   25  C   UNL     1      23.656  42.698  50.118  1.00  0.00     0.078 C 
HETATM   26  S   UNL     1      23.244  45.212  48.992  1.00  0.00    -0.076 SA
ENDBRANCH  19  20
ENDBRANCH  16  19
ENDBRANCH  13  16
ENDBRANCH   9  10
ENDBRANCH   1   9
TORSDOF 5
ENDMDL
