MODEL 1
REMARK VINA RESULT:     -10.4      0.000      0.000
REMARK  9 active torsions:
REMARK  status: ('A' for Active; 'I' for Inactive)
REMARK    1  A    between atoms: C_2  and  O_3 
REMARK    2  A    between atoms: O_3  and  C_4 
REMARK    3  A    between atoms: C_7  and  C_8 
REMARK    4  A    between atoms: C_9  and  C_10 
REMARK       I    between atoms: C_10  and  N_11 
REMARK    5  A    between atoms: N_11  and  C_12 
REMARK    6  A    between atoms: C_22  and  S_23 
REMARK    7  A    between atoms: S_23  and  C_24 
REMARK    8  A    between atoms: C_24  and  C_25 
REMARK       I    between atoms: C_25  and  N_26 
REMARK    9  A    between atoms: N_26  and  C_27 
ROOT
HETATM    1  C   UNL     1      25.216  43.390  51.386  1.00  0.00     0.104 C 
HETATM    2  C   UNL     1      25.831  44.605  52.083  1.00  0.00     0.046 C 
HETATM    3  C   UNL     1      25.708  45.844  51.550  1.00  0.00     0.019 C 
HETATM    4  C   UNL     1      26.457  47.068  52.013  1.00  0.00     0.069 C 
HETATM    5  N   UNL     1      24.844  46.039  50.487  1.00  0.00    -0.353 N 
HETATM    6  C   UNL     1      23.979  45.081  49.984  1.00  0.00     0.087 C 
HETATM    7  C   UNL     1      24.137  43.786  50.380  1.00  0.00     0.055 C 
HETATM    8  C   UNL     1      23.295  42.707  49.720  1.00  0.00     0.019 C 
HETATM    9  N   UNL     1      22.596  41.812  49.173  1.00  0.00    -0.096 N 
HETATM   10  H   UNL     1      24.889  46.938  50.012  1.00  0.00     0.166 HD
ENDROOT
BRANCH   1  11
HETATM   11  C   UNL     1      26.278  42.530  50.696  1.00  0.00    -0.044 A 
HETATM   12  C   UNL     1      27.025  41.602  51.433  1.00  0.00     0.011 A 
HETATM   13  C   UNL     1      27.969  40.788  50.798  1.00  0.00     0.037 A 
HETATM   14  C   UNL     1      28.182  40.880  49.421  1.00  0.00     0.068 A 
HETATM   15  C   UNL     1      27.454  41.810  48.682  1.00  0.00     0.037 A 
HETATM   16  C   UNL     1      26.509  42.625  49.312  1.00  0.00     0.011 A 
BRANCH  14  17
HETATM   17  O   UNL     1      29.122  40.018  48.924  1.00  0.00    -0.352 OA
BRANCH  17  18
HETATM   18  C   UNL     1      28.831  38.625  49.022  1.00  0.00     0.171 C 
HETATM   19  C   UNL     1      29.978  37.956  49.758  1.00  0.00     0.034 C 
ENDBRANCH  17  18
ENDBRANCH  14  17
ENDBRANCH   1  11
BRANCH   6  20
HETATM   20  S   UNL     1      22.664  45.461  48.867  1.00  0.00    -0.102 SA
BRANCH  20  21
HETATM   21  C   UNL     1      22.822  47.228  48.543  1.00  0.00     0.184 C 
BRANCH  21  22
HETATM   22  C   UNL     1      21.449  47.876  48.541  1.00  0.00     0.231 C 
HETATM   23  N   UNL     1      21.422  49.049  49.275  1.00  0.00    -0.327 N 
HETATM   24  H   UNL     1      22.229  49.215  49.868  1.00  0.00     0.169 HD
HETATM   25  O   UNL     1      20.516  47.345  47.943  1.00  0.00    -0.272 OA
BRANCH  23  26
HETATM   26  C   UNL     1      20.366  49.966  49.411  1.00  0.00     0.034 A 
HETATM   27  C   UNL     1      19.225  49.732  50.175  1.00  0.00     0.030 A 
HETATM   28  C   UNL     1      18.202  50.688  50.223  1.00  0.00     0.009 A 
HETATM   29  C   UNL     1      18.305  51.885  49.508  1.00  0.00    -0.062 A 
HETATM   30  C   UNL     1      17.218  52.916  49.587  1.00  0.00     0.048 C 
HETATM   31  C   UNL     1      19.459  52.127  48.760  1.00  0.00     0.009 A 
HETATM   32  C   UNL     1      20.476  51.171  48.704  1.00  0.00     0.030 A 
ENDBRANCH  23  26
ENDBRANCH  21  22
ENDBRANCH  20  21
ENDBRANCH   6  20
BRANCH   2  33
HETATM   33  C   UNL     1      26.521  44.350  53.385  1.00  0.00     0.255 C 
HETATM   34  N   UNL     1      27.881  44.588  53.310  1.00  0.00    -0.323 N 
HETATM   35  H   UNL     1      28.238  44.916  52.421  1.00  0.00     0.169 HD
HETATM   36  O   UNL     1      25.880  44.047  54.381  1.00  0.00    -0.268 OA
BRANCH  34  37
HETATM   37  C   UNL     1      28.856  44.378  54.306  1.00  0.00     0.035 A 
HETATM   38  C   UNL     1      29.668  43.247  54.380  1.00  0.00     0.029 A 
HETATM   39  C   UNL     1      30.625  43.131  55.394  1.00  0.00     0.002 A 
HETATM   40  C   UNL     1      30.781  44.146  56.336  1.00  0.00     0.000 A 
HETATM   41  C   UNL     1      29.975  45.278  56.270  1.00  0.00     0.002 A 
HETATM   42  C   UNL     1      29.013  45.390  55.263  1.00  0.00     0.029 A 
ENDBRANCH  34  37
ENDBRANCH   2  33
TORSDOF 9
ENDMDL
MODEL 2
REMARK VINA RESULT:     -10.1      1.043      1.363
REMARK  9 active torsions:
REMARK  status: ('A' for Active; 'I' for Inactive)
REMARK    1  A    between atoms: C_2  and  O_3 
REMARK    2  A    between atoms: O_3  and  C_4 
REMARK    3  A    between atoms: C_7  and  C_8 
REMARK    4  A    between atoms: C_9  and  C_10 
REMARK       I    between atoms: C_10  and  N_11 
REMARK    5  A    between atoms: N_11  and  C_12 
REMARK    6  A    between atoms: C_22  and  S_23 
REMARK    7  A    between atoms: S_23  and  C_24 
REMARK    8  A    between atoms: C_24  and  C_25 
REMARK       I    between atoms: C_25  and  N_26 
REMARK    9  A    between atoms: N_26  and  C_27 
ROOT
HETATM    1  C   UNL     1      25.049  43.100  50.790  1.00  0.00     0.104 C 
HETATM    2  C   UNL     1      25.591  44.402  51.383  1.00  0.00     0.046 C 
HETATM    3  C   UNL     1      25.470  45.571  50.711  1.00  0.00     0.019 C 
HETATM    4  C   UNL     1      26.161  46.861  51.079  1.00  0.00     0.069 C 
HETATM    5  N   UNL     1      24.666  45.624  49.586  1.00  0.00    -0.353 N 
HETATM    6  C   UNL     1      23.856  44.591  49.144  1.00  0.00     0.087 C 
HETATM    7  C   UNL     1      24.021  43.352  49.688  1.00  0.00     0.055 C 
HETATM    8  C   UNL     1      23.246  42.183  49.104  1.00  0.00     0.019 C 
HETATM    9  N   UNL     1      22.602  41.213  48.620  1.00  0.00    -0.096 N 
HETATM   10  H   UNL     1      24.717  46.468  49.019  1.00  0.00     0.166 HD
ENDROOT
BRANCH   1  11
HETATM   11  C   UNL     1      26.169  42.203  50.259  1.00  0.00    -0.044 A 
HETATM   12  C   UNL     1      26.769  41.251  51.094  1.00  0.00     0.011 A 
HETATM   13  C   UNL     1      27.767  40.405  50.600  1.00  0.00     0.037 A 
HETATM   14  C   UNL     1      28.182  40.488  49.270  1.00  0.00     0.068 A 
HETATM   15  C   UNL     1      27.602  41.441  48.436  1.00  0.00     0.037 A 
HETATM   16  C   UNL     1      26.604  42.289  48.925  1.00  0.00     0.011 A 
BRANCH  14  17
HETATM   17  O   UNL     1      29.154  39.593  48.913  1.00  0.00    -0.352 OA
BRANCH  17  18
HETATM   18  C   UNL     1      28.998  38.254  49.377  1.00  0.00     0.171 C 
HETATM   19  C   UNL     1      30.271  37.855  50.102  1.00  0.00     0.034 C 
ENDBRANCH  17  18
ENDBRANCH  14  17
ENDBRANCH   1  11
BRANCH   6  20
HETATM   20  S   UNL     1      22.600  44.808  47.920  1.00  0.00    -0.102 SA
BRANCH  20  21
HETATM   21  C   UNL     1      21.056  44.905  48.848  1.00  0.00     0.184 C 
BRANCH  21  22
HETATM   22  C   UNL     1      20.283  46.144  48.431  1.00  0.00     0.231 C 
HETATM   23  N   UNL     1      20.732  47.283  49.077  1.00  0.00    -0.327 N 
HETATM   24  H   UNL     1      21.350  47.127  49.866  1.00  0.00     0.169 HD
HETATM   25  O   UNL     1      19.367  46.056  47.617  1.00  0.00    -0.272 OA
BRANCH  23  26
HETATM   26  C   UNL     1      20.332  48.615  48.871  1.00  0.00     0.034 A 
HETATM   27  C   UNL     1      21.039  49.529  48.093  1.00  0.00     0.030 A 
HETATM   28  C   UNL     1      20.587  50.849  47.973  1.00  0.00     0.009 A 
HETATM   29  C   UNL     1      19.427  51.272  48.630  1.00  0.00    -0.062 A 
HETATM   30  C   UNL     1      18.933  52.680  48.474  1.00  0.00     0.048 C 
HETATM   31  C   UNL     1      18.708  50.349  49.393  1.00  0.00     0.009 A 
HETATM   32  C   UNL     1      19.163  49.034  49.519  1.00  0.00     0.030 A 
ENDBRANCH  23  26
ENDBRANCH  21  22
ENDBRANCH  20  21
ENDBRANCH   6  20
BRANCH   2  33
HETATM   33  C   UNL     1      26.209  44.310  52.742  1.00  0.00     0.255 C 
HETATM   34  N   UNL     1      27.588  44.411  52.695  1.00  0.00    -0.323 N 
HETATM   35  H   UNL     1      28.004  44.552  51.784  1.00  0.00     0.169 HD
HETATM   36  O   UNL     1      25.509  44.237  53.741  1.00  0.00    -0.268 OA
BRANCH  34  37
HETATM   37  C   UNL     1      28.503  44.288  53.760  1.00  0.00     0.035 A 
HETATM   38  C   UNL     1      29.341  43.189  53.948  1.00  0.00     0.029 A 
HETATM   39  C   UNL     1      30.235  43.159  55.023  1.00  0.00     0.002 A 
HETATM   40  C   UNL     1      30.304  44.229  55.913  1.00  0.00     0.000 A 
HETATM   41  C   UNL     1      29.471  45.330  55.734  1.00  0.00     0.002 A 
HETATM   42  C   UNL     1      28.572  45.356  54.666  1.00  0.00     0.029 A 
ENDBRANCH  34  37
ENDBRANCH   2  33
TORSDOF 9
ENDMDL
MODEL 3
REMARK VINA RESULT:      -9.2      6.826     12.668
REMARK  9 active torsions:
REMARK  status: ('A' for Active; 'I' for Inactive)
REMARK    1  A    between atoms: C_2  and  O_3 
REMARK    2  A    between atoms: O_3  and  C_4 
REMARK    3  A    between atoms: C_7  and  C_8 
REMARK    4  A    between atoms: C_9  and  C_10 
REMARK       I    between atoms: C_10  and  N_11 
REMARK    5  A    between atoms: N_11  and  C_12 
REMARK    6  A    between atoms: C_22  and  S_23 
REMARK    7  A    between atoms: S_23  and  C_24 
REMARK    8  A    between atoms: C_24  and  C_25 
REMARK       I    between atoms: C_25  and  N_26 
REMARK    9  A    between atoms: N_26  and  C_27 
ROOT
HETATM    1  C   UNL     1      16.308  50.615  48.839  1.00  0.00     0.104 C 
HETATM    2  C   UNL     1      15.696  51.913  48.307  1.00  0.00     0.046 C 
HETATM    3  C   UNL     1      15.283  52.006  47.021  1.00  0.00     0.019 C 
HETATM    4  C   UNL     1      14.886  53.284  46.326  1.00  0.00     0.069 C 
HETATM    5  N   UNL     1      15.216  50.860  46.248  1.00  0.00    -0.353 N 
HETATM    6  C   UNL     1      15.425  49.574  46.720  1.00  0.00     0.087 C 
HETATM    7  C   UNL     1      15.967  49.414  47.960  1.00  0.00     0.055 C 
HETATM    8  C   UNL     1      16.340  48.015  48.424  1.00  0.00     0.019 C 
HETATM    9  N   UNL     1      16.648  46.856  48.810  1.00  0.00    -0.096 N 
HETATM   10  H   UNL     1      15.053  50.983  45.251  1.00  0.00     0.166 HD
ENDROOT
BRANCH   1  11
HETATM   11  C   UNL     1      17.826  50.724  49.003  1.00  0.00    -0.044 A 
HETATM   12  C   UNL     1      18.611  51.269  47.977  1.00  0.00     0.011 A 
HETATM   13  C   UNL     1      19.994  51.403  48.141  1.00  0.00     0.037 A 
HETATM   14  C   UNL     1      20.617  51.003  49.324  1.00  0.00     0.068 A 
HETATM   15  C   UNL     1      19.847  50.448  50.343  1.00  0.00     0.037 A 
HETATM   16  C   UNL     1      18.464  50.311  50.185  1.00  0.00     0.011 A 
BRANCH  14  17
HETATM   17  O   UNL     1      21.970  51.203  49.359  1.00  0.00    -0.352 OA
BRANCH  17  18
HETATM   18  C   UNL     1      22.795  50.047  49.224  1.00  0.00     0.171 C 
HETATM   19  C   UNL     1      23.546  50.156  47.909  1.00  0.00     0.034 C 
ENDBRANCH  17  18
ENDBRANCH  14  17
ENDBRANCH   1  11
BRANCH   6  20
HETATM   20  S   UNL     1      15.000  48.129  45.797  1.00  0.00    -0.102 SA
BRANCH  20  21
HETATM   21  C   UNL     1      16.369  47.891  44.647  1.00  0.00     0.184 C 
BRANCH  21  22
HETATM   22  C   UNL     1      17.428  47.008  45.283  1.00  0.00     0.231 C 
HETATM   23  N   UNL     1      18.573  47.716  45.608  1.00  0.00    -0.327 N 
HETATM   24  H   UNL     1      18.642  48.647  45.211  1.00  0.00     0.169 HD
HETATM   25  O   UNL     1      17.219  45.809  45.442  1.00  0.00    -0.272 OA
BRANCH  23  26
HETATM   26  C   UNL     1      19.710  47.262  46.299  1.00  0.00     0.034 A 
HETATM   27  C   UNL     1      20.640  46.372  45.766  1.00  0.00     0.030 A 
HETATM   28  C   UNL     1      21.726  45.942  46.540  1.00  0.00     0.009 A 
HETATM   29  C   UNL     1      21.891  46.391  47.855  1.00  0.00    -0.062 A 
HETATM   30  C   UNL     1      23.071  45.948  48.668  1.00  0.00     0.048 C 
HETATM   31  C   UNL     1      20.969  47.299  48.379  1.00  0.00     0.009 A 
HETATM   32  C   UNL     1      19.882  47.722  47.610  1.00  0.00     0.030 A 
ENDBRANCH  23  26
ENDBRANCH  21  22
ENDBRANCH  20  21
ENDBRANCH   6  20
BRANCH   2  33
HETATM   33  C   UNL     1      15.546  53.032  49.288  1.00  0.00     0.255 C 
HETATM   34  N   UNL     1      14.261  53.117  49.790  1.00  0.00    -0.323 N 
HETATM   35  H   UNL     1      13.598  52.425  49.465  1.00  0.00     0.169 HD
HETATM   36  O   UNL     1      16.513  53.702  49.620  1.00  0.00    -0.268 OA
BRANCH  34  37
HETATM   37  C   UNL     1      13.733  54.088  50.665  1.00  0.00     0.035 A 
HETATM   38  C   UNL     1      14.379  54.535  51.818  1.00  0.00     0.029 A 
HETATM   39  C   UNL     1      13.790  55.519  52.619  1.00  0.00     0.002 A 
HETATM   40  C   UNL     1      12.557  56.068  52.270  1.00  0.00     0.000 A 
HETATM   41  C   UNL     1      11.906  55.628  51.122  1.00  0.00     0.002 A 
HETATM   42  C   UNL     1      12.489  54.639  50.327  1.00  0.00     0.029 A 
ENDBRANCH  34  37
ENDBRANCH   2  33
TORSDOF 9
ENDMDL
MODEL 4
REMARK VINA RESULT:      -9.1      2.279      2.707
REMARK  9 active torsions:
REMARK  status: ('A' for Active; 'I' for Inactive)
REMARK    1  A    between atoms: C_2  and  O_3 
REMARK    2  A    between atoms: O_3  and  C_4 
REMARK    3  A    between atoms: C_7  and  C_8 
REMARK    4  A    between atoms: C_9  and  C_10 
REMARK       I    between atoms: C_10  and  N_11 
REMARK    5  A    between atoms: N_11  and  C_12 
REMARK    6  A    between atoms: C_22  and  S_23 
REMARK    7  A    between atoms: S_23  and  C_24 
REMARK    8  A    between atoms: C_24  and  C_25 
REMARK       I    between atoms: C_25  and  N_26 
REMARK    9  A    between atoms: N_26  and  C_27 
ROOT
HETATM    1  C   UNL     1      25.026  43.044  50.799  1.00  0.00     0.104 C 
HETATM    2  C   UNL     1      25.591  44.338  51.389  1.00  0.00     0.046 C 
HETATM    3  C   UNL     1      25.467  45.513  50.727  1.00  0.00     0.019 C 
HETATM    4  C   UNL     1      26.175  46.794  51.088  1.00  0.00     0.069 C 
HETATM    5  N   UNL     1      24.640  45.579  49.619  1.00  0.00    -0.353 N 
HETATM    6  C   UNL     1      23.813  44.555  49.186  1.00  0.00     0.087 C 
HETATM    7  C   UNL     1      23.979  43.312  49.720  1.00  0.00     0.055 C 
HETATM    8  C   UNL     1      23.182  42.152  49.144  1.00  0.00     0.019 C 
HETATM    9  N   UNL     1      22.521  41.191  48.668  1.00  0.00    -0.096 N 
HETATM   10  H   UNL     1      24.688  46.425  49.056  1.00  0.00     0.166 HD
ENDROOT
BRANCH   1  11
HETATM   11  C   UNL     1      26.128  42.141  50.241  1.00  0.00    -0.044 A 
HETATM   12  C   UNL     1      26.564  42.292  48.918  1.00  0.00     0.011 A 
HETATM   13  C   UNL     1      27.597  41.493  48.417  1.00  0.00     0.037 A 
HETATM   14  C   UNL     1      28.216  40.535  49.223  1.00  0.00     0.068 A 
HETATM   15  C   UNL     1      27.779  40.368  50.536  1.00  0.00     0.037 A 
HETATM   16  C   UNL     1      26.747  41.164  51.041  1.00  0.00     0.011 A 
BRANCH  14  17
HETATM   17  O   UNL     1      29.220  39.833  48.616  1.00  0.00    -0.352 OA
BRANCH  17  18
HETATM   18  C   UNL     1      29.254  38.426  48.850  1.00  0.00     0.171 C 
HETATM   19  C   UNL     1      28.362  37.756  47.820  1.00  0.00     0.034 C 
ENDBRANCH  17  18
ENDBRANCH  14  17
ENDBRANCH   1  11
BRANCH   6  20
HETATM   20  S   UNL     1      22.535  44.790  47.990  1.00  0.00    -0.102 SA
BRANCH  20  21
HETATM   21  C   UNL     1      21.019  44.957  48.952  1.00  0.00     0.184 C 
BRANCH  21  22
HETATM   22  C   UNL     1      20.185  46.102  48.404  1.00  0.00     0.231 C 
HETATM   23  N   UNL     1      18.859  45.745  48.224  1.00  0.00    -0.327 N 
HETATM   24  H   UNL     1      18.660  44.752  48.279  1.00  0.00     0.169 HD
HETATM   25  O   UNL     1      20.708  47.186  48.160  1.00  0.00    -0.272 OA
BRANCH  23  26
HETATM   26  C   UNL     1      17.784  46.563  47.837  1.00  0.00     0.034 A 
HETATM   27  C   UNL     1      17.021  47.318  48.725  1.00  0.00     0.030 A 
HETATM   28  C   UNL     1      15.940  48.076  48.257  1.00  0.00     0.009 A 
HETATM   29  C   UNL     1      15.607  48.086  46.899  1.00  0.00    -0.062 A 
HETATM   30  C   UNL     1      14.466  48.922  46.400  1.00  0.00     0.048 C 
HETATM   31  C   UNL     1      16.385  47.344  46.008  1.00  0.00     0.009 A 
HETATM   32  C   UNL     1      17.458  46.582  46.475  1.00  0.00     0.030 A 
ENDBRANCH  23  26
ENDBRANCH  21  22
ENDBRANCH  20  21
ENDBRANCH   6  20
BRANCH   2  33
HETATM   33  C   UNL     1      26.236  44.233  52.735  1.00  0.00     0.255 C 
HETATM   34  N   UNL     1      27.605  44.413  52.673  1.00  0.00    -0.323 N 
HETATM   35  H   UNL     1      27.999  44.611  51.761  1.00  0.00     0.169 HD
HETATM   36  O   UNL     1      25.557  44.084  53.740  1.00  0.00    -0.268 OA
BRANCH  34  37
HETATM   37  C   UNL     1      28.544  44.304  53.719  1.00  0.00     0.035 A 
HETATM   38  C   UNL     1      28.676  45.233  54.751  1.00  0.00     0.029 A 
HETATM   39  C   UNL     1      29.622  45.033  55.762  1.00  0.00     0.002 A 
HETATM   40  C   UNL     1      30.437  43.903  55.753  1.00  0.00     0.000 A 
HETATM   41  C   UNL     1      30.312  42.971  54.727  1.00  0.00     0.002 A 
HETATM   42  C   UNL     1      29.373  43.174  53.712  1.00  0.00     0.029 A 
ENDBRANCH  34  37
ENDBRANCH   2  33
TORSDOF 9
ENDMDL
MODEL 5
REMARK VINA RESULT:      -8.6     10.701     15.848
REMARK  9 active torsions:
REMARK  status: ('A' for Active; 'I' for Inactive)
REMARK    1  A    between atoms: C_2  and  O_3 
REMARK    2  A    between atoms: O_3  and  C_4 
REMARK    3  A    between atoms: C_7  and  C_8 
REMARK    4  A    between atoms: C_9  and  C_10 
REMARK       I    between atoms: C_10  and  N_11 
REMARK    5  A    between atoms: N_11  and  C_12 
REMARK    6  A    between atoms: C_22  and  S_23 
REMARK    7  A    between atoms: S_23  and  C_24 
REMARK    8  A    between atoms: C_24  and  C_25 
REMARK       I    between atoms: C_25  and  N_26 
REMARK    9  A    between atoms: N_26  and  C_27 
ROOT
HETATM    1  C   UNL     1      14.455  54.377  46.443  1.00  0.00     0.104 C 
HETATM    2  C   UNL     1      14.510  52.910  46.015  1.00  0.00     0.046 C 
HETATM    3  C   UNL     1      13.696  52.443  45.038  1.00  0.00     0.019 C 
HETATM    4  C   UNL     1      13.495  50.988  44.695  1.00  0.00     0.069 C 
HETATM    5  N   UNL     1      12.968  53.342  44.280  1.00  0.00    -0.353 N 
HETATM    6  C   UNL     1      13.091  54.720  44.351  1.00  0.00     0.087 C 
HETATM    7  C   UNL     1      13.787  55.260  45.391  1.00  0.00     0.055 C 
HETATM    8  C   UNL     1      13.799  56.771  45.563  1.00  0.00     0.019 C 
HETATM    9  N   UNL     1      13.810  58.023  45.704  1.00  0.00    -0.096 N 
HETATM   10  H   UNL     1      12.255  52.958  43.663  1.00  0.00     0.166 HD
ENDROOT
BRANCH   1  11
HETATM   11  C   UNL     1      13.753  54.554  47.791  1.00  0.00    -0.044 A 
HETATM   12  C   UNL     1      12.356  54.645  47.855  1.00  0.00     0.011 A 
HETATM   13  C   UNL     1      11.710  54.769  49.089  1.00  0.00     0.037 A 
HETATM   14  C   UNL     1      12.440  54.801  50.279  1.00  0.00     0.068 A 
HETATM   15  C   UNL     1      13.830  54.726  50.225  1.00  0.00     0.037 A 
HETATM   16  C   UNL     1      14.481  54.602  48.993  1.00  0.00     0.011 A 
BRANCH  14  17
HETATM   17  O   UNL     1      11.686  54.910  51.415  1.00  0.00    -0.352 OA
BRANCH  17  18
HETATM   18  C   UNL     1      11.590  56.207  52.001  1.00  0.00     0.171 C 
HETATM   19  C   UNL     1      12.453  56.224  53.250  1.00  0.00     0.034 C 
ENDBRANCH  17  18
ENDBRANCH  14  17
ENDBRANCH   1  11
BRANCH   6  20
HETATM   20  S   UNL     1      12.406  55.813  43.144  1.00  0.00    -0.102 SA
BRANCH  20  21
HETATM   21  C   UNL     1      13.736  56.094  41.959  1.00  0.00     0.184 C 
BRANCH  21  22
HETATM   22  C   UNL     1      14.420  54.777  41.633  1.00  0.00     0.231 C 
HETATM   23  N   UNL     1      15.762  54.785  41.974  1.00  0.00    -0.327 N 
HETATM   24  H   UNL     1      16.154  55.695  42.196  1.00  0.00     0.169 HD
HETATM   25  O   UNL     1      13.786  53.864  41.112  1.00  0.00    -0.272 OA
BRANCH  23  26
HETATM   26  C   UNL     1      16.680  53.723  41.918  1.00  0.00     0.034 A 
HETATM   27  C   UNL     1      17.426  53.397  40.787  1.00  0.00     0.030 A 
HETATM   28  C   UNL     1      18.291  52.296  40.808  1.00  0.00     0.009 A 
HETATM   29  C   UNL     1      18.419  51.506  41.955  1.00  0.00    -0.062 A 
HETATM   30  C   UNL     1      19.369  50.346  41.979  1.00  0.00     0.048 C 
HETATM   31  C   UNL     1      17.687  51.848  43.094  1.00  0.00     0.009 A 
HETATM   32  C   UNL     1      16.818  52.941  43.072  1.00  0.00     0.030 A 
ENDBRANCH  23  26
ENDBRANCH  21  22
ENDBRANCH  20  21
ENDBRANCH   6  20
BRANCH   2  33
HETATM   33  C   UNL     1      15.528  52.052  46.698  1.00  0.00     0.255 C 
HETATM   34  N   UNL     1      16.793  52.607  46.652  1.00  0.00    -0.323 N 
HETATM   35  H   UNL     1      16.881  53.506  46.197  1.00  0.00     0.169 HD
HETATM   36  O   UNL     1      15.191  51.031  47.280  1.00  0.00    -0.268 OA
BRANCH  34  37
HETATM   37  C   UNL     1      18.003  52.049  47.114  1.00  0.00     0.035 A 
HETATM   38  C   UNL     1      18.725  52.539  48.202  1.00  0.00     0.029 A 
HETATM   39  C   UNL     1      19.907  51.910  48.605  1.00  0.00     0.002 A 
HETATM   40  C   UNL     1      20.372  50.783  47.930  1.00  0.00     0.000 A 
HETATM   41  C   UNL     1      19.658  50.287  46.843  1.00  0.00     0.002 A 
HETATM   42  C   UNL     1      18.482  50.920  46.435  1.00  0.00     0.029 A 
ENDBRANCH  34  37
ENDBRANCH   2  33
TORSDOF 9
ENDMDL
MODEL 6
REMARK VINA RESULT:      -8.4      6.162     11.123
REMARK  9 active torsions:
REMARK  status: ('A' for Active; 'I' for Inactive)
REMARK    1  A    between atoms: C_2  and  O_3 
REMARK    2  A    between atoms: O_3  and  C_4 
REMARK    3  A    between atoms: C_7  and  C_8 
REMARK    4  A    between atoms: C_9  and  C_10 
REMARK       I    between atoms: C_10  and  N_11 
REMARK    5  A    between atoms: N_11  and  C_12 
REMARK    6  A    between atoms: C_22  and  S_23 
REMARK    7  A    between atoms: S_23  and  C_24 
REMARK    8  A    between atoms: C_24  and  C_25 
REMARK       I    between atoms: C_25  and  N_26 
REMARK    9  A    between atoms: N_26  and  C_27 
ROOT
HETATM    1  C   UNL     1      19.098  49.848  46.675  1.00  0.00     0.104 C 
HETATM    2  C   UNL     1      19.458  48.530  47.364  1.00  0.00     0.046 C 
HETATM    3  C   UNL     1      18.810  47.384  47.045  1.00  0.00     0.019 C 
HETATM    4  C   UNL     1      18.912  46.087  47.809  1.00  0.00     0.069 C 
HETATM    5  N   UNL     1      17.973  47.365  45.944  1.00  0.00    -0.353 N 
HETATM    6  C   UNL     1      17.826  48.407  45.043  1.00  0.00     0.087 C 
HETATM    7  C   UNL     1      18.341  49.627  45.367  1.00  0.00     0.055 C 
HETATM    8  C   UNL     1      18.054  50.811  44.458  1.00  0.00     0.019 C 
HETATM    9  N   UNL     1      17.818  51.793  43.704  1.00  0.00    -0.096 N 
HETATM   10  H   UNL     1      17.386  46.543  45.822  1.00  0.00     0.166 HD
ENDROOT
BRANCH   1  11
HETATM   11  C   UNL     1      18.293  50.771  47.592  1.00  0.00    -0.044 A 
HETATM   12  C   UNL     1      16.954  50.481  47.889  1.00  0.00     0.011 A 
HETATM   13  C   UNL     1      16.227  51.303  48.756  1.00  0.00     0.037 A 
HETATM   14  C   UNL     1      16.819  52.422  49.346  1.00  0.00     0.068 A 
HETATM   15  C   UNL     1      18.145  52.726  49.046  1.00  0.00     0.037 A 
HETATM   16  C   UNL     1      18.876  51.908  48.179  1.00  0.00     0.011 A 
BRANCH  14  17
HETATM   17  O   UNL     1      16.003  53.131  50.185  1.00  0.00    -0.352 OA
BRANCH  17  18
HETATM   18  C   UNL     1      14.659  52.671  50.314  1.00  0.00     0.171 C 
HETATM   19  C   UNL     1      13.806  53.837  50.783  1.00  0.00     0.034 C 
ENDBRANCH  17  18
ENDBRANCH  14  17
ENDBRANCH   1  11
BRANCH   6  20
HETATM   20  S   UNL     1      17.021  48.226  43.481  1.00  0.00    -0.102 SA
BRANCH  20  21
HETATM   21  C   UNL     1      15.260  48.360  43.845  1.00  0.00     0.184 C 
BRANCH  21  22
HETATM   22  C   UNL     1      14.802  49.795  43.649  1.00  0.00     0.231 C 
HETATM   23  N   UNL     1      14.450  50.400  44.844  1.00  0.00    -0.327 N 
HETATM   24  H   UNL     1      14.345  49.777  45.638  1.00  0.00     0.169 HD
HETATM   25  O   UNL     1      14.764  50.283  42.523  1.00  0.00    -0.272 OA
BRANCH  23  26
HETATM   26  C   UNL     1      14.083  51.738  45.065  1.00  0.00     0.034 A 
HETATM   27  C   UNL     1      14.915  52.686  45.656  1.00  0.00     0.030 A 
HETATM   28  C   UNL     1      14.453  53.990  45.874  1.00  0.00     0.009 A 
HETATM   29  C   UNL     1      13.155  54.361  45.509  1.00  0.00    -0.062 A 
HETATM   30  C   UNL     1      12.676  55.767  45.719  1.00  0.00     0.048 C 
HETATM   31  C   UNL     1      12.329  53.415  44.898  1.00  0.00     0.009 A 
HETATM   32  C   UNL     1      12.787  52.112  44.687  1.00  0.00     0.030 A 
ENDBRANCH  23  26
ENDBRANCH  21  22
ENDBRANCH  20  21
ENDBRANCH   6  20
BRANCH   2  33
HETATM   33  C   UNL     1      20.576  48.578  48.356  1.00  0.00     0.255 C 
HETATM   34  N   UNL     1      21.816  48.570  47.746  1.00  0.00    -0.323 N 
HETATM   35  H   UNL     1      21.827  48.555  46.734  1.00  0.00     0.169 HD
HETATM   36  O   UNL     1      20.343  48.693  49.551  1.00  0.00    -0.268 OA
BRANCH  34  37
HETATM   37  C   UNL     1      23.085  48.525  48.359  1.00  0.00     0.035 A 
HETATM   38  C   UNL     1      23.515  47.492  49.192  1.00  0.00     0.029 A 
HETATM   39  C   UNL     1      24.801  47.519  49.742  1.00  0.00     0.002 A 
HETATM   40  C   UNL     1      25.667  48.573  49.459  1.00  0.00     0.000 A 
HETATM   41  C   UNL     1      25.247  49.608  48.629  1.00  0.00     0.002 A 
HETATM   42  C   UNL     1      23.960  49.586  48.086  1.00  0.00     0.029 A 
ENDBRANCH  34  37
ENDBRANCH   2  33
TORSDOF 9
ENDMDL
MODEL 7
REMARK VINA RESULT:      -8.4      4.356      7.119
REMARK  9 active torsions:
REMARK  status: ('A' for Active; 'I' for Inactive)
REMARK    1  A    between atoms: C_2  and  O_3 
REMARK    2  A    between atoms: O_3  and  C_4 
REMARK    3  A    between atoms: C_7  and  C_8 
REMARK    4  A    between atoms: C_9  and  C_10 
REMARK       I    between atoms: C_10  and  N_11 
REMARK    5  A    between atoms: N_11  and  C_12 
REMARK    6  A    between atoms: C_22  and  S_23 
REMARK    7  A    between atoms: S_23  and  C_24 
REMARK    8  A    between atoms: C_24  and  C_25 
REMARK       I    between atoms: C_25  and  N_26 
REMARK    9  A    between atoms: N_26  and  C_27 
ROOT
HETATM    1  C   UNL     1      24.686  42.267  49.693  1.00  0.00     0.104 C 
HETATM    2  C   UNL     1      25.252  43.608  50.165  1.00  0.00     0.046 C 
HETATM    3  C   UNL     1      25.182  44.705  49.375  1.00  0.00     0.019 C 
HETATM    4  C   UNL     1      25.901  46.006  49.627  1.00  0.00     0.069 C 
HETATM    5  N   UNL     1      24.406  44.664  48.230  1.00  0.00    -0.353 N 
HETATM    6  C   UNL     1      23.576  43.613  47.873  1.00  0.00     0.087 C 
HETATM    7  C   UNL     1      23.693  42.432  48.545  1.00  0.00     0.055 C 
HETATM    8  C   UNL     1      22.897  41.230  48.062  1.00  0.00     0.019 C 
HETATM    9  N   UNL     1      22.236  40.234  47.664  1.00  0.00    -0.096 N 
HETATM   10  H   UNL     1      24.495  45.443  47.581  1.00  0.00     0.166 HD
ENDROOT
BRANCH   1  11
HETATM   11  C   UNL     1      25.792  41.290  49.286  1.00  0.00    -0.044 A 
HETATM   12  C   UNL     1      26.558  41.528  48.137  1.00  0.00     0.011 A 
HETATM   13  C   UNL     1      27.593  40.656  47.784  1.00  0.00     0.037 A 
HETATM   14  C   UNL     1      27.887  39.539  48.569  1.00  0.00     0.068 A 
HETATM   15  C   UNL     1      27.122  39.288  49.705  1.00  0.00     0.037 A 
HETATM   16  C   UNL     1      26.085  40.155  50.062  1.00  0.00     0.011 A 
BRANCH  14  17
HETATM   17  O   UNL     1      28.932  38.779  48.120  1.00  0.00    -0.352 OA
BRANCH  17  18
HETATM   18  C   UNL     1      28.614  37.487  47.605  1.00  0.00     0.171 C 
HETATM   19  C   UNL     1      28.724  37.544  46.092  1.00  0.00     0.034 C 
ENDBRANCH  17  18
ENDBRANCH  14  17
ENDBRANCH   1  11
BRANCH   6  20
HETATM   20  S   UNL     1      22.356  43.736  46.601  1.00  0.00    -0.102 SA
BRANCH  20  21
HETATM   21  C   UNL     1      23.290  44.026  45.086  1.00  0.00     0.184 C 
BRANCH  21  22
HETATM   22  C   UNL     1      23.814  42.707  44.544  1.00  0.00     0.231 C 
HETATM   23  N   UNL     1      25.056  42.842  43.948  1.00  0.00    -0.327 N 
HETATM   24  H   UNL     1      25.356  43.795  43.768  1.00  0.00     0.169 HD
HETATM   25  O   UNL     1      23.142  41.685  44.651  1.00  0.00    -0.272 OA
BRANCH  23  26
HETATM   26  C   UNL     1      25.889  41.833  43.435  1.00  0.00     0.034 A 
HETATM   27  C   UNL     1      25.721  41.246  42.184  1.00  0.00     0.030 A 
HETATM   28  C   UNL     1      26.577  40.218  41.767  1.00  0.00     0.009 A 
HETATM   29  C   UNL     1      27.606  39.762  42.597  1.00  0.00    -0.062 A 
HETATM   30  C   UNL     1      28.536  38.680  42.134  1.00  0.00     0.048 C 
HETATM   31  C   UNL     1      27.786  40.367  43.843  1.00  0.00     0.009 A 
HETATM   32  C   UNL     1      26.928  41.387  44.262  1.00  0.00     0.030 A 
ENDBRANCH  23  26
ENDBRANCH  21  22
ENDBRANCH  20  21
ENDBRANCH   6  20
BRANCH   2  33
HETATM   33  C   UNL     1      25.836  43.639  51.542  1.00  0.00     0.255 C 
HETATM   34  N   UNL     1      27.218  43.672  51.522  1.00  0.00    -0.323 N 
HETATM   35  H   UNL     1      27.661  43.692  50.613  1.00  0.00     0.169 HD
HETATM   36  O   UNL     1      25.110  43.708  52.524  1.00  0.00    -0.268 OA
BRANCH  34  37
HETATM   37  C   UNL     1      28.103  43.626  52.619  1.00  0.00     0.035 A 
HETATM   38  C   UNL     1      29.165  42.729  52.729  1.00  0.00     0.029 A 
HETATM   39  C   UNL     1      30.007  42.768  53.845  1.00  0.00     0.002 A 
HETATM   40  C   UNL     1      29.799  43.706  54.854  1.00  0.00     0.000 A 
HETATM   41  C   UNL     1      28.742  44.605  54.752  1.00  0.00     0.002 A 
HETATM   42  C   UNL     1      27.895  44.561  53.642  1.00  0.00     0.029 A 
ENDBRANCH  34  37
ENDBRANCH   2  33
TORSDOF 9
ENDMDL
MODEL 8
REMARK VINA RESULT:      -8.3      3.793     10.736
REMARK  9 active torsions:
REMARK  status: ('A' for Active; 'I' for Inactive)
REMARK    1  A    between atoms: C_2  and  O_3 
REMARK    2  A    between atoms: O_3  and  C_4 
REMARK    3  A    between atoms: C_7  and  C_8 
REMARK    4  A    between atoms: C_9  and  C_10 
REMARK       I    between atoms: C_10  and  N_11 
REMARK    5  A    between atoms: N_11  and  C_12 
REMARK    6  A    between atoms: C_22  and  S_23 
REMARK    7  A    between atoms: S_23  and  C_24 
REMARK    8  A    between atoms: C_24  and  C_25 
REMARK       I    between atoms: C_25  and  N_26 
REMARK    9  A    between atoms: N_26  and  C_27 
ROOT
HETATM    1  C   UNL     1      23.142  42.036  48.490  1.00  0.00     0.104 C 
HETATM    2  C   UNL     1      23.068  41.002  47.365  1.00  0.00     0.046 C 
HETATM    3  C   UNL     1      24.189  40.602  46.719  1.00  0.00     0.019 C 
HETATM    4  C   UNL     1      24.218  39.776  45.457  1.00  0.00     0.069 C 
HETATM    5  N   UNL     1      25.425  40.967  47.222  1.00  0.00    -0.353 N 
HETATM    6  C   UNL     1      25.628  41.623  48.426  1.00  0.00     0.087 C 
HETATM    7  C   UNL     1      24.552  42.168  49.061  1.00  0.00     0.055 C 
HETATM    8  C   UNL     1      24.783  43.018  50.300  1.00  0.00     0.019 C 
HETATM    9  N   UNL     1      24.974  43.722  51.328  1.00  0.00    -0.096 N 
HETATM   10  H   UNL     1      26.237  40.785  46.635  1.00  0.00     0.166 HD
ENDROOT
BRANCH   1  11
HETATM   11  C   UNL     1      22.634  43.408  48.039  1.00  0.00    -0.044 A 
HETATM   12  C   UNL     1      22.994  43.919  46.785  1.00  0.00     0.011 A 
HETATM   13  C   UNL     1      22.500  45.156  46.357  1.00  0.00     0.037 A 
HETATM   14  C   UNL     1      21.639  45.902  47.164  1.00  0.00     0.068 A 
HETATM   15  C   UNL     1      21.288  45.408  48.418  1.00  0.00     0.037 A 
HETATM   16  C   UNL     1      21.778  44.173  48.852  1.00  0.00     0.011 A 
BRANCH  14  17
HETATM   17  O   UNL     1      21.219  47.084  46.620  1.00  0.00    -0.352 OA
BRANCH  17  18
HETATM   18  C   UNL     1      20.905  48.136  47.531  1.00  0.00     0.171 C 
HETATM   19  C   UNL     1      19.530  48.673  47.174  1.00  0.00     0.034 C 
ENDBRANCH  17  18
ENDBRANCH  14  17
ENDBRANCH   1  11
BRANCH   6  20
HETATM   20  S   UNL     1      27.214  41.767  49.190  1.00  0.00    -0.102 SA
BRANCH  20  21
HETATM   21  C   UNL     1      27.272  40.432  50.401  1.00  0.00     0.184 C 
BRANCH  21  22
HETATM   22  C   UNL     1      28.198  40.812  51.543  1.00  0.00     0.231 C 
HETATM   23  N   UNL     1      28.094  42.152  51.878  1.00  0.00    -0.327 N 
HETATM   24  H   UNL     1      27.590  42.733  51.216  1.00  0.00     0.169 HD
HETATM   25  O   UNL     1      28.936  39.970  52.046  1.00  0.00    -0.272 OA
BRANCH  23  26
HETATM   26  C   UNL     1      28.711  42.833  52.941  1.00  0.00     0.034 A 
HETATM   27  C   UNL     1      30.018  42.598  53.362  1.00  0.00     0.030 A 
HETATM   28  C   UNL     1      30.542  43.297  54.457  1.00  0.00     0.009 A 
HETATM   29  C   UNL     1      29.765  44.235  55.146  1.00  0.00    -0.062 A 
HETATM   30  C   UNL     1      30.342  45.001  56.299  1.00  0.00     0.048 C 
HETATM   31  C   UNL     1      28.463  44.484  54.709  1.00  0.00     0.009 A 
HETATM   32  C   UNL     1      27.937  43.781  53.622  1.00  0.00     0.030 A 
ENDBRANCH  23  26
ENDBRANCH  21  22
ENDBRANCH  20  21
ENDBRANCH   6  20
BRANCH   2  33
HETATM   33  C   UNL     1      21.715  40.441  47.061  1.00  0.00     0.255 C 
HETATM   34  N   UNL     1      21.579  39.139  47.505  1.00  0.00    -0.323 N 
HETATM   35  H   UNL     1      22.372  38.736  47.987  1.00  0.00     0.169 HD
HETATM   36  O   UNL     1      20.853  41.140  46.549  1.00  0.00    -0.268 OA
BRANCH  34  37
HETATM   37  C   UNL     1      20.483  38.271  47.324  1.00  0.00     0.035 A 
HETATM   38  C   UNL     1      20.488  37.175  46.461  1.00  0.00     0.029 A 
HETATM   39  C   UNL     1      19.360  36.353  46.359  1.00  0.00     0.002 A 
HETATM   40  C   UNL     1      18.225  36.615  47.123  1.00  0.00     0.000 A 
HETATM   41  C   UNL     1      18.211  37.706  47.987  1.00  0.00     0.002 A 
HETATM   42  C   UNL     1      19.333  38.533  48.082  1.00  0.00     0.029 A 
ENDBRANCH  34  37
ENDBRANCH   2  33
TORSDOF 9
ENDMDL
MODEL 9
REMARK VINA RESULT:      -8.3      2.447      3.703
REMARK  9 active torsions:
REMARK  status: ('A' for Active; 'I' for Inactive)
REMARK    1  A    between atoms: C_2  and  O_3 
REMARK    2  A    between atoms: O_3  and  C_4 
REMARK    3  A    between atoms: C_7  and  C_8 
REMARK    4  A    between atoms: C_9  and  C_10 
REMARK       I    between atoms: C_10  and  N_11 
REMARK    5  A    between atoms: N_11  and  C_12 
REMARK    6  A    between atoms: C_22  and  S_23 
REMARK    7  A    between atoms: S_23  and  C_24 
REMARK    8  A    between atoms: C_24  and  C_25 
REMARK       I    between atoms: C_25  and  N_26 
REMARK    9  A    between atoms: N_26  and  C_27 
ROOT
HETATM    1  C   UNL     1      23.081  44.660  49.730  1.00  0.00     0.104 C 
HETATM    2  C   UNL     1      24.339  45.301  50.320  1.00  0.00     0.046 C 
HETATM    3  C   UNL     1      24.767  46.511  49.886  1.00  0.00     0.019 C 
HETATM    4  C   UNL     1      26.101  47.131  50.218  1.00  0.00     0.069 C 
HETATM    5  N   UNL     1      23.946  47.263  49.064  1.00  0.00    -0.353 N 
HETATM    6  C   UNL     1      22.642  46.933  48.734  1.00  0.00     0.087 C 
HETATM    7  C   UNL     1      22.191  45.680  49.023  1.00  0.00     0.055 C 
HETATM    8  C   UNL     1      20.816  45.260  48.529  1.00  0.00     0.019 C 
HETATM    9  N   UNL     1      19.676  44.912  48.120  1.00  0.00    -0.096 N 
HETATM   10  H   UNL     1      24.354  48.090  48.633  1.00  0.00     0.166 HD
ENDROOT
BRANCH   1  11
HETATM   11  C   UNL     1      23.419  43.514  48.773  1.00  0.00    -0.044 A 
HETATM   12  C   UNL     1      23.546  43.753  47.399  1.00  0.00     0.011 A 
HETATM   13  C   UNL     1      23.891  42.714  46.528  1.00  0.00     0.037 A 
HETATM   14  C   UNL     1      24.119  41.423  47.009  1.00  0.00     0.068 A 
HETATM   15  C   UNL     1      23.981  41.173  48.372  1.00  0.00     0.037 A 
HETATM   16  C   UNL     1      23.636  42.208  49.247  1.00  0.00     0.011 A 
BRANCH  14  17
HETATM   17  O   UNL     1      24.463  40.506  46.054  1.00  0.00    -0.352 OA
BRANCH  17  18
HETATM   18  C   UNL     1      25.504  40.876  45.152  1.00  0.00     0.171 C 
HETATM   19  C   UNL     1      26.832  40.510  45.790  1.00  0.00     0.034 C 
ENDBRANCH  17  18
ENDBRANCH  14  17
ENDBRANCH   1  11
BRANCH   6  20
HETATM   20  S   UNL     1      21.524  48.070  47.972  1.00  0.00    -0.102 SA
BRANCH  20  21
HETATM   21  C   UNL     1      21.349  49.418  49.158  1.00  0.00     0.184 C 
BRANCH  21  22
HETATM   22  C   UNL     1      20.257  50.368  48.700  1.00  0.00     0.231 C 
HETATM   23  N   UNL     1      19.080  50.195  49.408  1.00  0.00    -0.327 N 
HETATM   24  H   UNL     1      19.028  49.355  49.975  1.00  0.00     0.169 HD
HETATM   25  O   UNL     1      20.471  51.161  47.786  1.00  0.00    -0.272 OA
BRANCH  23  26
HETATM   26  C   UNL     1      17.901  50.956  49.335  1.00  0.00     0.034 A 
HETATM   27  C   UNL     1      16.744  50.538  48.681  1.00  0.00     0.030 A 
HETATM   28  C   UNL     1      15.624  51.378  48.624  1.00  0.00     0.009 A 
HETATM   29  C   UNL     1      15.649  52.646  49.216  1.00  0.00    -0.062 A 
HETATM   30  C   UNL     1      14.437  53.529  49.176  1.00  0.00     0.048 C 
HETATM   31  C   UNL     1      16.802  53.054  49.889  1.00  0.00     0.009 A 
HETATM   32  C   UNL     1      17.922  52.219  49.939  1.00  0.00     0.030 A 
ENDBRANCH  23  26
ENDBRANCH  21  22
ENDBRANCH  20  21
ENDBRANCH   6  20
BRANCH   2  33
HETATM   33  C   UNL     1      25.026  44.544  51.412  1.00  0.00     0.255 C 
HETATM   34  N   UNL     1      26.277  44.098  51.030  1.00  0.00    -0.323 N 
HETATM   35  H   UNL     1      26.584  44.343  50.097  1.00  0.00     0.169 HD
HETATM   36  O   UNL     1      24.512  44.442  52.516  1.00  0.00    -0.268 OA
BRANCH  34  37
HETATM   37  C   UNL     1      27.171  43.289  51.761  1.00  0.00     0.035 A 
HETATM   38  C   UNL     1      28.025  43.767  52.755  1.00  0.00     0.029 A 
HETATM   39  C   UNL     1      28.865  42.888  53.446  1.00  0.00     0.002 A 
HETATM   40  C   UNL     1      28.853  41.526  53.155  1.00  0.00     0.000 A 
HETATM   41  C   UNL     1      28.004  41.039  52.165  1.00  0.00     0.002 A 
HETATM   42  C   UNL     1      27.171  41.918  51.469  1.00  0.00     0.029 A 
ENDBRANCH  34  37
ENDBRANCH   2  33
TORSDOF 9
ENDMDL
MODEL 10
REMARK VINA RESULT:      -8.3      6.031     10.218
REMARK  9 active torsions:
REMARK  status: ('A' for Active; 'I' for Inactive)
REMARK    1  A    between atoms: C_2  and  O_3 
REMARK    2  A    between atoms: O_3  and  C_4 
REMARK    3  A    between atoms: C_7  and  C_8 
REMARK    4  A    between atoms: C_9  and  C_10 
REMARK       I    between atoms: C_10  and  N_11 
REMARK    5  A    between atoms: N_11  and  C_12 
REMARK    6  A    between atoms: C_22  and  S_23 
REMARK    7  A    between atoms: S_23  and  C_24 
REMARK    8  A    between atoms: C_24  and  C_25 
REMARK       I    between atoms: C_25  and  N_26 
REMARK    9  A    between atoms: N_26  and  C_27 
ROOT
HETATM    1  C   UNL     1      27.672  39.284  47.205  1.00  0.00     0.104 C 
HETATM    2  C   UNL     1      26.538  40.242  46.837  1.00  0.00     0.046 C 
HETATM    3  C   UNL     1      25.831  40.880  47.800  1.00  0.00     0.019 C 
HETATM    4  C   UNL     1      24.557  41.655  47.574  1.00  0.00     0.069 C 
HETATM    5  N   UNL     1      26.276  40.831  49.109  1.00  0.00    -0.353 N 
HETATM    6  C   UNL     1      27.478  40.274  49.516  1.00  0.00     0.087 C 
HETATM    7  C   UNL     1      28.174  39.505  48.631  1.00  0.00     0.055 C 
HETATM    8  C   UNL     1      29.412  38.767  49.113  1.00  0.00     0.019 C 
HETATM    9  N   UNL     1      30.440  38.156  49.512  1.00  0.00    -0.096 N 
HETATM   10  H   UNL     1      25.647  41.185  49.826  1.00  0.00     0.166 HD
ENDROOT
BRANCH   1  11
HETATM   11  C   UNL     1      27.268  37.820  47.018  1.00  0.00    -0.044 A 
HETATM   12  C   UNL     1      28.012  36.982  46.176  1.00  0.00     0.011 A 
HETATM   13  C   UNL     1      27.665  35.635  46.034  1.00  0.00     0.037 A 
HETATM   14  C   UNL     1      26.580  35.097  46.728  1.00  0.00     0.068 A 
HETATM   15  C   UNL     1      25.826  35.926  47.556  1.00  0.00     0.037 A 
HETATM   16  C   UNL     1      26.167  37.274  47.702  1.00  0.00     0.011 A 
BRANCH  14  17
HETATM   17  O   UNL     1      26.360  33.764  46.510  1.00  0.00    -0.352 OA
BRANCH  17  18
HETATM   18  C   UNL     1      25.111  33.238  46.955  1.00  0.00     0.171 C 
HETATM   19  C   UNL     1      25.357  31.845  47.506  1.00  0.00     0.034 C 
ENDBRANCH  17  18
ENDBRANCH  14  17
ENDBRANCH   1  11
BRANCH   6  20
HETATM   20  S   UNL     1      28.164  40.530  51.123  1.00  0.00    -0.102 SA
BRANCH  20  21
HETATM   21  C   UNL     1      27.751  42.235  51.541  1.00  0.00     0.184 C 
BRANCH  21  22
HETATM   22  C   UNL     1      28.058  42.495  53.006  1.00  0.00     0.231 C 
HETATM   23  N   UNL     1      28.792  43.654  53.189  1.00  0.00    -0.327 N 
HETATM   24  H   UNL     1      29.195  44.057  52.350  1.00  0.00     0.169 HD
HETATM   25  O   UNL     1      27.675  41.707  53.866  1.00  0.00    -0.272 OA
BRANCH  23  26
HETATM   26  C   UNL     1      29.167  44.264  54.399  1.00  0.00     0.034 A 
HETATM   27  C   UNL     1      28.512  45.361  54.954  1.00  0.00     0.030 A 
HETATM   28  C   UNL     1      28.978  45.930  56.146  1.00  0.00     0.009 A 
HETATM   29  C   UNL     1      30.104  45.413  56.795  1.00  0.00    -0.062 A 
HETATM   30  C   UNL     1      30.580  46.010  58.086  1.00  0.00     0.048 C 
HETATM   31  C   UNL     1      30.746  44.300  56.248  1.00  0.00     0.009 A 
HETATM   32  C   UNL     1      30.287  43.737  55.055  1.00  0.00     0.030 A 
ENDBRANCH  23  26
ENDBRANCH  21  22
ENDBRANCH  20  21
ENDBRANCH   6  20
BRANCH   2  33
HETATM   33  C   UNL     1      26.294  40.458  45.377  1.00  0.00     0.255 C 
HETATM   34  N   UNL     1      27.252  41.273  44.803  1.00  0.00    -0.323 N 
HETATM   35  H   UNL     1      27.995  41.600  45.407  1.00  0.00     0.169 HD
HETATM   36  O   UNL     1      25.378  39.883  44.807  1.00  0.00    -0.268 OA
BRANCH  34  37
HETATM   37  C   UNL     1      27.300  41.756  43.479  1.00  0.00     0.035 A 
HETATM   38  C   UNL     1      26.469  42.759  42.983  1.00  0.00     0.029 A 
HETATM   39  C   UNL     1      26.600  43.193  41.659  1.00  0.00     0.002 A 
HETATM   40  C   UNL     1      27.566  42.633  40.826  1.00  0.00     0.000 A 
HETATM   41  C   UNL     1      28.401  41.632  41.313  1.00  0.00     0.002 A 
HETATM   42  C   UNL     1      28.264  41.192  42.632  1.00  0.00     0.029 A 
ENDBRANCH  34  37
ENDBRANCH   2  33
TORSDOF 9
ENDMDL
