MODEL 1
REMARK VINA RESULT:      -8.2      0.000      0.000
REMARK  2 active torsions:
REMARK  status: ('A' for Active; 'I' for Inactive)
REMARK    1  A    between atoms: C_3  and  C_4 
REMARK    2  A    between atoms: C_19  and  O_20 
ROOT
HETATM    1  C   UNL     1      25.930  44.933  53.505  1.00  0.00     0.137 C 
HETATM    2  N   UNL     1      26.251  43.583  54.058  1.00  0.00    -0.278 NA
HETATM    3  C   UNL     1      27.541  43.087  53.709  1.00  0.00     0.036 A 
HETATM    4  C   UNL     1      28.743  43.676  54.166  1.00  0.00     0.053 A 
HETATM    5  N   UNL     1      28.789  44.868  54.929  1.00  0.00    -0.356 N 
HETATM    6  C   UNL     1      27.937  45.938  54.779  1.00  0.00     0.041 A 
HETATM    7  C   UNL     1      26.752  45.987  54.150  1.00  0.00     0.056 A 
HETATM    8  C   UNL     1      26.252  47.363  54.282  1.00  0.00     0.251 A 
HETATM    9  O   UNL     1      25.187  47.787  53.881  1.00  0.00    -0.268 OA
HETATM   10  N   UNL     1      27.204  48.082  54.957  1.00  0.00    -0.351 N 
HETATM   11  C   UNL     1      28.314  47.280  55.346  1.00  0.00     0.180 A 
HETATM   12  C   UNL     1      27.598  41.934  52.911  1.00  0.00     0.026 A 
HETATM   13  C   UNL     1      28.820  41.354  52.574  1.00  0.00     0.002 A 
HETATM   14  C   UNL     1      30.003  41.913  53.040  1.00  0.00     0.002 A 
HETATM   15  C   UNL     1      29.964  43.062  53.833  1.00  0.00     0.031 A 
HETATM   16  H   UNL     1      26.287  43.693  55.076  1.00  0.00     0.128 HD
HETATM   17  H   UNL     1      29.721  45.108  55.251  1.00  0.00     0.166 HD
HETATM   18  H   UNL     1      27.060  49.056  55.185  1.00  0.00     0.163 HD
ENDROOT
BRANCH   1  19
HETATM   19  C   UNL     1      25.860  44.891  51.984  1.00  0.00    -0.002 A 
HETATM   20  C   UNL     1      26.607  45.752  51.161  1.00  0.00     0.012 A 
HETATM   21  C   UNL     1      26.459  45.724  49.770  1.00  0.00     0.001 A 
HETATM   22  C   UNL     1      25.560  44.840  49.176  1.00  0.00     0.003 A 
HETATM   23  C   UNL     1      24.825  43.964  49.969  1.00  0.00     0.037 A 
HETATM   24  C   UNL     1      24.992  43.983  51.351  1.00  0.00     0.073 A 
BRANCH  24  25
HETATM   25  O   UNL     1      24.296  43.045  52.068  1.00  0.00    -0.360 OA
HETATM   26  H   UNL     1      23.732  42.568  51.422  1.00  0.00     0.217 HD
ENDBRANCH  24  25
ENDBRANCH   1  19
TORSDOF 2
ENDMDL
MODEL 2
REMARK VINA RESULT:      -8.0     12.733     15.107
REMARK  2 active torsions:
REMARK  status: ('A' for Active; 'I' for Inactive)
REMARK    1  A    between atoms: C_3  and  C_4 
REMARK    2  A    between atoms: C_19  and  O_20 
ROOT
HETATM    1  C   UNL     1      31.774  49.511  39.736  1.00  0.00     0.137 C 
HETATM    2  N   UNL     1      31.486  50.548  38.700  1.00  0.00    -0.278 NA
HETATM    3  C   UNL     1      30.772  51.685  39.178  1.00  0.00     0.036 A 
HETATM    4  C   UNL     1      31.320  52.608  40.101  1.00  0.00     0.053 A 
HETATM    5  N   UNL     1      32.585  52.441  40.715  1.00  0.00    -0.356 N 
HETATM    6  C   UNL     1      33.129  51.235  41.095  1.00  0.00     0.041 A 
HETATM    7  C   UNL     1      32.771  49.997  40.721  1.00  0.00     0.056 A 
HETATM    8  C   UNL     1      33.671  49.063  41.413  1.00  0.00     0.251 A 
HETATM    9  O   UNL     1      33.688  47.853  41.295  1.00  0.00    -0.268 OA
HETATM   10  N   UNL     1      34.500  49.807  42.210  1.00  0.00    -0.351 N 
HETATM   11  C   UNL     1      34.267  51.206  42.078  1.00  0.00     0.180 A 
HETATM   12  C   UNL     1      29.486  51.907  38.663  1.00  0.00     0.026 A 
HETATM   13  C   UNL     1      28.746  53.028  39.037  1.00  0.00     0.002 A 
HETATM   14  C   UNL     1      29.288  53.951  39.923  1.00  0.00     0.002 A 
HETATM   15  C   UNL     1      30.566  53.743  40.447  1.00  0.00     0.031 A 
HETATM   16  H   UNL     1      32.394  50.921  38.410  1.00  0.00     0.128 HD
HETATM   17  H   UNL     1      32.868  53.234  41.282  1.00  0.00     0.166 HD
HETATM   18  H   UNL     1      35.224  49.370  42.764  1.00  0.00     0.163 HD
ENDROOT
BRANCH   1  19
HETATM   19  C   UNL     1      30.481  48.889  40.251  1.00  0.00    -0.002 A 
HETATM   20  C   UNL     1      29.950  49.177  41.521  1.00  0.00     0.012 A 
HETATM   21  C   UNL     1      28.797  48.530  41.980  1.00  0.00     0.001 A 
HETATM   22  C   UNL     1      28.157  47.583  41.182  1.00  0.00     0.003 A 
HETATM   23  C   UNL     1      28.654  47.296  39.915  1.00  0.00     0.037 A 
HETATM   24  C   UNL     1      29.789  47.958  39.456  1.00  0.00     0.073 A 
BRANCH  24  25
HETATM   25  O   UNL     1      30.184  47.687  38.171  1.00  0.00    -0.360 OA
HETATM   26  H   UNL     1      29.470  47.143  37.774  1.00  0.00     0.217 HD
ENDBRANCH  24  25
ENDBRANCH   1  19
TORSDOF 2
ENDMDL
MODEL 3
REMARK VINA RESULT:      -8.0      2.716      6.139
REMARK  2 active torsions:
REMARK  status: ('A' for Active; 'I' for Inactive)
REMARK    1  A    between atoms: C_3  and  C_4 
REMARK    2  A    between atoms: C_19  and  O_20 
ROOT
HETATM    1  C   UNL     1      26.885  42.039  51.831  1.00  0.00     0.137 C 
HETATM    2  N   UNL     1      25.705  42.948  51.940  1.00  0.00    -0.278 NA
HETATM    3  C   UNL     1      25.919  44.266  51.441  1.00  0.00     0.036 A 
HETATM    4  C   UNL     1      26.141  44.545  50.072  1.00  0.00     0.053 A 
HETATM    5  N   UNL     1      26.272  43.543  49.081  1.00  0.00    -0.356 N 
HETATM    6  C   UNL     1      26.871  42.318  49.266  1.00  0.00     0.041 A 
HETATM    7  C   UNL     1      27.170  41.694  50.416  1.00  0.00     0.056 A 
HETATM    8  C   UNL     1      27.799  40.415  50.060  1.00  0.00     0.251 A 
HETATM    9  O   UNL     1      28.168  39.550  50.831  1.00  0.00    -0.268 OA
HETATM   10  N   UNL     1      27.883  40.366  48.693  1.00  0.00    -0.351 N 
HETATM   11  C   UNL     1      27.306  41.511  48.073  1.00  0.00     0.180 A 
HETATM   12  C   UNL     1      25.859  45.324  52.360  1.00  0.00     0.026 A 
HETATM   13  C   UNL     1      26.001  46.647  51.942  1.00  0.00     0.002 A 
HETATM   14  C   UNL     1      26.194  46.930  50.596  1.00  0.00     0.002 A 
HETATM   15  C   UNL     1      26.260  45.888  49.669  1.00  0.00     0.031 A 
HETATM   16  H   UNL     1      24.986  42.556  51.325  1.00  0.00     0.128 HD
HETATM   17  H   UNL     1      26.339  43.912  48.137  1.00  0.00     0.166 HD
HETATM   18  H   UNL     1      28.264  39.557  48.221  1.00  0.00     0.163 HD
ENDROOT
BRANCH   1  19
HETATM   19  C   UNL     1      28.030  42.534  52.707  1.00  0.00    -0.002 A 
HETATM   20  C   UNL     1      29.329  42.750  52.213  1.00  0.00     0.012 A 
HETATM   21  C   UNL     1      30.366  43.140  53.068  1.00  0.00     0.001 A 
HETATM   22  C   UNL     1      30.127  43.316  54.430  1.00  0.00     0.003 A 
HETATM   23  C   UNL     1      28.845  43.127  54.937  1.00  0.00     0.037 A 
HETATM   24  C   UNL     1      27.813  42.760  54.078  1.00  0.00     0.073 A 
BRANCH  24  25
HETATM   25  O   UNL     1      26.560  42.664  54.625  1.00  0.00    -0.360 OA
HETATM   26  H   UNL     1      26.417  43.492  55.131  1.00  0.00     0.217 HD
ENDBRANCH  24  25
ENDBRANCH   1  19
TORSDOF 2
ENDMDL
MODEL 4
REMARK VINA RESULT:      -7.6      2.448      3.867
REMARK  2 active torsions:
REMARK  status: ('A' for Active; 'I' for Inactive)
REMARK    1  A    between atoms: C_3  and  C_4 
REMARK    2  A    between atoms: C_19  and  O_20 
ROOT
HETATM    1  C   UNL     1      26.408  43.408  52.144  1.00  0.00     0.137 C 
HETATM    2  N   UNL     1      25.806  42.149  51.611  1.00  0.00    -0.278 NA
HETATM    3  C   UNL     1      26.356  41.703  50.374  1.00  0.00     0.036 A 
HETATM    4  C   UNL     1      27.689  41.246  50.242  1.00  0.00     0.053 A 
HETATM    5  N   UNL     1      28.634  41.280  51.295  1.00  0.00    -0.356 N 
HETATM    6  C   UNL     1      28.718  42.264  52.254  1.00  0.00     0.041 A 
HETATM    7  C   UNL     1      27.805  43.188  52.592  1.00  0.00     0.056 A 
HETATM    8  C   UNL     1      28.391  43.996  53.671  1.00  0.00     0.251 A 
HETATM    9  O   UNL     1      27.849  44.904  54.271  1.00  0.00    -0.268 OA
HETATM   10  N   UNL     1      29.660  43.529  53.890  1.00  0.00    -0.351 N 
HETATM   11  C   UNL     1      29.977  42.413  53.064  1.00  0.00     0.180 A 
HETATM   12  C   UNL     1      25.506  41.681  49.257  1.00  0.00     0.026 A 
HETATM   13  C   UNL     1      25.952  41.204  48.025  1.00  0.00     0.002 A 
HETATM   14  C   UNL     1      27.252  40.731  47.895  1.00  0.00     0.002 A 
HETATM   15  C   UNL     1      28.111  40.749  48.996  1.00  0.00     0.031 A 
HETATM   16  H   UNL     1      26.050  41.412  52.278  1.00  0.00     0.128 HD
HETATM   17  H   UNL     1      29.516  40.835  51.063  1.00  0.00     0.166 HD
HETATM   18  H   UNL     1      30.246  43.924  54.613  1.00  0.00     0.163 HD
ENDROOT
BRANCH   1  19
HETATM   19  C   UNL     1      26.114  44.581  51.217  1.00  0.00    -0.002 A 
HETATM   20  C   UNL     1      27.102  45.198  50.431  1.00  0.00     0.012 A 
HETATM   21  C   UNL     1      26.801  46.317  49.646  1.00  0.00     0.001 A 
HETATM   22  C   UNL     1      25.510  46.841  49.635  1.00  0.00     0.003 A 
HETATM   23  C   UNL     1      24.510  46.235  50.390  1.00  0.00     0.037 A 
HETATM   24  C   UNL     1      24.812  45.110  51.152  1.00  0.00     0.073 A 
BRANCH  24  25
HETATM   25  O   UNL     1      23.768  44.516  51.813  1.00  0.00    -0.360 OA
HETATM   26  H   UNL     1      23.594  43.670  51.346  1.00  0.00     0.217 HD
ENDBRANCH  24  25
ENDBRANCH   1  19
TORSDOF 2
ENDMDL
MODEL 5
REMARK VINA RESULT:      -7.5      3.540      5.620
REMARK  2 active torsions:
REMARK  status: ('A' for Active; 'I' for Inactive)
REMARK    1  A    between atoms: C_3  and  C_4 
REMARK    2  A    between atoms: C_19  and  O_20 
ROOT
HETATM    1  C   UNL     1      25.799  40.991  50.055  1.00  0.00     0.137 C 
HETATM    2  N   UNL     1      26.073  41.069  51.521  1.00  0.00    -0.278 NA
HETATM    3  C   UNL     1      27.257  41.783  51.869  1.00  0.00     0.036 A 
HETATM    4  C   UNL     1      27.409  43.174  51.660  1.00  0.00     0.053 A 
HETATM    5  N   UNL     1      26.448  43.974  50.997  1.00  0.00    -0.356 N 
HETATM    6  C   UNL     1      25.673  43.565  49.935  1.00  0.00     0.041 A 
HETATM    7  C   UNL     1      25.425  42.318  49.506  1.00  0.00     0.056 A 
HETATM    8  C   UNL     1      24.539  42.433  48.339  1.00  0.00     0.251 A 
HETATM    9  O   UNL     1      24.058  41.516  47.702  1.00  0.00    -0.268 OA
HETATM   10  N   UNL     1      24.340  43.769  48.105  1.00  0.00    -0.351 N 
HETATM   11  C   UNL     1      24.993  44.590  49.068  1.00  0.00     0.180 A 
HETATM   12  C   UNL     1      28.289  41.062  52.489  1.00  0.00     0.026 A 
HETATM   13  C   UNL     1      29.455  41.697  52.911  1.00  0.00     0.002 A 
HETATM   14  C   UNL     1      29.601  43.067  52.731  1.00  0.00     0.002 A 
HETATM   15  C   UNL     1      28.584  43.798  52.114  1.00  0.00     0.031 A 
HETATM   16  H   UNL     1      25.313  41.626  51.923  1.00  0.00     0.128 HD
HETATM   17  H   UNL     1      26.668  44.965  51.007  1.00  0.00     0.166 HD
HETATM   18  H   UNL     1      23.737  44.085  47.358  1.00  0.00     0.163 HD
ENDROOT
BRANCH   1  19
HETATM   19  C   UNL     1      26.882  40.186  49.346  1.00  0.00    -0.002 A 
HETATM   20  C   UNL     1      27.817  40.769  48.473  1.00  0.00     0.012 A 
HETATM   21  C   UNL     1      28.750  39.981  47.790  1.00  0.00     0.001 A 
HETATM   22  C   UNL     1      28.764  38.599  47.964  1.00  0.00     0.003 A 
HETATM   23  C   UNL     1      27.861  38.002  48.839  1.00  0.00     0.037 A 
HETATM   24  C   UNL     1      26.949  38.794  49.530  1.00  0.00     0.073 A 
BRANCH  24  25
HETATM   25  O   UNL     1      26.139  38.155  50.432  1.00  0.00    -0.360 OA
HETATM   26  H   UNL     1      25.460  37.681  49.904  1.00  0.00     0.217 HD
ENDBRANCH  24  25
ENDBRANCH   1  19
TORSDOF 2
ENDMDL
MODEL 6
REMARK VINA RESULT:      -7.4      2.213      3.421
REMARK  2 active torsions:
REMARK  status: ('A' for Active; 'I' for Inactive)
REMARK    1  A    between atoms: C_3  and  C_4 
REMARK    2  A    between atoms: C_19  and  O_20 
ROOT
HETATM    1  C   UNL     1      24.940  46.410  52.041  1.00  0.00     0.137 C 
HETATM    2  N   UNL     1      24.355  45.128  51.548  1.00  0.00    -0.278 NA
HETATM    3  C   UNL     1      25.276  44.272  50.876  1.00  0.00     0.036 A 
HETATM    4  C   UNL     1      26.364  43.647  51.528  1.00  0.00     0.053 A 
HETATM    5  N   UNL     1      26.706  43.884  52.881  1.00  0.00    -0.356 N 
HETATM    6  C   UNL     1      26.588  45.094  53.527  1.00  0.00     0.041 A 
HETATM    7  C   UNL     1      25.881  46.175  53.165  1.00  0.00     0.056 A 
HETATM    8  C   UNL     1      26.095  47.195  54.201  1.00  0.00     0.251 A 
HETATM    9  O   UNL     1      25.583  48.297  54.248  1.00  0.00    -0.268 OA
HETATM   10  N   UNL     1      26.968  46.672  55.118  1.00  0.00    -0.351 N 
HETATM   11  C   UNL     1      27.338  45.332  54.811  1.00  0.00     0.180 A 
HETATM   12  C   UNL     1      25.047  44.016  49.515  1.00  0.00     0.026 A 
HETATM   13  C   UNL     1      25.869  43.145  48.801  1.00  0.00     0.002 A 
HETATM   14  C   UNL     1      26.924  42.508  49.442  1.00  0.00     0.002 A 
HETATM   15  C   UNL     1      27.166  42.755  50.794  1.00  0.00     0.031 A 
HETATM   16  H   UNL     1      24.080  44.601  52.382  1.00  0.00     0.128 HD
HETATM   17  H   UNL     1      27.457  43.292  53.220  1.00  0.00     0.166 HD
HETATM   18  H   UNL     1      27.240  47.195  55.939  1.00  0.00     0.163 HD
ENDROOT
BRANCH   1  19
HETATM   19  C   UNL     1      25.398  47.279  50.876  1.00  0.00    -0.002 A 
HETATM   20  C   UNL     1      26.742  47.637  50.673  1.00  0.00     0.012 A 
HETATM   21  C   UNL     1      27.107  48.493  49.628  1.00  0.00     0.001 A 
HETATM   22  C   UNL     1      26.138  49.010  48.770  1.00  0.00     0.003 A 
HETATM   23  C   UNL     1      24.803  48.653  48.940  1.00  0.00     0.037 A 
HETATM   24  C   UNL     1      24.449  47.785  49.969  1.00  0.00     0.073 A 
BRANCH  24  25
HETATM   25  O   UNL     1      23.132  47.414  50.036  1.00  0.00    -0.360 OA
HETATM   26  H   UNL     1      22.870  47.164  49.124  1.00  0.00     0.217 HD
ENDBRANCH  24  25
ENDBRANCH   1  19
TORSDOF 2
ENDMDL
MODEL 7
REMARK VINA RESULT:      -7.4      2.621      5.159
REMARK  2 active torsions:
REMARK  status: ('A' for Active; 'I' for Inactive)
REMARK    1  A    between atoms: C_3  and  C_4 
REMARK    2  A    between atoms: C_19  and  O_20 
ROOT
HETATM    1  C   UNL     1      26.266  43.699  52.158  1.00  0.00     0.137 C 
HETATM    2  N   UNL     1      24.869  43.173  52.123  1.00  0.00    -0.278 NA
HETATM    3  C   UNL     1      24.407  42.796  50.828  1.00  0.00     0.036 A 
HETATM    4  C   UNL     1      24.948  41.708  50.103  1.00  0.00     0.053 A 
HETATM    5  N   UNL     1      26.061  40.951  50.543  1.00  0.00    -0.356 N 
HETATM    6  C   UNL     1      27.141  41.457  51.229  1.00  0.00     0.041 A 
HETATM    7  C   UNL     1      27.253  42.627  51.878  1.00  0.00     0.056 A 
HETATM    8  C   UNL     1      28.610  42.679  52.439  1.00  0.00     0.251 A 
HETATM    9  O   UNL     1      29.072  43.564  53.132  1.00  0.00    -0.268 OA
HETATM   10  N   UNL     1      29.259  41.537  52.049  1.00  0.00    -0.351 N 
HETATM   11  C   UNL     1      28.422  40.669  51.292  1.00  0.00     0.180 A 
HETATM   12  C   UNL     1      23.336  43.522  50.285  1.00  0.00     0.026 A 
HETATM   13  C   UNL     1      22.790  43.179  49.049  1.00  0.00     0.002 A 
HETATM   14  C   UNL     1      23.299  42.096  48.344  1.00  0.00     0.002 A 
HETATM   15  C   UNL     1      24.367  41.365  48.869  1.00  0.00     0.031 A 
HETATM   16  H   UNL     1      24.881  42.298  52.654  1.00  0.00     0.128 HD
HETATM   17  H   UNL     1      26.267  40.153  49.952  1.00  0.00     0.166 HD
HETATM   18  H   UNL     1      30.208  41.348  52.345  1.00  0.00     0.163 HD
ENDROOT
BRANCH   1  19
HETATM   19  C   UNL     1      26.370  45.008  51.384  1.00  0.00    -0.002 A 
HETATM   20  C   UNL     1      26.963  45.096  50.112  1.00  0.00     0.012 A 
HETATM   21  C   UNL     1      27.098  46.330  49.467  1.00  0.00     0.001 A 
HETATM   22  C   UNL     1      26.649  47.498  50.081  1.00  0.00     0.003 A 
HETATM   23  C   UNL     1      26.042  47.432  51.332  1.00  0.00     0.037 A 
HETATM   24  C   UNL     1      25.891  46.199  51.959  1.00  0.00     0.073 A 
BRANCH  24  25
HETATM   25  O   UNL     1      25.218  46.193  53.152  1.00  0.00    -0.360 OA
HETATM   26  H   UNL     1      24.721  45.347  53.183  1.00  0.00     0.217 HD
ENDBRANCH  24  25
ENDBRANCH   1  19
TORSDOF 2
ENDMDL
MODEL 8
REMARK VINA RESULT:      -7.4      7.374     10.320
REMARK  2 active torsions:
REMARK  status: ('A' for Active; 'I' for Inactive)
REMARK    1  A    between atoms: C_3  and  C_4 
REMARK    2  A    between atoms: C_19  and  O_20 
ROOT
HETATM    1  C   UNL     1      21.331  47.705  48.476  1.00  0.00     0.137 C 
HETATM    2  N   UNL     1      20.352  48.181  49.499  1.00  0.00    -0.278 NA
HETATM    3  C   UNL     1      19.808  49.475  49.247  1.00  0.00     0.036 A 
HETATM    4  C   UNL     1      18.959  49.755  48.150  1.00  0.00     0.053 A 
HETATM    5  N   UNL     1      18.646  48.811  47.144  1.00  0.00    -0.356 N 
HETATM    6  C   UNL     1      19.511  47.858  46.653  1.00  0.00     0.041 A 
HETATM    7  C   UNL     1      20.661  47.414  47.184  1.00  0.00     0.056 A 
HETATM    8  C   UNL     1      21.194  46.398  46.266  1.00  0.00     0.251 A 
HETATM    9  O   UNL     1      22.199  45.735  46.426  1.00  0.00    -0.268 OA
HETATM   10  N   UNL     1      20.339  46.323  45.197  1.00  0.00    -0.351 N 
HETATM   11  C   UNL     1      19.218  47.189  45.338  1.00  0.00     0.180 A 
HETATM   12  C   UNL     1      20.105  50.492  50.167  1.00  0.00     0.026 A 
HETATM   13  C   UNL     1      19.566  51.769  50.023  1.00  0.00     0.002 A 
HETATM   14  C   UNL     1      18.712  52.045  48.963  1.00  0.00     0.002 A 
HETATM   15  C   UNL     1      18.409  51.044  48.037  1.00  0.00     0.031 A 
HETATM   16  H   UNL     1      19.547  47.551  49.438  1.00  0.00     0.128 HD
HETATM   17  H   UNL     1      17.955  49.142  46.477  1.00  0.00     0.166 HD
HETATM   18  H   UNL     1      20.497  45.664  44.446  1.00  0.00     0.163 HD
ENDROOT
BRANCH   1  19
HETATM   19  C   UNL     1      22.576  48.584  48.471  1.00  0.00    -0.002 A 
HETATM   20  C   UNL     1      22.650  49.798  47.767  1.00  0.00     0.012 A 
HETATM   21  C   UNL     1      23.837  50.539  47.735  1.00  0.00     0.001 A 
HETATM   22  C   UNL     1      24.971  50.078  48.400  1.00  0.00     0.003 A 
HETATM   23  C   UNL     1      24.916  48.888  49.120  1.00  0.00     0.037 A 
HETATM   24  C   UNL     1      23.726  48.167  49.165  1.00  0.00     0.073 A 
BRANCH  24  25
HETATM   25  O   UNL     1      23.715  47.045  49.952  1.00  0.00    -0.360 OA
HETATM   26  H   UNL     1      24.520  47.095  50.512  1.00  0.00     0.217 HD
ENDBRANCH  24  25
ENDBRANCH   1  19
TORSDOF 2
ENDMDL
MODEL 9
REMARK VINA RESULT:      -7.4      8.037     10.217
REMARK  2 active torsions:
REMARK  status: ('A' for Active; 'I' for Inactive)
REMARK    1  A    between atoms: C_3  and  C_4 
REMARK    2  A    between atoms: C_19  and  O_20 
ROOT
HETATM    1  C   UNL     1      18.849  47.705  48.993  1.00  0.00     0.137 C 
HETATM    2  N   UNL     1      19.971  48.148  49.873  1.00  0.00    -0.278 NA
HETATM    3  C   UNL     1      20.915  49.013  49.246  1.00  0.00     0.036 A 
HETATM    4  C   UNL     1      20.594  50.323  48.817  1.00  0.00     0.053 A 
HETATM    5  N   UNL     1      19.289  50.867  48.876  1.00  0.00    -0.356 N 
HETATM    6  C   UNL     1      18.126  50.161  48.668  1.00  0.00     0.041 A 
HETATM    7  C   UNL     1      17.936  48.832  48.676  1.00  0.00     0.056 A 
HETATM    8  C   UNL     1      16.512  48.600  48.401  1.00  0.00     0.251 A 
HETATM    9  O   UNL     1      15.947  47.524  48.372  1.00  0.00    -0.268 OA
HETATM   10  N   UNL     1      15.928  49.823  48.197  1.00  0.00    -0.351 N 
HETATM   11  C   UNL     1      16.849  50.896  48.362  1.00  0.00     0.180 A 
HETATM   12  C   UNL     1      22.228  48.541  49.097  1.00  0.00     0.026 A 
HETATM   13  C   UNL     1      23.223  49.347  48.546  1.00  0.00     0.002 A 
HETATM   14  C   UNL     1      22.921  50.643  48.146  1.00  0.00     0.002 A 
HETATM   15  C   UNL     1      21.618  51.127  48.284  1.00  0.00     0.031 A 
HETATM   16  H   UNL     1      19.548  48.723  50.607  1.00  0.00     0.128 HD
HETATM   17  H   UNL     1      19.245  51.846  48.612  1.00  0.00     0.166 HD
HETATM   18  H   UNL     1      14.937  49.906  48.015  1.00  0.00     0.163 HD
ENDROOT
BRANCH   1  19
HETATM   19  C   UNL     1      19.368  46.843  47.849  1.00  0.00    -0.002 A 
HETATM   20  C   UNL     1      19.354  47.265  46.508  1.00  0.00     0.012 A 
HETATM   21  C   UNL     1      19.777  46.412  45.482  1.00  0.00     0.001 A 
HETATM   22  C   UNL     1      20.218  45.123  45.776  1.00  0.00     0.003 A 
HETATM   23  C   UNL     1      20.259  44.691  47.098  1.00  0.00     0.037 A 
HETATM   24  C   UNL     1      19.856  45.551  48.115  1.00  0.00     0.073 A 
BRANCH  24  25
HETATM   25  O   UNL     1      19.992  45.092  49.400  1.00  0.00    -0.360 OA
HETATM   26  H   UNL     1      19.137  45.270  49.847  1.00  0.00     0.217 HD
ENDBRANCH  24  25
ENDBRANCH   1  19
TORSDOF 2
ENDMDL
MODEL 10
REMARK VINA RESULT:      -7.3     15.213     16.681
REMARK  2 active torsions:
REMARK  status: ('A' for Active; 'I' for Inactive)
REMARK    1  A    between atoms: C_3  and  C_4 
REMARK    2  A    between atoms: C_19  and  O_20 
ROOT
HETATM    1  C   UNL     1      36.846  46.267  65.079  1.00  0.00     0.137 C 
HETATM    2  N   UNL     1      36.775  45.726  63.688  1.00  0.00    -0.278 NA
HETATM    3  C   UNL     1      37.473  44.498  63.490  1.00  0.00     0.036 A 
HETATM    4  C   UNL     1      37.080  43.282  64.097  1.00  0.00     0.053 A 
HETATM    5  N   UNL     1      36.023  43.180  65.033  1.00  0.00    -0.356 N 
HETATM    6  C   UNL     1      35.703  44.133  65.973  1.00  0.00     0.041 A 
HETATM    7  C   UNL     1      36.075  45.422  66.024  1.00  0.00     0.056 A 
HETATM    8  C   UNL     1      35.462  45.998  67.230  1.00  0.00     0.251 A 
HETATM    9  O   UNL     1      35.531  47.156  67.593  1.00  0.00    -0.268 OA
HETATM   10  N   UNL     1      34.783  44.992  67.866  1.00  0.00    -0.351 N 
HETATM   11  C   UNL     1      34.845  43.761  67.152  1.00  0.00     0.180 A 
HETATM   12  C   UNL     1      38.569  44.510  62.615  1.00  0.00     0.026 A 
HETATM   13  C   UNL     1      39.268  43.339  62.324  1.00  0.00     0.002 A 
HETATM   14  C   UNL     1      38.872  42.137  62.896  1.00  0.00     0.002 A 
HETATM   15  C   UNL     1      37.785  42.109  63.772  1.00  0.00     0.031 A 
HETATM   16  H   UNL     1      35.792  45.489  63.524  1.00  0.00     0.128 HD
HETATM   17  H   UNL     1      35.812  42.225  65.305  1.00  0.00     0.166 HD
HETATM   18  H   UNL     1      34.260  45.168  68.712  1.00  0.00     0.163 HD
ENDROOT
BRANCH   1  19
HETATM   19  C   UNL     1      38.277  46.646  65.438  1.00  0.00    -0.002 A 
HETATM   20  C   UNL     1      39.086  45.861  66.279  1.00  0.00     0.012 A 
HETATM   21  C   UNL     1      40.371  46.283  66.637  1.00  0.00     0.001 A 
HETATM   22  C   UNL     1      40.869  47.497  66.167  1.00  0.00     0.003 A 
HETATM   23  C   UNL     1      40.094  48.281  65.319  1.00  0.00     0.037 A 
HETATM   24  C   UNL     1      38.825  47.846  64.949  1.00  0.00     0.073 A 
BRANCH  24  25
HETATM   25  O   UNL     1      38.143  48.626  64.052  1.00  0.00    -0.360 OA
HETATM   26  H   UNL     1      37.435  48.059  63.677  1.00  0.00     0.217 HD
ENDBRANCH  24  25
ENDBRANCH   1  19
TORSDOF 2
ENDMDL
