MODEL 1
REMARK VINA RESULT:      -9.0      0.000      0.000
REMARK  5 active torsions:
REMARK  status: ('A' for Active; 'I' for Inactive)
REMARK    1  A    between atoms: C_2  and  C_3 
REMARK    2  A    between atoms: C_2  and  C_18 
REMARK       I    between atoms: C_3  and  N_4 
REMARK    3  A    between atoms: N_4  and  C_5 
REMARK    4  A    between atoms: C_7  and  C_8 
REMARK    5  A    between atoms: C_18  and  C_19 
ROOT
HETATM    1  C   UNL     1      27.204  43.505  52.531  1.00  0.00     0.226 C 
HETATM    2  N   UNL     1      26.474  44.673  52.621  1.00  0.00    -0.327 N 
HETATM    3  O   UNL     1      27.292  42.797  51.527  1.00  0.00    -0.273 OA
HETATM    4  H   UNL     1      26.266  45.018  53.548  1.00  0.00     0.169 HD
ENDROOT
BRANCH   2   5
HETATM    5  C   UNL     1      25.859  45.375  51.562  1.00  0.00     0.035 A 
HETATM    6  C   UNL     1      26.427  46.490  50.936  1.00  0.00     0.042 A 
HETATM    7  C   UNL     1      25.736  47.187  49.930  1.00  0.00    -0.021 A 
HETATM    8  C   UNL     1      24.464  46.741  49.549  1.00  0.00     0.012 A 
HETATM    9  C   UNL     1      23.891  45.629  50.163  1.00  0.00     0.003 A 
HETATM   10  C   UNL     1      24.582  44.955  51.171  1.00  0.00     0.029 A 
BRANCH   7  11
HETATM   11  C   UNL     1      26.306  48.370  49.309  1.00  0.00     0.010 A 
HETATM   12  C   UNL     1      25.701  49.400  48.549  1.00  0.00     0.152 A 
HETATM   13  N   UNL     1      26.573  50.327  48.142  1.00  0.00    -0.187 NA
HETATM   14  N   UNL     1      27.742  49.894  48.643  1.00  0.00    -0.289 N 
HETATM   15  H   UNL     1      28.575  50.445  48.464  1.00  0.00     0.188 HD
HETATM   16  C   UNL     1      27.636  48.729  49.345  1.00  0.00     0.123 A 
ENDBRANCH   7  11
ENDBRANCH   2   5
BRANCH   1  17
HETATM   17  C   UNL     1      28.040  43.158  53.766  1.00  0.00     0.078 C 
HETATM   18  C   UNL     1      28.210  41.637  53.812  1.00  0.00     0.020 C 
BRANCH  17  19
HETATM   19  C   UNL     1      29.413  43.842  53.874  1.00  0.00     0.052 C 
BRANCH  19  20
HETATM   20  C   UNL     1      29.993  44.076  55.250  1.00  0.00    -0.057 A 
HETATM   21  C   UNL     1      30.916  43.214  55.853  1.00  0.00     0.007 A 
HETATM   22  C   UNL     1      31.458  43.515  57.106  1.00  0.00     0.001 A 
HETATM   23  C   UNL     1      31.096  44.686  57.766  1.00  0.00     0.000 A 
HETATM   24  C   UNL     1      30.191  45.561  57.174  1.00  0.00     0.001 A 
HETATM   25  C   UNL     1      29.646  45.260  55.925  1.00  0.00     0.007 A 
ENDBRANCH  19  20
ENDBRANCH  17  19
ENDBRANCH   1  17
TORSDOF 5
ENDMDL
MODEL 2
REMARK VINA RESULT:      -8.9      2.498      8.041
REMARK  5 active torsions:
REMARK  status: ('A' for Active; 'I' for Inactive)
REMARK    1  A    between atoms: C_2  and  C_3 
REMARK    2  A    between atoms: C_2  and  C_18 
REMARK       I    between atoms: C_3  and  N_4 
REMARK    3  A    between atoms: N_4  and  C_5 
REMARK    4  A    between atoms: C_7  and  C_8 
REMARK    5  A    between atoms: C_18  and  C_19 
ROOT
HETATM    1  C   UNL     1      26.025  44.843  52.736  1.00  0.00     0.226 C 
HETATM    2  N   UNL     1      27.376  44.872  52.453  1.00  0.00    -0.327 N 
HETATM    3  O   UNL     1      25.488  44.106  53.563  1.00  0.00    -0.273 OA
HETATM    4  H   UNL     1      27.658  45.318  51.590  1.00  0.00     0.169 HD
ENDROOT
BRANCH   2   5
HETATM    5  C   UNL     1      28.409  44.224  53.164  1.00  0.00     0.035 A 
HETATM    6  C   UNL     1      28.852  44.628  54.428  1.00  0.00     0.042 A 
HETATM    7  C   UNL     1      29.930  43.981  55.059  1.00  0.00    -0.021 A 
HETATM    8  C   UNL     1      30.553  42.910  54.406  1.00  0.00     0.012 A 
HETATM    9  C   UNL     1      30.115  42.498  53.148  1.00  0.00     0.003 A 
HETATM   10  C   UNL     1      29.054  43.158  52.527  1.00  0.00     0.029 A 
BRANCH   7  11
HETATM   11  C   UNL     1      30.420  44.427  56.352  1.00  0.00     0.010 A 
HETATM   12  C   UNL     1      31.355  43.843  57.239  1.00  0.00     0.152 A 
HETATM   13  N   UNL     1      31.540  44.564  58.349  1.00  0.00    -0.187 NA
HETATM   14  N   UNL     1      30.723  45.616  58.175  1.00  0.00    -0.289 N 
HETATM   15  H   UNL     1      30.688  46.322  58.902  1.00  0.00     0.188 HD
HETATM   16  C   UNL     1      30.030  45.580  57.000  1.00  0.00     0.123 A 
ENDBRANCH   7  11
ENDBRANCH   2   5
BRANCH   1  17
HETATM   17  C   UNL     1      25.183  45.903  52.021  1.00  0.00     0.078 C 
HETATM   18  C   UNL     1      25.516  47.266  52.633  1.00  0.00     0.020 C 
BRANCH  17  19
HETATM   19  C   UNL     1      25.325  45.968  50.491  1.00  0.00     0.052 C 
BRANCH  19  20
HETATM   20  C   UNL     1      25.710  47.285  49.860  1.00  0.00    -0.057 A 
HETATM   21  C   UNL     1      27.036  47.663  49.618  1.00  0.00     0.007 A 
HETATM   22  C   UNL     1      27.327  48.873  48.980  1.00  0.00     0.001 A 
HETATM   23  C   UNL     1      26.298  49.713  48.564  1.00  0.00     0.000 A 
HETATM   24  C   UNL     1      24.974  49.346  48.784  1.00  0.00     0.001 A 
HETATM   25  C   UNL     1      24.683  48.140  49.423  1.00  0.00     0.007 A 
ENDBRANCH  19  20
ENDBRANCH  17  19
ENDBRANCH   1  17
TORSDOF 5
ENDMDL
MODEL 3
REMARK VINA RESULT:      -8.8      1.362      2.115
REMARK  5 active torsions:
REMARK  status: ('A' for Active; 'I' for Inactive)
REMARK    1  A    between atoms: C_2  and  C_3 
REMARK    2  A    between atoms: C_2  and  C_18 
REMARK       I    between atoms: C_3  and  N_4 
REMARK    3  A    between atoms: N_4  and  C_5 
REMARK    4  A    between atoms: C_7  and  C_8 
REMARK    5  A    between atoms: C_18  and  C_19 
ROOT
HETATM    1  C   UNL     1      27.268  43.422  53.616  1.00  0.00     0.226 C 
HETATM    2  N   UNL     1      27.230  43.587  52.246  1.00  0.00    -0.327 N 
HETATM    3  O   UNL     1      26.401  43.803  54.402  1.00  0.00    -0.273 OA
HETATM    4  H   UNL     1      28.099  43.474  51.742  1.00  0.00     0.169 HD
ENDROOT
BRANCH   2   5
HETATM    5  C   UNL     1      26.137  44.035  51.473  1.00  0.00     0.035 A 
HETATM    6  C   UNL     1      26.013  45.342  50.990  1.00  0.00     0.042 A 
HETATM    7  C   UNL     1      24.868  45.746  50.281  1.00  0.00    -0.021 A 
HETATM    8  C   UNL     1      23.850  44.814  50.049  1.00  0.00     0.012 A 
HETATM    9  C   UNL     1      23.968  43.507  50.522  1.00  0.00     0.003 A 
HETATM   10  C   UNL     1      25.102  43.123  51.238  1.00  0.00     0.029 A 
BRANCH   7  11
HETATM   11  C   UNL     1      24.717  47.115  49.817  1.00  0.00     0.010 A 
HETATM   12  C   UNL     1      25.684  48.114  49.550  1.00  0.00     0.152 A 
HETATM   13  N   UNL     1      25.143  49.265  49.138  1.00  0.00    -0.187 NA
HETATM   14  N   UNL     1      23.825  49.005  49.137  1.00  0.00    -0.289 N 
HETATM   15  H   UNL     1      23.190  49.743  48.852  1.00  0.00     0.188 HD
HETATM   16  C   UNL     1      23.519  47.737  49.536  1.00  0.00     0.123 A 
ENDBRANCH   7  11
ENDBRANCH   2   5
BRANCH   1  17
HETATM   17  C   UNL     1      28.448  42.600  54.144  1.00  0.00     0.078 C 
HETATM   18  C   UNL     1      28.555  41.328  53.300  1.00  0.00     0.020 C 
BRANCH  17  19
HETATM   19  C   UNL     1      29.809  43.314  54.191  1.00  0.00     0.052 C 
BRANCH  19  20
HETATM   20  C   UNL     1      30.243  43.950  55.491  1.00  0.00    -0.057 A 
HETATM   21  C   UNL     1      29.753  45.180  55.947  1.00  0.00     0.007 A 
HETATM   22  C   UNL     1      30.152  45.691  57.186  1.00  0.00     0.001 A 
HETATM   23  C   UNL     1      31.033  44.973  57.991  1.00  0.00     0.000 A 
HETATM   24  C   UNL     1      31.517  43.742  57.560  1.00  0.00     0.001 A 
HETATM   25  C   UNL     1      31.123  43.234  56.322  1.00  0.00     0.007 A 
ENDBRANCH  19  20
ENDBRANCH  17  19
ENDBRANCH   1  17
TORSDOF 5
ENDMDL
MODEL 4
REMARK VINA RESULT:      -8.7      2.519      3.688
REMARK  5 active torsions:
REMARK  status: ('A' for Active; 'I' for Inactive)
REMARK    1  A    between atoms: C_2  and  C_3 
REMARK    2  A    between atoms: C_2  and  C_18 
REMARK       I    between atoms: C_3  and  N_4 
REMARK    3  A    between atoms: N_4  and  C_5 
REMARK    4  A    between atoms: C_7  and  C_8 
REMARK    5  A    between atoms: C_18  and  C_19 
ROOT
HETATM    1  C   UNL     1      26.200  46.539  52.325  1.00  0.00     0.226 C 
HETATM    2  N   UNL     1      26.240  46.560  50.945  1.00  0.00    -0.327 N 
HETATM    3  O   UNL     1      26.028  47.522  53.046  1.00  0.00    -0.273 OA
HETATM    4  H   UNL     1      26.643  45.756  50.483  1.00  0.00     0.169 HD
ENDROOT
BRANCH   2   5
HETATM    5  C   UNL     1      25.908  47.640  50.101  1.00  0.00     0.035 A 
HETATM    6  C   UNL     1      24.598  47.955  49.722  1.00  0.00     0.042 A 
HETATM    7  C   UNL     1      24.337  49.006  48.825  1.00  0.00    -0.021 A 
HETATM    8  C   UNL     1      25.411  49.749  48.320  1.00  0.00     0.012 A 
HETATM    9  C   UNL     1      26.719  49.446  48.696  1.00  0.00     0.003 A 
HETATM   10  C   UNL     1      26.966  48.391  49.574  1.00  0.00     0.029 A 
BRANCH   7  11
HETATM   11  C   UNL     1      22.981  49.306  48.395  1.00  0.00     0.010 A 
HETATM   12  C   UNL     1      22.442  50.454  47.768  1.00  0.00     0.152 A 
HETATM   13  N   UNL     1      21.130  50.351  47.534  1.00  0.00    -0.187 NA
HETATM   14  N   UNL     1      20.825  49.133  48.009  1.00  0.00    -0.289 N 
HETATM   15  H   UNL     1      19.863  48.818  47.942  1.00  0.00     0.188 HD
HETATM   16  C   UNL     1      21.895  48.470  48.536  1.00  0.00     0.123 A 
ENDBRANCH   7  11
ENDBRANCH   2   5
BRANCH   1  17
HETATM   17  C   UNL     1      26.274  45.149  52.962  1.00  0.00     0.078 C 
HETATM   18  C   UNL     1      25.072  44.338  52.470  1.00  0.00     0.020 C 
BRANCH  17  19
HETATM   19  C   UNL     1      27.571  44.358  52.725  1.00  0.00     0.052 C 
BRANCH  19  20
HETATM   20  C   UNL     1      28.588  44.296  53.841  1.00  0.00    -0.057 A 
HETATM   21  C   UNL     1      29.562  43.295  53.940  1.00  0.00     0.007 A 
HETATM   22  C   UNL     1      30.511  43.322  54.966  1.00  0.00     0.001 A 
HETATM   23  C   UNL     1      30.508  44.357  55.898  1.00  0.00     0.000 A 
HETATM   24  C   UNL     1      29.557  45.368  55.806  1.00  0.00     0.001 A 
HETATM   25  C   UNL     1      28.607  45.339  54.784  1.00  0.00     0.007 A 
ENDBRANCH  19  20
ENDBRANCH  17  19
ENDBRANCH   1  17
TORSDOF 5
ENDMDL
MODEL 5
REMARK VINA RESULT:      -8.4      3.354      5.497
REMARK  5 active torsions:
REMARK  status: ('A' for Active; 'I' for Inactive)
REMARK    1  A    between atoms: C_2  and  C_3 
REMARK    2  A    between atoms: C_2  and  C_18 
REMARK       I    between atoms: C_3  and  N_4 
REMARK    3  A    between atoms: N_4  and  C_5 
REMARK    4  A    between atoms: C_7  and  C_8 
REMARK    5  A    between atoms: C_18  and  C_19 
ROOT
HETATM    1  C   UNL     1      27.135  45.316  54.399  1.00  0.00     0.226 C 
HETATM    2  N   UNL     1      27.076  45.207  53.024  1.00  0.00    -0.327 N 
HETATM    3  O   UNL     1      26.639  44.520  55.197  1.00  0.00    -0.273 OA
HETATM    4  H   UNL     1      27.283  46.037  52.485  1.00  0.00     0.169 HD
ENDROOT
BRANCH   2   5
HETATM    5  C   UNL     1      26.620  44.100  52.277  1.00  0.00     0.035 A 
HETATM    6  C   UNL     1      27.393  42.962  52.025  1.00  0.00     0.042 A 
HETATM    7  C   UNL     1      26.906  41.919  51.218  1.00  0.00    -0.021 A 
HETATM    8  C   UNL     1      25.619  42.026  50.675  1.00  0.00     0.012 A 
HETATM    9  C   UNL     1      24.839  43.154  50.925  1.00  0.00     0.003 A 
HETATM   10  C   UNL     1      25.340  44.189  51.715  1.00  0.00     0.029 A 
BRANCH   7  11
HETATM   11  C   UNL     1      27.725  40.756  50.919  1.00  0.00     0.010 A 
HETATM   12  C   UNL     1      27.704  39.868  49.817  1.00  0.00     0.152 A 
HETATM   13  N   UNL     1      28.626  38.905  49.908  1.00  0.00    -0.187 NA
HETATM   14  N   UNL     1      29.243  39.175  51.071  1.00  0.00    -0.289 N 
HETATM   15  H   UNL     1      30.000  38.567  51.365  1.00  0.00     0.188 HD
HETATM   16  C   UNL     1      28.740  40.268  51.713  1.00  0.00     0.123 A 
ENDBRANCH   7  11
ENDBRANCH   2   5
BRANCH   1  17
HETATM   17  C   UNL     1      27.987  46.473  54.929  1.00  0.00     0.078 C 
HETATM   18  C   UNL     1      27.201  47.771  54.725  1.00  0.00     0.020 C 
BRANCH  17  19
HETATM   19  C   UNL     1      28.449  46.365  56.391  1.00  0.00     0.052 C 
BRANCH  19  20
HETATM   20  C   UNL     1      29.641  45.490  56.705  1.00  0.00    -0.057 A 
HETATM   21  C   UNL     1      30.294  45.495  57.943  1.00  0.00     0.007 A 
HETATM   22  C   UNL     1      31.357  44.622  58.191  1.00  0.00     0.001 A 
HETATM   23  C   UNL     1      31.772  43.724  57.211  1.00  0.00     0.000 A 
HETATM   24  C   UNL     1      31.125  43.696  55.980  1.00  0.00     0.001 A 
HETATM   25  C   UNL     1      30.066  44.570  55.730  1.00  0.00     0.007 A 
ENDBRANCH  19  20
ENDBRANCH  17  19
ENDBRANCH   1  17
TORSDOF 5
ENDMDL
MODEL 6
REMARK VINA RESULT:      -8.2      2.506      3.638
REMARK  5 active torsions:
REMARK  status: ('A' for Active; 'I' for Inactive)
REMARK    1  A    between atoms: C_2  and  C_3 
REMARK    2  A    between atoms: C_2  and  C_18 
REMARK       I    between atoms: C_3  and  N_4 
REMARK    3  A    between atoms: N_4  and  C_5 
REMARK    4  A    between atoms: C_7  and  C_8 
REMARK    5  A    between atoms: C_18  and  C_19 
ROOT
HETATM    1  C   UNL     1      27.505  43.720  52.592  1.00  0.00     0.226 C 
HETATM    2  N   UNL     1      26.230  44.222  52.762  1.00  0.00    -0.327 N 
HETATM    3  O   UNL     1      28.123  43.695  51.528  1.00  0.00    -0.273 OA
HETATM    4  H   UNL     1      25.736  43.954  53.602  1.00  0.00     0.169 HD
ENDROOT
BRANCH   2   5
HETATM    5  C   UNL     1      25.476  44.961  51.826  1.00  0.00     0.035 A 
HETATM    6  C   UNL     1      24.573  44.383  50.927  1.00  0.00     0.042 A 
HETATM    7  C   UNL     1      23.899  45.166  49.973  1.00  0.00    -0.021 A 
HETATM    8  C   UNL     1      24.132  46.547  49.942  1.00  0.00     0.012 A 
HETATM    9  C   UNL     1      25.026  47.132  50.838  1.00  0.00     0.003 A 
HETATM   10  C   UNL     1      25.701  46.342  51.769  1.00  0.00     0.029 A 
BRANCH   7  11
HETATM   11  C   UNL     1      22.995  44.561  49.010  1.00  0.00     0.010 A 
HETATM   12  C   UNL     1      21.630  44.815  48.735  1.00  0.00     0.152 A 
HETATM   13  N   UNL     1      21.141  44.037  47.765  1.00  0.00    -0.187 NA
HETATM   14  N   UNL     1      22.194  43.281  47.413  1.00  0.00    -0.289 N 
HETATM   15  H   UNL     1      22.069  42.596  46.676  1.00  0.00     0.188 HD
HETATM   16  C   UNL     1      23.324  43.554  48.128  1.00  0.00     0.123 A 
ENDBRANCH   7  11
ENDBRANCH   2   5
BRANCH   1  17
HETATM   17  C   UNL     1      28.208  43.269  53.876  1.00  0.00     0.078 C 
HETATM   18  C   UNL     1      28.060  41.749  53.988  1.00  0.00     0.020 C 
BRANCH  17  19
HETATM   19  C   UNL     1      29.687  43.663  54.018  1.00  0.00     0.052 C 
BRANCH  19  20
HETATM   20  C   UNL     1      30.193  44.077  55.381  1.00  0.00    -0.057 A 
HETATM   21  C   UNL     1      29.781  45.246  56.032  1.00  0.00     0.007 A 
HETATM   22  C   UNL     1      30.243  45.547  57.316  1.00  0.00     0.001 A 
HETATM   23  C   UNL     1      31.112  44.678  57.972  1.00  0.00     0.000 A 
HETATM   24  C   UNL     1      31.520  43.505  57.345  1.00  0.00     0.001 A 
HETATM   25  C   UNL     1      31.062  43.205  56.061  1.00  0.00     0.007 A 
ENDBRANCH  19  20
ENDBRANCH  17  19
ENDBRANCH   1  17
TORSDOF 5
ENDMDL
MODEL 7
REMARK VINA RESULT:      -8.1      4.013      6.881
REMARK  5 active torsions:
REMARK  status: ('A' for Active; 'I' for Inactive)
REMARK    1  A    between atoms: C_2  and  C_3 
REMARK    2  A    between atoms: C_2  and  C_18 
REMARK       I    between atoms: C_3  and  N_4 
REMARK    3  A    between atoms: N_4  and  C_5 
REMARK    4  A    between atoms: C_7  and  C_8 
REMARK    5  A    between atoms: C_18  and  C_19 
ROOT
HETATM    1  C   UNL     1      26.413  43.773  51.524  1.00  0.00     0.226 C 
HETATM    2  N   UNL     1      27.478  43.225  50.837  1.00  0.00    -0.327 N 
HETATM    3  O   UNL     1      25.251  43.371  51.470  1.00  0.00    -0.273 OA
HETATM    4  H   UNL     1      28.314  43.788  50.755  1.00  0.00     0.169 HD
ENDROOT
BRANCH   2   5
HETATM    5  C   UNL     1      27.491  42.015  50.111  1.00  0.00     0.035 A 
HETATM    6  C   UNL     1      28.011  40.816  50.608  1.00  0.00     0.042 A 
HETATM    7  C   UNL     1      28.053  39.659  49.811  1.00  0.00    -0.021 A 
HETATM    8  C   UNL     1      27.552  39.717  48.505  1.00  0.00     0.012 A 
HETATM    9  C   UNL     1      27.027  40.906  48.002  1.00  0.00     0.003 A 
HETATM   10  C   UNL     1      27.005  42.052  48.798  1.00  0.00     0.029 A 
BRANCH   7  11
HETATM   11  C   UNL     1      28.634  38.423  50.311  1.00  0.00     0.010 A 
HETATM   12  C   UNL     1      29.873  38.174  50.946  1.00  0.00     0.152 A 
HETATM   13  N   UNL     1      30.049  36.886  51.258  1.00  0.00    -0.187 NA
HETATM   14  N   UNL     1      28.918  36.306  50.823  1.00  0.00    -0.289 N 
HETATM   15  H   UNL     1      28.812  35.305  50.951  1.00  0.00     0.188 HD
HETATM   16  C   UNL     1      28.043  37.180  50.248  1.00  0.00     0.123 A 
ENDBRANCH   7  11
ENDBRANCH   2   5
BRANCH   1  17
HETATM   17  C   UNL     1      26.771  44.897  52.500  1.00  0.00     0.078 C 
HETATM   18  C   UNL     1      25.734  46.011  52.340  1.00  0.00     0.020 C 
BRANCH  17  19
HETATM   19  C   UNL     1      26.891  44.502  53.981  1.00  0.00     0.052 C 
BRANCH  19  20
HETATM   20  C   UNL     1      28.272  44.288  54.558  1.00  0.00    -0.057 A 
HETATM   21  C   UNL     1      29.102  43.222  54.193  1.00  0.00     0.007 A 
HETATM   22  C   UNL     1      30.391  43.110  54.721  1.00  0.00     0.001 A 
HETATM   23  C   UNL     1      30.872  44.067  55.611  1.00  0.00     0.000 A 
HETATM   24  C   UNL     1      30.065  45.141  55.974  1.00  0.00     0.001 A 
HETATM   25  C   UNL     1      28.777  45.252  55.449  1.00  0.00     0.007 A 
ENDBRANCH  19  20
ENDBRANCH  17  19
ENDBRANCH   1  17
TORSDOF 5
ENDMDL
MODEL 8
REMARK VINA RESULT:      -8.1      1.789      2.355
REMARK  5 active torsions:
REMARK  status: ('A' for Active; 'I' for Inactive)
REMARK    1  A    between atoms: C_2  and  C_3 
REMARK    2  A    between atoms: C_2  and  C_18 
REMARK       I    between atoms: C_3  and  N_4 
REMARK    3  A    between atoms: N_4  and  C_5 
REMARK    4  A    between atoms: C_7  and  C_8 
REMARK    5  A    between atoms: C_18  and  C_19 
ROOT
HETATM    1  C   UNL     1      26.445  44.898  51.813  1.00  0.00     0.226 C 
HETATM    2  N   UNL     1      25.096  45.188  51.758  1.00  0.00    -0.327 N 
HETATM    3  O   UNL     1      27.205  44.865  50.845  1.00  0.00    -0.273 OA
HETATM    4  H   UNL     1      24.535  44.930  52.558  1.00  0.00     0.169 HD
ENDROOT
BRANCH   2   5
HETATM    5  C   UNL     1      24.377  45.680  50.648  1.00  0.00     0.035 A 
HETATM    6  C   UNL     1      24.355  47.027  50.272  1.00  0.00     0.042 A 
HETATM    7  C   UNL     1      23.566  47.466  49.194  1.00  0.00    -0.021 A 
HETATM    8  C   UNL     1      22.805  46.529  48.485  1.00  0.00     0.012 A 
HETATM    9  C   UNL     1      22.824  45.183  48.849  1.00  0.00     0.003 A 
HETATM   10  C   UNL     1      23.599  44.763  49.930  1.00  0.00     0.029 A 
BRANCH   7  11
HETATM   11  C   UNL     1      23.509  48.872  48.830  1.00  0.00     0.010 A 
HETATM   12  C   UNL     1      24.360  49.652  48.012  1.00  0.00     0.152 A 
HETATM   13  N   UNL     1      23.971  50.927  47.923  1.00  0.00    -0.187 NA
HETATM   14  N   UNL     1      22.864  50.968  48.684  1.00  0.00    -0.289 N 
HETATM   15  H   UNL     1      22.376  51.852  48.775  1.00  0.00     0.188 HD
HETATM   16  C   UNL     1      22.548  49.767  49.250  1.00  0.00     0.123 A 
ENDBRANCH   7  11
ENDBRANCH   2   5
BRANCH   1  17
HETATM   17  C   UNL     1      27.019  44.716  53.221  1.00  0.00     0.078 C 
HETATM   18  C   UNL     1      25.901  44.188  54.124  1.00  0.00     0.020 C 
BRANCH  17  19
HETATM   19  C   UNL     1      28.258  43.813  53.341  1.00  0.00     0.052 C 
BRANCH  19  20
HETATM   20  C   UNL     1      29.174  44.004  54.527  1.00  0.00    -0.057 A 
HETATM   21  C   UNL     1      30.158  43.079  54.896  1.00  0.00     0.007 A 
HETATM   22  C   UNL     1      31.012  43.338  55.972  1.00  0.00     0.001 A 
HETATM   23  C   UNL     1      30.904  44.531  56.683  1.00  0.00     0.000 A 
HETATM   24  C   UNL     1      29.942  45.468  56.320  1.00  0.00     0.001 A 
HETATM   25  C   UNL     1      29.086  45.208  55.249  1.00  0.00     0.007 A 
ENDBRANCH  19  20
ENDBRANCH  17  19
ENDBRANCH   1  17
TORSDOF 5
ENDMDL
MODEL 9
REMARK VINA RESULT:      -7.8      2.702      8.072
REMARK  5 active torsions:
REMARK  status: ('A' for Active; 'I' for Inactive)
REMARK    1  A    between atoms: C_2  and  C_3 
REMARK    2  A    between atoms: C_2  and  C_18 
REMARK       I    between atoms: C_3  and  N_4 
REMARK    3  A    between atoms: N_4  and  C_5 
REMARK    4  A    between atoms: C_7  and  C_8 
REMARK    5  A    between atoms: C_18  and  C_19 
ROOT
HETATM    1  C   UNL     1      25.752  45.857  52.292  1.00  0.00     0.226 C 
HETATM    2  N   UNL     1      26.811  45.220  52.908  1.00  0.00    -0.327 N 
HETATM    3  O   UNL     1      25.128  46.811  52.758  1.00  0.00    -0.273 OA
HETATM    4  H   UNL     1      27.065  44.306  52.561  1.00  0.00     0.169 HD
ENDROOT
BRANCH   2   5
HETATM    5  C   UNL     1      27.498  45.639  54.068  1.00  0.00     0.035 A 
HETATM    6  C   UNL     1      28.566  44.936  54.633  1.00  0.00     0.042 A 
HETATM    7  C   UNL     1      29.169  45.371  55.827  1.00  0.00    -0.021 A 
HETATM    8  C   UNL     1      28.691  46.534  56.443  1.00  0.00     0.012 A 
HETATM    9  C   UNL     1      27.630  47.245  55.883  1.00  0.00     0.003 A 
HETATM   10  C   UNL     1      27.031  46.794  54.707  1.00  0.00     0.029 A 
BRANCH   7  11
HETATM   11  C   UNL     1      30.250  44.617  56.440  1.00  0.00     0.010 A 
HETATM   12  C   UNL     1      30.880  44.760  57.699  1.00  0.00     0.152 A 
HETATM   13  N   UNL     1      31.851  43.864  57.899  1.00  0.00    -0.187 NA
HETATM   14  N   UNL     1      31.845  43.142  56.767  1.00  0.00    -0.289 N 
HETATM   15  H   UNL     1      32.511  42.382  56.678  1.00  0.00     0.188 HD
HETATM   16  C   UNL     1      30.909  43.553  55.863  1.00  0.00     0.123 A 
ENDBRANCH   7  11
ENDBRANCH   2   5
BRANCH   1  17
HETATM   17  C   UNL     1      25.433  45.375  50.874  1.00  0.00     0.078 C 
HETATM   18  C   UNL     1      24.572  44.114  50.985  1.00  0.00     0.020 C 
BRANCH  17  19
HETATM   19  C   UNL     1      24.752  46.394  49.945  1.00  0.00     0.052 C 
BRANCH  19  20
HETATM   20  C   UNL     1      25.534  47.616  49.523  1.00  0.00    -0.057 A 
HETATM   21  C   UNL     1      26.932  47.675  49.530  1.00  0.00     0.007 A 
HETATM   22  C   UNL     1      27.600  48.816  49.075  1.00  0.00     0.001 A 
HETATM   23  C   UNL     1      26.879  49.907  48.595  1.00  0.00     0.000 A 
HETATM   24  C   UNL     1      25.489  49.859  48.567  1.00  0.00     0.001 A 
HETATM   25  C   UNL     1      24.822  48.722  49.024  1.00  0.00     0.007 A 
ENDBRANCH  19  20
ENDBRANCH  17  19
ENDBRANCH   1  17
TORSDOF 5
ENDMDL
MODEL 10
REMARK VINA RESULT:      -7.8      5.227     10.623
REMARK  5 active torsions:
REMARK  status: ('A' for Active; 'I' for Inactive)
REMARK    1  A    between atoms: C_2  and  C_3 
REMARK    2  A    between atoms: C_2  and  C_18 
REMARK       I    between atoms: C_3  and  N_4 
REMARK    3  A    between atoms: N_4  and  C_5 
REMARK    4  A    between atoms: C_7  and  C_8 
REMARK    5  A    between atoms: C_18  and  C_19 
ROOT
HETATM    1  C   UNL     1      21.989  48.950  47.895  1.00  0.00     0.226 C 
HETATM    2  N   UNL     1      22.966  49.570  48.649  1.00  0.00    -0.327 N 
HETATM    3  O   UNL     1      22.170  47.987  47.149  1.00  0.00    -0.273 OA
HETATM    4  H   UNL     1      22.757  50.492  49.008  1.00  0.00     0.169 HD
ENDROOT
BRANCH   2   5
HETATM    5  C   UNL     1      24.287  49.122  48.864  1.00  0.00     0.035 A 
HETATM    6  C   UNL     1      24.608  47.982  49.609  1.00  0.00     0.042 A 
HETATM    7  C   UNL     1      25.948  47.624  49.842  1.00  0.00    -0.021 A 
HETATM    8  C   UNL     1      26.966  48.420  49.304  1.00  0.00     0.012 A 
HETATM    9  C   UNL     1      26.655  49.555  48.556  1.00  0.00     0.003 A 
HETATM   10  C   UNL     1      25.322  49.908  48.345  1.00  0.00     0.029 A 
BRANCH   7  11
HETATM   11  C   UNL     1      26.284  46.465  50.653  1.00  0.00     0.010 A 
HETATM   12  C   UNL     1      26.819  45.206  50.291  1.00  0.00     0.152 A 
HETATM   13  N   UNL     1      26.985  44.391  51.337  1.00  0.00    -0.187 NA
HETATM   14  N   UNL     1      26.557  45.129  52.375  1.00  0.00    -0.289 N 
HETATM   15  H   UNL     1      26.587  44.716  53.302  1.00  0.00     0.188 HD
HETATM   16  C   UNL     1      26.126  46.373  52.019  1.00  0.00     0.123 A 
ENDBRANCH   7  11
ENDBRANCH   2   5
BRANCH   1  17
HETATM   17  C   UNL     1      20.564  49.466  48.117  1.00  0.00     0.078 C 
HETATM   18  C   UNL     1      20.002  48.781  49.365  1.00  0.00     0.020 C 
BRANCH  17  19
HETATM   19  C   UNL     1      20.403  50.990  48.238  1.00  0.00     0.052 C 
BRANCH  19  20
HETATM   20  C   UNL     1      19.010  51.555  48.399  1.00  0.00    -0.057 A 
HETATM   21  C   UNL     1      18.032  51.488  47.400  1.00  0.00     0.007 A 
HETATM   22  C   UNL     1      16.744  51.980  47.629  1.00  0.00     0.001 A 
HETATM   23  C   UNL     1      16.412  52.532  48.864  1.00  0.00     0.000 A 
HETATM   24  C   UNL     1      17.368  52.592  49.873  1.00  0.00     0.001 A 
HETATM   25  C   UNL     1      18.655  52.105  49.644  1.00  0.00     0.007 A 
ENDBRANCH  19  20
ENDBRANCH  17  19
ENDBRANCH   1  17
TORSDOF 5
ENDMDL
