MODEL 1
REMARK VINA RESULT:      -9.1      0.000      0.000
REMARK  10 active torsions:
REMARK  status: ('A' for Active; 'I' for Inactive)
REMARK    1  A    between atoms: C_2  and  N_3 
REMARK    2  A    between atoms: N_3  and  C_5 
REMARK    3  A    between atoms: N_3  and  C_34 
REMARK    4  A    between atoms: C_5  and  C_6 
REMARK    5  A    between atoms: C_6  and  C_7 
REMARK    6  A    between atoms: C_7  and  N_8 
REMARK       I    between atoms: N_8  and  C_9 
REMARK    7  A    between atoms: C_9  and  C_10 
REMARK    8  A    between atoms: N_16  and  C_17 
REMARK    9  A    between atoms: C_17  and  C_18 
REMARK       I    between atoms: C_18  and  N_19 
REMARK   10  A    between atoms: N_19  and  C_20 
ROOT
HETATM    1  C   UNL     1      22.906  45.926  49.011  1.00  0.00     0.081 A 
HETATM    2  S   UNL     1      22.414  44.287  49.100  1.00  0.00    -0.063 SA
HETATM    3  C   UNL     1      23.873  43.814  49.829  1.00  0.00     0.116 A 
HETATM    4  C   UNL     1      24.738  44.875  49.991  1.00  0.00     0.075 A 
HETATM    5  C   UNL     1      26.057  44.581  50.536  1.00  0.00     0.262 A 
HETATM    6  O   UNL     1      26.918  45.442  50.697  1.00  0.00    -0.267 OA
HETATM    7  N   UNL     1      26.273  43.232  50.805  1.00  0.00    -0.299 N 
HETATM    8  C   UNL     1      25.274  42.289  50.642  1.00  0.00     0.214 A 
HETATM    9  N   UNL     1      24.094  42.520  50.163  1.00  0.00    -0.235 NA
HETATM   10  C   UNL     1      24.166  46.130  49.559  1.00  0.00    -0.021 A 
HETATM   11  C   UNL     1      24.862  47.454  49.631  1.00  0.00     0.051 C 
ENDROOT
BRANCH   1  12
HETATM   12  C   UNL     1      21.987  46.894  48.443  1.00  0.00     0.259 C 
HETATM   13  N   UNL     1      20.822  47.077  49.166  1.00  0.00    -0.356 N 
HETATM   14  H   UNL     1      20.668  46.470  49.966  1.00  0.00     0.162 HD
HETATM   15  O   UNL     1      22.205  47.543  47.423  1.00  0.00    -0.267 OA
BRANCH  13  16
HETATM   16  C   UNL     1      19.773  47.977  48.741  1.00  0.00     0.124 C 
BRANCH  16  17
HETATM   17  C   UNL     1      18.904  48.442  49.912  1.00  0.00     0.047 C 
BRANCH  17  18
HETATM   18  C   UNL     1      19.307  49.828  50.413  1.00  0.00     0.236 C 
BRANCH  18  19
HETATM   19  N   UNL     1      20.275  50.540  49.475  1.00  0.00    -0.072 N 
HETATM   20  H   UNL     1      20.438  49.866  48.713  1.00  0.00     0.279 HD
BRANCH  19  21
HETATM   21  C   UNL     1      21.652  50.817  50.059  1.00  0.00     0.230 C 
HETATM   22  C   UNL     1      22.733  50.804  48.994  1.00  0.00     0.034 C 
ENDBRANCH  19  21
BRANCH  19  23
HETATM   23  C   UNL     1      19.723  51.784  48.801  1.00  0.00     0.230 C 
HETATM   24  C   UNL     1      18.485  52.300  49.509  1.00  0.00     0.034 C 
ENDBRANCH  19  23
ENDBRANCH  18  19
ENDBRANCH  17  18
ENDBRANCH  16  17
ENDBRANCH  13  16
ENDBRANCH   1  12
BRANCH   7  25
HETATM   25  C   UNL     1      27.591  42.817  51.252  1.00  0.00     0.236 C 
BRANCH  25  26
HETATM   26  C   UNL     1      27.761  42.992  52.765  1.00  0.00     0.240 C 
HETATM   27  N   UNL     1      28.513  44.113  53.079  1.00  0.00    -0.326 N 
HETATM   28  H   UNL     1      28.699  44.771  52.330  1.00  0.00     0.169 HD
HETATM   29  O   UNL     1      27.336  42.153  53.553  1.00  0.00    -0.271 OA
BRANCH  27  30
HETATM   30  C   UNL     1      29.036  44.478  54.338  1.00  0.00     0.036 A 
HETATM   31  C   UNL     1      30.053  43.789  54.997  1.00  0.00     0.053 A 
HETATM   32  C   UNL     1      30.541  44.253  56.227  1.00  0.00     0.042 A 
HETATM   33 CL   UNL     1      31.817  43.358  56.977  1.00  0.00    -0.084 Cl
HETATM   34  C   UNL     1      30.019  45.412  56.821  1.00  0.00    -0.040 A 
HETATM   35  C   UNL     1      30.537  45.943  58.129  1.00  0.00     0.050 C 
HETATM   36  C   UNL     1      28.993  46.094  56.157  1.00  0.00     0.011 A 
HETATM   37  C   UNL     1      28.508  45.633  54.931  1.00  0.00     0.030 A 
ENDBRANCH  27  30
ENDBRANCH  25  26
ENDBRANCH   7  25
TORSDOF 10
ENDMDL
MODEL 2
REMARK VINA RESULT:      -8.6      1.354      2.145
REMARK  10 active torsions:
REMARK  status: ('A' for Active; 'I' for Inactive)
REMARK    1  A    between atoms: C_2  and  N_3 
REMARK    2  A    between atoms: N_3  and  C_5 
REMARK    3  A    between atoms: N_3  and  C_34 
REMARK    4  A    between atoms: C_5  and  C_6 
REMARK    5  A    between atoms: C_6  and  C_7 
REMARK    6  A    between atoms: C_7  and  N_8 
REMARK       I    between atoms: N_8  and  C_9 
REMARK    7  A    between atoms: C_9  and  C_10 
REMARK    8  A    between atoms: N_16  and  C_17 
REMARK    9  A    between atoms: C_17  and  C_18 
REMARK       I    between atoms: C_18  and  N_19 
REMARK   10  A    between atoms: N_19  and  C_20 
ROOT
HETATM    1  C   UNL     1      22.777  46.499  48.750  1.00  0.00     0.081 A 
HETATM    2  S   UNL     1      23.771  47.663  49.520  1.00  0.00    -0.063 SA
HETATM    3  C   UNL     1      24.807  46.471  50.142  1.00  0.00     0.116 A 
HETATM    4  C   UNL     1      24.404  45.200  49.792  1.00  0.00     0.075 A 
HETATM    5  C   UNL     1      25.170  44.085  50.334  1.00  0.00     0.262 A 
HETATM    6  O   UNL     1      24.884  42.911  50.113  1.00  0.00    -0.267 OA
HETATM    7  N   UNL     1      26.218  44.468  51.167  1.00  0.00    -0.299 N 
HETATM    8  C   UNL     1      26.535  45.798  51.373  1.00  0.00     0.214 A 
HETATM    9  N   UNL     1      25.874  46.809  50.905  1.00  0.00    -0.235 NA
HETATM   10  C   UNL     1      23.240  45.203  48.936  1.00  0.00    -0.021 A 
HETATM   11  C   UNL     1      22.586  43.975  48.381  1.00  0.00     0.051 C 
ENDROOT
BRANCH   1  12
HETATM   12  C   UNL     1      21.635  46.963  47.984  1.00  0.00     0.259 C 
HETATM   13  N   UNL     1      20.510  47.244  48.738  1.00  0.00    -0.356 N 
HETATM   14  H   UNL     1      20.544  47.022  49.729  1.00  0.00     0.162 HD
HETATM   15  O   UNL     1      21.640  47.139  46.768  1.00  0.00    -0.267 OA
BRANCH  13  16
HETATM   16  C   UNL     1      19.267  47.687  48.149  1.00  0.00     0.124 C 
BRANCH  16  17
HETATM   17  C   UNL     1      18.564  48.738  49.012  1.00  0.00     0.047 C 
BRANCH  17  18
HETATM   18  C   UNL     1      19.412  49.164  50.208  1.00  0.00     0.236 C 
BRANCH  18  19
HETATM   19  N   UNL     1      19.860  50.620  50.130  1.00  0.00    -0.072 N 
HETATM   20  H   UNL     1      19.627  51.010  51.054  1.00  0.00     0.279 HD
BRANCH  19  21
HETATM   21  C   UNL     1      19.094  51.477  49.134  1.00  0.00     0.230 C 
HETATM   22  C   UNL     1      18.049  52.341  49.816  1.00  0.00     0.034 C 
ENDBRANCH  19  21
BRANCH  19  23
HETATM   23  C   UNL     1      21.356  50.827  49.970  1.00  0.00     0.230 C 
HETATM   24  C   UNL     1      21.753  50.934  48.511  1.00  0.00     0.034 C 
ENDBRANCH  19  23
ENDBRANCH  18  19
ENDBRANCH  17  18
ENDBRANCH  16  17
ENDBRANCH  13  16
ENDBRANCH   1  12
BRANCH   7  25
HETATM   25  C   UNL     1      26.980  43.432  51.842  1.00  0.00     0.236 C 
BRANCH  25  26
HETATM   26  C   UNL     1      27.214  43.768  53.319  1.00  0.00     0.240 C 
HETATM   27  N   UNL     1      28.467  44.322  53.535  1.00  0.00    -0.326 N 
HETATM   28  H   UNL     1      28.992  44.610  52.717  1.00  0.00     0.169 HD
HETATM   29  O   UNL     1      26.388  43.471  54.177  1.00  0.00    -0.271 OA
BRANCH  27  30
HETATM   30  C   UNL     1      29.100  44.569  54.772  1.00  0.00     0.036 A 
HETATM   31  C   UNL     1      30.144  43.802  55.287  1.00  0.00     0.053 A 
HETATM   32  C   UNL     1      30.745  44.152  56.505  1.00  0.00     0.042 A 
HETATM   33 CL   UNL     1      32.047  43.166  57.074  1.00  0.00    -0.084 Cl
HETATM   34  C   UNL     1      30.310  45.272  57.231  1.00  0.00    -0.040 A 
HETATM   35  C   UNL     1      30.948  45.680  58.529  1.00  0.00     0.050 C 
HETATM   36  C   UNL     1      29.256  46.032  56.710  1.00  0.00     0.011 A 
HETATM   37  C   UNL     1      28.660  45.685  55.495  1.00  0.00     0.030 A 
ENDBRANCH  27  30
ENDBRANCH  25  26
ENDBRANCH   7  25
TORSDOF 10
ENDMDL
MODEL 3
REMARK VINA RESULT:      -8.6      3.912     11.046
REMARK  10 active torsions:
REMARK  status: ('A' for Active; 'I' for Inactive)
REMARK    1  A    between atoms: C_2  and  N_3 
REMARK    2  A    between atoms: N_3  and  C_5 
REMARK    3  A    between atoms: N_3  and  C_34 
REMARK    4  A    between atoms: C_5  and  C_6 
REMARK    5  A    between atoms: C_6  and  C_7 
REMARK    6  A    between atoms: C_7  and  N_8 
REMARK       I    between atoms: N_8  and  C_9 
REMARK    7  A    between atoms: C_9  and  C_10 
REMARK    8  A    between atoms: N_16  and  C_17 
REMARK    9  A    between atoms: C_17  and  C_18 
REMARK       I    between atoms: C_18  and  N_19 
REMARK   10  A    between atoms: N_19  and  C_20 
ROOT
HETATM    1  C   UNL     1      25.227  44.617  51.899  1.00  0.00     0.081 A 
HETATM    2  S   UNL     1      24.378  43.638  50.777  1.00  0.00    -0.063 SA
HETATM    3  C   UNL     1      23.888  44.983  49.865  1.00  0.00     0.116 A 
HETATM    4  C   UNL     1      24.341  46.167  50.404  1.00  0.00     0.075 A 
HETATM    5  C   UNL     1      23.918  47.401  49.752  1.00  0.00     0.262 A 
HETATM    6  O   UNL     1      24.237  48.514  50.163  1.00  0.00    -0.267 OA
HETATM    7  N   UNL     1      23.079  47.206  48.659  1.00  0.00    -0.299 N 
HETATM    8  C   UNL     1      22.761  45.940  48.202  1.00  0.00     0.214 A 
HETATM    9  N   UNL     1      23.122  44.829  48.758  1.00  0.00    -0.235 NA
HETATM   10  C   UNL     1      25.168  45.967  51.572  1.00  0.00    -0.021 A 
HETATM   11  C   UNL     1      25.815  47.064  52.359  1.00  0.00     0.051 C 
ENDROOT
BRANCH   1  12
HETATM   12  C   UNL     1      25.922  43.970  52.995  1.00  0.00     0.259 C 
HETATM   13  N   UNL     1      27.070  43.290  52.628  1.00  0.00    -0.356 N 
HETATM   14  H   UNL     1      27.277  43.224  51.636  1.00  0.00     0.162 HD
HETATM   15  O   UNL     1      25.571  44.027  54.171  1.00  0.00    -0.267 OA
BRANCH  13  16
HETATM   16  C   UNL     1      27.879  42.557  53.576  1.00  0.00     0.124 C 
BRANCH  16  17
HETATM   17  C   UNL     1      29.238  43.222  53.808  1.00  0.00     0.047 C 
BRANCH  17  18
HETATM   18  C   UNL     1      29.129  44.460  54.696  1.00  0.00     0.236 C 
BRANCH  18  19
HETATM   19  N   UNL     1      29.930  44.336  55.988  1.00  0.00    -0.072 N 
HETATM   20  H   UNL     1      29.277  43.898  56.654  1.00  0.00     0.279 HD
BRANCH  19  21
HETATM   21  C   UNL     1      30.326  45.656  56.631  1.00  0.00     0.230 C 
HETATM   22  C   UNL     1      29.377  46.051  57.747  1.00  0.00     0.034 C 
ENDBRANCH  19  21
BRANCH  19  23
HETATM   23  C   UNL     1      31.123  43.398  55.920  1.00  0.00     0.230 C 
HETATM   24  C   UNL     1      31.900  43.387  57.221  1.00  0.00     0.034 C 
ENDBRANCH  19  23
ENDBRANCH  18  19
ENDBRANCH  17  18
ENDBRANCH  16  17
ENDBRANCH  13  16
ENDBRANCH   1  12
BRANCH   7  25
HETATM   25  C   UNL     1      22.516  48.373  48.002  1.00  0.00     0.236 C 
BRANCH  25  26
HETATM   26  C   UNL     1      21.079  48.646  48.459  1.00  0.00     0.240 C 
HETATM   27  N   UNL     1      20.617  49.877  48.017  1.00  0.00    -0.326 N 
HETATM   28  H   UNL     1      21.172  50.355  47.316  1.00  0.00     0.169 HD
HETATM   29  O   UNL     1      20.491  47.871  49.206  1.00  0.00    -0.271 OA
BRANCH  27  30
HETATM   30  C   UNL     1      19.433  50.544  48.401  1.00  0.00     0.036 A 
HETATM   31  C   UNL     1      18.158  50.198  47.959  1.00  0.00     0.053 A 
HETATM   32  C   UNL     1      17.033  50.889  48.432  1.00  0.00     0.042 A 
HETATM   33 CL   UNL     1      15.480  50.392  47.855  1.00  0.00    -0.084 Cl
HETATM   34  C   UNL     1      17.165  51.942  49.351  1.00  0.00    -0.040 A 
HETATM   35  C   UNL     1      15.975  52.687  49.888  1.00  0.00     0.050 C 
HETATM   36  C   UNL     1      18.450  52.288  49.783  1.00  0.00     0.011 A 
HETATM   37  C   UNL     1      19.570  51.597  49.314  1.00  0.00     0.030 A 
ENDBRANCH  27  30
ENDBRANCH  25  26
ENDBRANCH   7  25
TORSDOF 10
ENDMDL
MODEL 4
REMARK VINA RESULT:      -8.4      1.458      2.222
REMARK  10 active torsions:
REMARK  status: ('A' for Active; 'I' for Inactive)
REMARK    1  A    between atoms: C_2  and  N_3 
REMARK    2  A    between atoms: N_3  and  C_5 
REMARK    3  A    between atoms: N_3  and  C_34 
REMARK    4  A    between atoms: C_5  and  C_6 
REMARK    5  A    between atoms: C_6  and  C_7 
REMARK    6  A    between atoms: C_7  and  N_8 
REMARK       I    between atoms: N_8  and  C_9 
REMARK    7  A    between atoms: C_9  and  C_10 
REMARK    8  A    between atoms: N_16  and  C_17 
REMARK    9  A    between atoms: C_17  and  C_18 
REMARK       I    between atoms: C_18  and  N_19 
REMARK   10  A    between atoms: N_19  and  C_20 
ROOT
HETATM    1  C   UNL     1      23.160  46.399  48.950  1.00  0.00     0.081 A 
HETATM    2  S   UNL     1      22.443  44.844  48.886  1.00  0.00    -0.063 SA
HETATM    3  C   UNL     1      23.844  44.095  49.486  1.00  0.00     0.116 A 
HETATM    4  C   UNL     1      24.856  45.001  49.719  1.00  0.00     0.075 A 
HETATM    5  C   UNL     1      26.138  44.468  50.162  1.00  0.00     0.262 A 
HETATM    6  O   UNL     1      27.118  45.179  50.371  1.00  0.00    -0.267 OA
HETATM    7  N   UNL     1      26.168  43.081  50.273  1.00  0.00    -0.299 N 
HETATM    8  C   UNL     1      25.041  42.309  50.060  1.00  0.00     0.214 A 
HETATM    9  N   UNL     1      23.890  42.754  49.667  1.00  0.00    -0.235 NA
HETATM   10  C   UNL     1      24.455  46.364  49.453  1.00  0.00    -0.021 A 
HETATM   11  C   UNL     1      25.334  47.563  49.632  1.00  0.00     0.051 C 
ENDROOT
BRANCH   1  12
HETATM   12  C   UNL     1      22.370  47.543  48.535  1.00  0.00     0.259 C 
HETATM   13  N   UNL     1      21.858  48.298  49.575  1.00  0.00    -0.356 N 
HETATM   14  H   UNL     1      21.998  47.949  50.519  1.00  0.00     0.162 HD
HETATM   15  O   UNL     1      22.177  47.867  47.365  1.00  0.00    -0.267 OA
BRANCH  13  16
HETATM   16  C   UNL     1      21.021  49.456  49.359  1.00  0.00     0.124 C 
BRANCH  16  17
HETATM   17  C   UNL     1      19.573  49.207  49.789  1.00  0.00     0.047 C 
BRANCH  17  18
HETATM   18  C   UNL     1      18.574  49.593  48.700  1.00  0.00     0.236 C 
BRANCH  18  19
HETATM   19  N   UNL     1      17.529  50.595  49.181  1.00  0.00    -0.072 N 
HETATM   20  H   UNL     1      17.184  50.201  50.068  1.00  0.00     0.279 HD
BRANCH  19  21
HETATM   21  C   UNL     1      16.298  50.716  48.296  1.00  0.00     0.230 C 
HETATM   22  C   UNL     1      15.625  49.374  48.073  1.00  0.00     0.034 C 
ENDBRANCH  19  21
BRANCH  19  23
HETATM   23  C   UNL     1      18.069  51.970  49.534  1.00  0.00     0.230 C 
HETATM   24  C   UNL     1      18.980  52.508  48.448  1.00  0.00     0.034 C 
ENDBRANCH  19  23
ENDBRANCH  18  19
ENDBRANCH  17  18
ENDBRANCH  16  17
ENDBRANCH  13  16
ENDBRANCH   1  12
BRANCH   7  25
HETATM   25  C   UNL     1      27.428  42.440  50.606  1.00  0.00     0.236 C 
BRANCH  25  26
HETATM   26  C   UNL     1      27.719  42.503  52.110  1.00  0.00     0.240 C 
HETATM   27  N   UNL     1      28.567  43.552  52.433  1.00  0.00    -0.326 N 
HETATM   28  H   UNL     1      28.741  44.245  51.714  1.00  0.00     0.169 HD
HETATM   29  O   UNL     1      27.298  41.642  52.875  1.00  0.00    -0.271 OA
BRANCH  27  30
HETATM   30  C   UNL     1      29.203  43.799  53.669  1.00  0.00     0.036 A 
HETATM   31  C   UNL     1      28.769  44.740  54.601  1.00  0.00     0.053 A 
HETATM   32  C   UNL     1      29.438  44.884  55.826  1.00  0.00     0.042 A 
HETATM   33 CL   UNL     1      28.833  46.059  56.942  1.00  0.00    -0.084 Cl
HETATM   34  C   UNL     1      30.554  44.092  56.137  1.00  0.00    -0.040 A 
HETATM   35  C   UNL     1      31.278  44.212  57.449  1.00  0.00     0.050 C 
HETATM   36  C   UNL     1      30.988  43.155  55.193  1.00  0.00     0.011 A 
HETATM   37  C   UNL     1      30.319  43.010  53.974  1.00  0.00     0.030 A 
ENDBRANCH  27  30
ENDBRANCH  25  26
ENDBRANCH   7  25
TORSDOF 10
ENDMDL
MODEL 5
REMARK VINA RESULT:      -8.4      3.914     10.977
REMARK  10 active torsions:
REMARK  status: ('A' for Active; 'I' for Inactive)
REMARK    1  A    between atoms: C_2  and  N_3 
REMARK    2  A    between atoms: N_3  and  C_5 
REMARK    3  A    between atoms: N_3  and  C_34 
REMARK    4  A    between atoms: C_5  and  C_6 
REMARK    5  A    between atoms: C_6  and  C_7 
REMARK    6  A    between atoms: C_7  and  N_8 
REMARK       I    between atoms: N_8  and  C_9 
REMARK    7  A    between atoms: C_9  and  C_10 
REMARK    8  A    between atoms: N_16  and  C_17 
REMARK    9  A    between atoms: C_17  and  C_18 
REMARK       I    between atoms: C_18  and  N_19 
REMARK   10  A    between atoms: N_19  and  C_20 
ROOT
HETATM    1  C   UNL     1      25.896  44.655  51.729  1.00  0.00     0.081 A 
HETATM    2  S   UNL     1      26.090  46.345  51.944  1.00  0.00    -0.063 SA
HETATM    3  C   UNL     1      24.873  46.700  50.815  1.00  0.00     0.116 A 
HETATM    4  C   UNL     1      24.331  45.560  50.261  1.00  0.00     0.075 A 
HETATM    5  C   UNL     1      23.329  45.738  49.218  1.00  0.00     0.262 A 
HETATM    6  O   UNL     1      22.801  44.794  48.635  1.00  0.00    -0.267 OA
HETATM    7  N   UNL     1      23.065  47.068  48.905  1.00  0.00    -0.299 N 
HETATM    8  C   UNL     1      23.653  48.109  49.599  1.00  0.00     0.214 A 
HETATM    9  N   UNL     1      24.544  47.983  50.530  1.00  0.00    -0.235 NA
HETATM   10  C   UNL     1      24.889  44.350  50.822  1.00  0.00    -0.021 A 
HETATM   11  C   UNL     1      24.484  42.963  50.430  1.00  0.00     0.051 C 
ENDROOT
BRANCH   1  12
HETATM   12  C   UNL     1      26.730  43.759  52.507  1.00  0.00     0.259 C 
HETATM   13  N   UNL     1      27.882  43.340  51.866  1.00  0.00    -0.356 N 
HETATM   14  H   UNL     1      28.002  43.613  50.895  1.00  0.00     0.162 HD
HETATM   15  O   UNL     1      26.485  43.407  53.659  1.00  0.00    -0.267 OA
BRANCH  13  16
HETATM   16  C   UNL     1      28.820  42.421  52.470  1.00  0.00     0.124 C 
BRANCH  16  17
HETATM   17  C   UNL     1      29.909  43.149  53.262  1.00  0.00     0.047 C 
BRANCH  17  18
HETATM   18  C   UNL     1      29.705  43.024  54.771  1.00  0.00     0.236 C 
BRANCH  18  19
HETATM   19  N   UNL     1      30.421  44.116  55.559  1.00  0.00    -0.072 N 
HETATM   20  H   UNL     1      30.966  44.628  54.851  1.00  0.00     0.279 HD
BRANCH  19  21
HETATM   21  C   UNL     1      31.447  43.616  56.565  1.00  0.00     0.230 C 
HETATM   22  C   UNL     1      31.338  44.341  57.893  1.00  0.00     0.034 C 
ENDBRANCH  19  21
BRANCH  19  23
HETATM   23  C   UNL     1      29.512  45.152  56.196  1.00  0.00     0.230 C 
HETATM   24  C   UNL     1      28.910  46.080  55.159  1.00  0.00     0.034 C 
ENDBRANCH  19  23
ENDBRANCH  18  19
ENDBRANCH  17  18
ENDBRANCH  16  17
ENDBRANCH  13  16
ENDBRANCH   1  12
BRANCH   7  25
HETATM   25  C   UNL     1      22.159  47.354  47.806  1.00  0.00     0.236 C 
BRANCH  25  26
HETATM   26  C   UNL     1      20.809  47.880  48.304  1.00  0.00     0.240 C 
HETATM   27  N   UNL     1      20.586  49.192  47.916  1.00  0.00    -0.326 N 
HETATM   28  H   UNL     1      21.213  49.582  47.221  1.00  0.00     0.169 HD
HETATM   29  O   UNL     1      20.093  47.203  49.035  1.00  0.00    -0.271 OA
BRANCH  27  30
HETATM   30  C   UNL     1      19.559  50.059  48.349  1.00  0.00     0.036 A 
HETATM   31  C   UNL     1      18.210  49.895  48.038  1.00  0.00     0.053 A 
HETATM   32  C   UNL     1      17.252  50.781  48.554  1.00  0.00     0.042 A 
HETATM   33 CL   UNL     1      15.595  50.506  48.141  1.00  0.00    -0.084 Cl
HETATM   34  C   UNL     1      17.627  51.848  49.384  1.00  0.00    -0.040 A 
HETATM   35  C   UNL     1      16.620  52.801  49.965  1.00  0.00     0.050 C 
HETATM   36  C   UNL     1      18.985  52.010  49.685  1.00  0.00     0.011 A 
HETATM   37  C   UNL     1      19.938  51.125  49.174  1.00  0.00     0.030 A 
ENDBRANCH  27  30
ENDBRANCH  25  26
ENDBRANCH   7  25
TORSDOF 10
ENDMDL
MODEL 6
REMARK VINA RESULT:      -8.2      2.330      3.621
REMARK  10 active torsions:
REMARK  status: ('A' for Active; 'I' for Inactive)
REMARK    1  A    between atoms: C_2  and  N_3 
REMARK    2  A    between atoms: N_3  and  C_5 
REMARK    3  A    between atoms: N_3  and  C_34 
REMARK    4  A    between atoms: C_5  and  C_6 
REMARK    5  A    between atoms: C_6  and  C_7 
REMARK    6  A    between atoms: C_7  and  N_8 
REMARK       I    between atoms: N_8  and  C_9 
REMARK    7  A    between atoms: C_9  and  C_10 
REMARK    8  A    between atoms: N_16  and  C_17 
REMARK    9  A    between atoms: C_17  and  C_18 
REMARK       I    between atoms: C_18  and  N_19 
REMARK   10  A    between atoms: N_19  and  C_20 
ROOT
HETATM    1  C   UNL     1      22.080  49.036  48.571  1.00  0.00     0.081 A 
HETATM    2  S   UNL     1      23.537  49.706  49.175  1.00  0.00    -0.063 SA
HETATM    3  C   UNL     1      24.196  48.172  49.486  1.00  0.00     0.116 A 
HETATM    4  C   UNL     1      23.324  47.157  49.156  1.00  0.00     0.075 A 
HETATM    5  C   UNL     1      23.747  45.794  49.451  1.00  0.00     0.262 A 
HETATM    6  O   UNL     1      23.040  44.814  49.227  1.00  0.00    -0.267 OA
HETATM    7  N   UNL     1      24.997  45.705  50.058  1.00  0.00    -0.299 N 
HETATM    8  C   UNL     1      25.783  46.823  50.270  1.00  0.00     0.214 A 
HETATM    9  N   UNL     1      25.435  48.044  50.018  1.00  0.00    -0.235 NA
HETATM   10  C   UNL     1      22.096  47.646  48.574  1.00  0.00    -0.021 A 
HETATM   11  C   UNL     1      20.970  46.779  48.102  1.00  0.00     0.051 C 
ENDROOT
BRANCH   1  12
HETATM   12  C   UNL     1      21.047  49.939  48.100  1.00  0.00     0.259 C 
HETATM   13  N   UNL     1      20.776  50.998  48.948  1.00  0.00    -0.356 N 
HETATM   14  H   UNL     1      21.245  51.006  49.849  1.00  0.00     0.162 HD
HETATM   15  O   UNL     1      20.463  49.827  47.025  1.00  0.00    -0.267 OA
BRANCH  13  16
HETATM   16  C   UNL     1      19.758  51.984  48.664  1.00  0.00     0.124 C 
BRANCH  16  17
HETATM   17  C   UNL     1      18.701  52.054  49.769  1.00  0.00     0.047 C 
BRANCH  17  18
HETATM   18  C   UNL     1      17.919  50.749  49.904  1.00  0.00     0.236 C 
BRANCH  18  19
HETATM   19  N   UNL     1      16.660  50.720  49.043  1.00  0.00    -0.072 N 
HETATM   20  H   UNL     1      15.960  50.242  49.628  1.00  0.00     0.279 HD
BRANCH  19  21
HETATM   21  C   UNL     1      16.762  49.878  47.780  1.00  0.00     0.230 C 
HETATM   22  C   UNL     1      17.397  48.526  48.050  1.00  0.00     0.034 C 
ENDBRANCH  19  21
BRANCH  19  23
HETATM   23  C   UNL     1      16.062  52.080  48.730  1.00  0.00     0.230 C 
HETATM   24  C   UNL     1      15.676  52.197  47.268  1.00  0.00     0.034 C 
ENDBRANCH  19  23
ENDBRANCH  18  19
ENDBRANCH  17  18
ENDBRANCH  16  17
ENDBRANCH  13  16
ENDBRANCH   1  12
BRANCH   7  25
HETATM   25  C   UNL     1      25.466  44.400  50.488  1.00  0.00     0.236 C 
BRANCH  25  26
HETATM   26  C   UNL     1      26.074  44.449  51.895  1.00  0.00     0.240 C 
HETATM   27  N   UNL     1      27.459  44.383  51.866  1.00  0.00    -0.326 N 
HETATM   28  H   UNL     1      27.909  44.499  50.965  1.00  0.00     0.169 HD
HETATM   29  O   UNL     1      25.363  44.451  52.895  1.00  0.00    -0.271 OA
BRANCH  27  30
HETATM   30  C   UNL     1      28.338  44.205  52.956  1.00  0.00     0.036 A 
HETATM   31  C   UNL     1      28.344  45.002  54.099  1.00  0.00     0.053 A 
HETATM   32  C   UNL     1      29.223  44.721  55.155  1.00  0.00     0.042 A 
HETATM   33 CL   UNL     1      29.162  45.742  56.550  1.00  0.00    -0.084 Cl
HETATM   34  C   UNL     1      30.115  43.639  55.084  1.00  0.00    -0.040 A 
HETATM   35  C   UNL     1      31.055  43.303  56.208  1.00  0.00     0.050 C 
HETATM   36  C   UNL     1      30.108  42.848  53.929  1.00  0.00     0.011 A 
HETATM   37  C   UNL     1      29.229  43.127  52.880  1.00  0.00     0.030 A 
ENDBRANCH  27  30
ENDBRANCH  25  26
ENDBRANCH   7  25
TORSDOF 10
ENDMDL
MODEL 7
REMARK VINA RESULT:      -7.8      4.427     11.187
REMARK  10 active torsions:
REMARK  status: ('A' for Active; 'I' for Inactive)
REMARK    1  A    between atoms: C_2  and  N_3 
REMARK    2  A    between atoms: N_3  and  C_5 
REMARK    3  A    between atoms: N_3  and  C_34 
REMARK    4  A    between atoms: C_5  and  C_6 
REMARK    5  A    between atoms: C_6  and  C_7 
REMARK    6  A    between atoms: C_7  and  N_8 
REMARK       I    between atoms: N_8  and  C_9 
REMARK    7  A    between atoms: C_9  and  C_10 
REMARK    8  A    between atoms: N_16  and  C_17 
REMARK    9  A    between atoms: C_17  and  C_18 
REMARK       I    between atoms: C_18  and  N_19 
REMARK   10  A    between atoms: N_19  and  C_20 
ROOT
HETATM    1  C   UNL     1      25.989  44.910  51.676  1.00  0.00     0.081 A 
HETATM    2  S   UNL     1      26.104  46.614  51.825  1.00  0.00    -0.063 SA
HETATM    3  C   UNL     1      24.843  46.867  50.718  1.00  0.00     0.116 A 
HETATM    4  C   UNL     1      24.344  45.683  50.220  1.00  0.00     0.075 A 
HETATM    5  C   UNL     1      23.308  45.773  49.199  1.00  0.00     0.262 A 
HETATM    6  O   UNL     1      22.813  44.783  48.665  1.00  0.00    -0.267 OA
HETATM    7  N   UNL     1      22.971  47.076  48.845  1.00  0.00    -0.299 N 
HETATM    8  C   UNL     1      23.525  48.170  49.485  1.00  0.00     0.214 A 
HETATM    9  N   UNL     1      24.444  48.121  50.395  1.00  0.00    -0.235 NA
HETATM   10  C   UNL     1      24.975  44.523  50.808  1.00  0.00    -0.021 A 
HETATM   11  C   UNL     1      24.630  43.104  50.478  1.00  0.00     0.051 C 
ENDROOT
BRANCH   1  12
HETATM   12  C   UNL     1      26.886  44.085  52.463  1.00  0.00     0.259 C 
HETATM   13  N   UNL     1      27.888  43.468  51.737  1.00  0.00    -0.356 N 
HETATM   14  H   UNL     1      27.862  43.566  50.727  1.00  0.00     0.162 HD
HETATM   15  O   UNL     1      26.814  43.949  53.682  1.00  0.00    -0.267 OA
BRANCH  13  16
HETATM   16  C   UNL     1      28.858  42.583  52.343  1.00  0.00     0.124 C 
BRANCH  16  17
HETATM   17  C   UNL     1      28.412  41.119  52.289  1.00  0.00     0.047 C 
BRANCH  17  18
HETATM   18  C   UNL     1      27.837  40.741  50.926  1.00  0.00     0.236 C 
BRANCH  18  19
HETATM   19  N   UNL     1      28.252  39.345  50.473  1.00  0.00    -0.072 N 
HETATM   20  H   UNL     1      27.479  38.736  50.776  1.00  0.00     0.279 HD
BRANCH  19  21
HETATM   21  C   UNL     1      29.489  38.786  51.159  1.00  0.00     0.230 C 
HETATM   22  C   UNL     1      29.733  37.333  50.793  1.00  0.00     0.034 C 
ENDBRANCH  19  21
BRANCH  19  23
HETATM   23  C   UNL     1      28.346  39.156  48.969  1.00  0.00     0.230 C 
HETATM   24  C   UNL     1      28.467  40.484  48.246  1.00  0.00     0.034 C 
ENDBRANCH  19  23
ENDBRANCH  18  19
ENDBRANCH  17  18
ENDBRANCH  16  17
ENDBRANCH  13  16
ENDBRANCH   1  12
BRANCH   7  25
HETATM   25  C   UNL     1      22.025  47.276  47.762  1.00  0.00     0.236 C 
BRANCH  25  26
HETATM   26  C   UNL     1      20.688  47.828  48.269  1.00  0.00     0.240 C 
HETATM   27  N   UNL     1      20.488  49.145  47.884  1.00  0.00    -0.326 N 
HETATM   28  H   UNL     1      21.118  49.524  47.185  1.00  0.00     0.169 HD
HETATM   29  O   UNL     1      19.964  47.164  49.004  1.00  0.00    -0.271 OA
BRANCH  27  30
HETATM   30  C   UNL     1      19.481  50.031  48.324  1.00  0.00     0.036 A 
HETATM   31  C   UNL     1      18.154  49.986  47.899  1.00  0.00     0.053 A 
HETATM   32  C   UNL     1      17.211  50.880  48.429  1.00  0.00     0.042 A 
HETATM   33 CL   UNL     1      15.579  50.753  47.869  1.00  0.00    -0.084 Cl
HETATM   34  C   UNL     1      17.579  51.835  49.388  1.00  0.00    -0.040 A 
HETATM   35  C   UNL     1      16.585  52.791  49.985  1.00  0.00     0.050 C 
HETATM   36  C   UNL     1      18.915  51.879  49.804  1.00  0.00     0.011 A 
HETATM   37  C   UNL     1      19.853  50.987  49.278  1.00  0.00     0.030 A 
ENDBRANCH  27  30
ENDBRANCH  25  26
ENDBRANCH   7  25
TORSDOF 10
ENDMDL
MODEL 8
REMARK VINA RESULT:      -7.5      2.597      3.772
REMARK  10 active torsions:
REMARK  status: ('A' for Active; 'I' for Inactive)
REMARK    1  A    between atoms: C_2  and  N_3 
REMARK    2  A    between atoms: N_3  and  C_5 
REMARK    3  A    between atoms: N_3  and  C_34 
REMARK    4  A    between atoms: C_5  and  C_6 
REMARK    5  A    between atoms: C_6  and  C_7 
REMARK    6  A    between atoms: C_7  and  N_8 
REMARK       I    between atoms: N_8  and  C_9 
REMARK    7  A    between atoms: C_9  and  C_10 
REMARK    8  A    between atoms: N_16  and  C_17 
REMARK    9  A    between atoms: C_17  and  C_18 
REMARK       I    between atoms: C_18  and  N_19 
REMARK   10  A    between atoms: N_19  and  C_20 
ROOT
HETATM    1  C   UNL     1      20.108  47.250  47.689  1.00  0.00     0.081 A 
HETATM    2  S   UNL     1      19.723  45.582  47.613  1.00  0.00    -0.063 SA
HETATM    3  C   UNL     1      21.206  45.135  48.308  1.00  0.00     0.116 A 
HETATM    4  C   UNL     1      21.999  46.228  48.583  1.00  0.00     0.075 A 
HETATM    5  C   UNL     1      23.332  45.967  49.111  1.00  0.00     0.262 A 
HETATM    6  O   UNL     1      24.135  46.863  49.365  1.00  0.00    -0.267 OA
HETATM    7  N   UNL     1      23.634  44.615  49.250  1.00  0.00    -0.299 N 
HETATM    8  C   UNL     1      22.700  43.631  48.986  1.00  0.00     0.214 A 
HETATM    9  N   UNL     1      21.509  43.832  48.517  1.00  0.00    -0.235 NA
HETATM   10  C   UNL     1      21.350  47.480  48.268  1.00  0.00    -0.021 A 
HETATM   11  C   UNL     1      21.958  48.833  48.476  1.00  0.00     0.051 C 
ENDROOT
BRANCH   1  12
HETATM   12  C   UNL     1      19.131  48.208  47.206  1.00  0.00     0.259 C 
HETATM   13  N   UNL     1      17.818  47.894  47.508  1.00  0.00    -0.356 N 
HETATM   14  H   UNL     1      17.642  46.997  47.952  1.00  0.00     0.162 HD
HETATM   15  O   UNL     1      19.411  49.243  46.606  1.00  0.00    -0.267 OA
BRANCH  13  16
HETATM   16  C   UNL     1      16.704  48.711  47.084  1.00  0.00     0.124 C 
BRANCH  16  17
HETATM   17  C   UNL     1      16.189  49.612  48.211  1.00  0.00     0.047 C 
BRANCH  17  18
HETATM   18  C   UNL     1      16.756  51.027  48.121  1.00  0.00     0.236 C 
BRANCH  18  19
HETATM   19  N   UNL     1      17.172  51.587  49.478  1.00  0.00    -0.072 N 
HETATM   20  H   UNL     1      16.683  50.993  50.162  1.00  0.00     0.279 HD
BRANCH  19  21
HETATM   21  C   UNL     1      16.691  53.001  49.766  1.00  0.00     0.230 C 
HETATM   22  C   UNL     1      15.307  53.014  50.387  1.00  0.00     0.034 C 
ENDBRANCH  19  21
BRANCH  19  23
HETATM   23  C   UNL     1      18.648  51.449  49.807  1.00  0.00     0.230 C 
HETATM   24  C   UNL     1      19.521  52.053  48.725  1.00  0.00     0.034 C 
ENDBRANCH  19  23
ENDBRANCH  18  19
ENDBRANCH  17  18
ENDBRANCH  16  17
ENDBRANCH  13  16
ENDBRANCH   1  12
BRANCH   7  25
HETATM   25  C   UNL     1      24.974  44.244  49.670  1.00  0.00     0.236 C 
BRANCH  25  26
HETATM   26  C   UNL     1      25.163  44.407  51.182  1.00  0.00     0.240 C 
HETATM   27  N   UNL     1      26.096  45.387  51.488  1.00  0.00    -0.326 N 
HETATM   28  H   UNL     1      26.395  45.993  50.732  1.00  0.00     0.169 HD
HETATM   29  O   UNL     1      24.597  43.663  51.977  1.00  0.00    -0.271 OA
BRANCH  27  30
HETATM   30  C   UNL     1      26.666  45.673  52.747  1.00  0.00     0.036 A 
HETATM   31  C   UNL     1      26.357  46.796  53.513  1.00  0.00     0.053 A 
HETATM   32  C   UNL     1      26.940  46.974  54.776  1.00  0.00     0.042 A 
HETATM   33 CL   UNL     1      26.495  48.382  55.678  1.00  0.00    -0.084 Cl
HETATM   34  C   UNL     1      27.844  46.034  55.294  1.00  0.00    -0.040 A 
HETATM   35  C   UNL     1      28.469  46.190  56.652  1.00  0.00     0.050 C 
HETATM   36  C   UNL     1      28.155  44.913  54.515  1.00  0.00     0.011 A 
HETATM   37  C   UNL     1      27.572  44.735  53.258  1.00  0.00     0.030 A 
ENDBRANCH  27  30
ENDBRANCH  25  26
ENDBRANCH   7  25
TORSDOF 10
ENDMDL
MODEL 9
REMARK VINA RESULT:      -7.5      2.242      3.226
REMARK  10 active torsions:
REMARK  status: ('A' for Active; 'I' for Inactive)
REMARK    1  A    between atoms: C_2  and  N_3 
REMARK    2  A    between atoms: N_3  and  C_5 
REMARK    3  A    between atoms: N_3  and  C_34 
REMARK    4  A    between atoms: C_5  and  C_6 
REMARK    5  A    between atoms: C_6  and  C_7 
REMARK    6  A    between atoms: C_7  and  N_8 
REMARK       I    between atoms: N_8  and  C_9 
REMARK    7  A    between atoms: C_9  and  C_10 
REMARK    8  A    between atoms: N_16  and  C_17 
REMARK    9  A    between atoms: C_17  and  C_18 
REMARK       I    between atoms: C_18  and  N_19 
REMARK   10  A    between atoms: N_19  and  C_20 
ROOT
HETATM    1  C   UNL     1      22.432  43.565  47.406  1.00  0.00     0.081 A 
HETATM    2  S   UNL     1      23.257  42.528  46.319  1.00  0.00    -0.063 SA
HETATM    3  C   UNL     1      24.138  41.798  47.573  1.00  0.00     0.116 A 
HETATM    4  C   UNL     1      23.832  42.338  48.804  1.00  0.00     0.075 A 
HETATM    5  C   UNL     1      24.583  41.846  49.952  1.00  0.00     0.262 A 
HETATM    6  O   UNL     1      24.414  42.276  51.091  1.00  0.00    -0.267 OA
HETATM    7  N   UNL     1      25.542  40.889  49.635  1.00  0.00    -0.299 N 
HETATM    8  C   UNL     1      25.688  40.403  48.349  1.00  0.00     0.214 A 
HETATM    9  N   UNL     1      25.036  40.819  47.311  1.00  0.00    -0.235 NA
HETATM   10  C   UNL     1      22.798  43.344  48.728  1.00  0.00    -0.021 A 
HETATM   11  C   UNL     1      22.246  44.092  49.902  1.00  0.00     0.051 C 
ENDROOT
BRANCH   1  12
HETATM   12  C   UNL     1      21.452  44.491  46.869  1.00  0.00     0.259 C 
HETATM   13  N   UNL     1      21.861  45.812  46.843  1.00  0.00    -0.356 N 
HETATM   14  H   UNL     1      22.754  46.034  47.274  1.00  0.00     0.162 HD
HETATM   15  O   UNL     1      20.353  44.162  46.430  1.00  0.00    -0.267 OA
BRANCH  13  16
HETATM   16  C   UNL     1      21.011  46.883  46.373  1.00  0.00     0.124 C 
BRANCH  16  17
HETATM   17  C   UNL     1      20.901  48.021  47.391  1.00  0.00     0.047 C 
BRANCH  17  18
HETATM   18  C   UNL     1      21.280  47.571  48.801  1.00  0.00     0.236 C 
BRANCH  18  19
HETATM   19  N   UNL     1      22.223  48.544  49.501  1.00  0.00    -0.072 N 
HETATM   20  H   UNL     1      22.126  48.320  50.502  1.00  0.00     0.279 HD
BRANCH  19  21
HETATM   21  C   UNL     1      21.839  50.011  49.383  1.00  0.00     0.230 C 
HETATM   22  C   UNL     1      22.969  50.849  48.813  1.00  0.00     0.034 C 
ENDBRANCH  19  21
BRANCH  19  23
HETATM   23  C   UNL     1      23.696  48.352  49.187  1.00  0.00     0.230 C 
HETATM   24  C   UNL     1      24.294  47.211  49.987  1.00  0.00     0.034 C 
ENDBRANCH  19  23
ENDBRANCH  18  19
ENDBRANCH  17  18
ENDBRANCH  16  17
ENDBRANCH  13  16
ENDBRANCH   1  12
BRANCH   7  25
HETATM   25  C   UNL     1      26.417  40.410  50.691  1.00  0.00     0.236 C 
BRANCH  25  26
HETATM   26  C   UNL     1      27.324  41.523  51.228  1.00  0.00     0.240 C 
HETATM   27  N   UNL     1      27.230  41.652  52.606  1.00  0.00    -0.326 N 
HETATM   28  H   UNL     1      26.748  40.914  53.108  1.00  0.00     0.169 HD
HETATM   29  O   UNL     1      27.964  42.243  50.469  1.00  0.00    -0.271 OA
BRANCH  27  30
HETATM   30  C   UNL     1      27.757  42.681  53.415  1.00  0.00     0.036 A 
HETATM   31  C   UNL     1      28.983  42.612  54.076  1.00  0.00     0.053 A 
HETATM   32  C   UNL     1      29.448  43.705  54.821  1.00  0.00     0.042 A 
HETATM   33 CL   UNL     1      30.986  43.554  55.598  1.00  0.00    -0.084 Cl
HETATM   34  C   UNL     1      28.695  44.884  54.922  1.00  0.00    -0.040 A 
HETATM   35  C   UNL     1      29.178  46.077  55.698  1.00  0.00     0.050 C 
HETATM   36  C   UNL     1      27.462  44.943  54.262  1.00  0.00     0.011 A 
HETATM   37  C   UNL     1      27.000  43.855  53.518  1.00  0.00     0.030 A 
ENDBRANCH  27  30
ENDBRANCH  25  26
ENDBRANCH   7  25
TORSDOF 10
ENDMDL
MODEL 10
REMARK VINA RESULT:      -7.5      1.944      2.826
REMARK  10 active torsions:
REMARK  status: ('A' for Active; 'I' for Inactive)
REMARK    1  A    between atoms: C_2  and  N_3 
REMARK    2  A    between atoms: N_3  and  C_5 
REMARK    3  A    between atoms: N_3  and  C_34 
REMARK    4  A    between atoms: C_5  and  C_6 
REMARK    5  A    between atoms: C_6  and  C_7 
REMARK    6  A    between atoms: C_7  and  N_8 
REMARK       I    between atoms: N_8  and  C_9 
REMARK    7  A    between atoms: C_9  and  C_10 
REMARK    8  A    between atoms: N_16  and  C_17 
REMARK    9  A    between atoms: C_17  and  C_18 
REMARK       I    between atoms: C_18  and  N_19 
REMARK   10  A    between atoms: N_19  and  C_20 
ROOT
HETATM    1  C   UNL     1      23.608  48.235  48.886  1.00  0.00     0.081 A 
HETATM    2  S   UNL     1      25.266  48.591  49.135  1.00  0.00    -0.063 SA
HETATM    3  C   UNL     1      25.630  46.975  49.506  1.00  0.00     0.116 A 
HETATM    4  C   UNL     1      24.513  46.169  49.463  1.00  0.00     0.075 A 
HETATM    5  C   UNL     1      24.685  44.772  49.840  1.00  0.00     0.262 A 
HETATM    6  O   UNL     1      23.754  43.970  49.866  1.00  0.00    -0.267 OA
HETATM    7  N   UNL     1      25.983  44.442  50.220  1.00  0.00    -0.299 N 
HETATM    8  C   UNL     1      27.016  45.358  50.151  1.00  0.00     0.214 A 
HETATM    9  N   UNL     1      26.894  46.603  49.819  1.00  0.00    -0.235 NA
HETATM   10  C   UNL     1      23.326  46.885  49.055  1.00  0.00    -0.021 A 
HETATM   11  C   UNL     1      21.969  46.271  48.900  1.00  0.00     0.051 C 
ENDROOT
BRANCH   1  12
HETATM   12  C   UNL     1      22.719  49.315  48.502  1.00  0.00     0.259 C 
HETATM   13  N   UNL     1      21.988  49.859  49.543  1.00  0.00    -0.356 N 
HETATM   14  H   UNL     1      22.063  49.411  50.451  1.00  0.00     0.162 HD
HETATM   15  O   UNL     1      22.622  49.762  47.361  1.00  0.00    -0.267 OA
BRANCH  13  16
HETATM   16  C   UNL     1      21.028  50.922  49.349  1.00  0.00     0.124 C 
BRANCH  16  17
HETATM   17  C   UNL     1      19.858  50.827  50.332  1.00  0.00     0.047 C 
BRANCH  17  18
HETATM   18  C   UNL     1      18.686  50.034  49.758  1.00  0.00     0.236 C 
BRANCH  18  19
HETATM   19  N   UNL     1      17.453  50.895  49.507  1.00  0.00    -0.072 N 
HETATM   20  H   UNL     1      16.743  50.522  50.153  1.00  0.00     0.279 HD
BRANCH  19  21
HETATM   21  C   UNL     1      16.840  50.756  48.122  1.00  0.00     0.230 C 
HETATM   22  C   UNL     1      15.702  49.752  48.104  1.00  0.00     0.034 C 
ENDBRANCH  19  21
BRANCH  19  23
HETATM   23  C   UNL     1      17.603  52.360  49.878  1.00  0.00     0.230 C 
HETATM   24  C   UNL     1      16.283  53.100  49.780  1.00  0.00     0.034 C 
ENDBRANCH  19  23
ENDBRANCH  18  19
ENDBRANCH  17  18
ENDBRANCH  16  17
ENDBRANCH  13  16
ENDBRANCH   1  12
BRANCH   7  25
HETATM   25  C   UNL     1      26.239  43.101  50.715  1.00  0.00     0.236 C 
BRANCH  25  26
HETATM   26  C   UNL     1      27.314  43.092  51.807  1.00  0.00     0.240 C 
HETATM   27  N   UNL     1      27.005  43.953  52.849  1.00  0.00    -0.326 N 
HETATM   28  H   UNL     1      26.064  44.330  52.874  1.00  0.00     0.169 HD
HETATM   29  O   UNL     1      28.351  42.449  51.673  1.00  0.00    -0.271 OA
BRANCH  27  30
HETATM   30  C   UNL     1      27.839  44.351  53.917  1.00  0.00     0.036 A 
HETATM   31  C   UNL     1      28.929  43.616  54.378  1.00  0.00     0.053 A 
HETATM   32  C   UNL     1      29.731  44.114  55.416  1.00  0.00     0.042 A 
HETATM   33 CL   UNL     1      31.078  43.157  55.925  1.00  0.00    -0.084 Cl
HETATM   34  C   UNL     1      29.453  45.354  56.013  1.00  0.00    -0.040 A 
HETATM   35  C   UNL     1      30.305  45.920  57.113  1.00  0.00     0.050 C 
HETATM   36  C   UNL     1      28.351  46.082  55.549  1.00  0.00     0.011 A 
HETATM   37  C   UNL     1      27.555  45.586  54.513  1.00  0.00     0.030 A 
ENDBRANCH  27  30
ENDBRANCH  25  26
ENDBRANCH   7  25
TORSDOF 10
ENDMDL
