MODEL 1
REMARK VINA RESULT:      -8.0      0.000      0.000
REMARK  8 active torsions:
REMARK  status: ('A' for Active; 'I' for Inactive)
REMARK    1  A    between atoms: C_2  and  C_3 
REMARK    2  A    between atoms: C_3  and  N_4 
REMARK    3  A    between atoms: N_4  and  C_5 
REMARK    4  A    between atoms: C_7  and  N_8 
REMARK    5  A    between atoms: N_8  and  C_9 
REMARK    6  A    between atoms: C_9  and  C_10 
REMARK    7  A    between atoms: C_10  and  C_11 
REMARK    8  A    between atoms: C_14  and  O_15 
ROOT
HETATM    1  C   UNL     1      28.812  45.150  54.719  1.00  0.00     0.119 A 
HETATM    2  N   UNL     1      28.688  44.358  53.637  1.00  0.00    -0.207 NA
HETATM    3  C   UNL     1      29.467  43.273  53.569  1.00  0.00     0.181 A 
HETATM    4  N   UNL     1      30.368  42.958  54.493  1.00  0.00    -0.330 N 
HETATM    5  H   UNL     1      30.957  42.157  54.309  1.00  0.00     0.168 HD
HETATM    6  C   UNL     1      30.511  43.694  55.599  1.00  0.00     0.048 A 
HETATM    7  C   UNL     1      29.710  44.840  55.766  1.00  0.00     0.031 A 
HETATM    8  C   UNL     1      31.442  43.317  56.578  1.00  0.00     0.030 A 
HETATM    9  C   UNL     1      31.575  44.070  57.744  1.00  0.00     0.002 A 
HETATM   10  C   UNL     1      30.781  45.197  57.937  1.00  0.00     0.001 A 
HETATM   11  C   UNL     1      29.859  45.581  56.961  1.00  0.00     0.017 A 
ENDROOT
BRANCH   3  12
HETATM   12  N   UNL     1      29.362  42.476  52.436  1.00  0.00    -0.262 NA
HETATM   13  H   UNL     1      29.611  43.100  51.661  1.00  0.00     0.130 HD
BRANCH  12  14
HETATM   14  C   UNL     1      28.034  41.890  52.224  1.00  0.00     0.100 C 
BRANCH  14  15
HETATM   15  C   UNL     1      27.519  42.221  50.818  1.00  0.00     0.053 C 
BRANCH  15  16
HETATM   16  C   UNL     1      26.713  43.495  50.816  1.00  0.00    -0.057 A 
HETATM   17  C   UNL     1      27.222  44.665  50.242  1.00  0.00     0.010 A 
HETATM   18  C   UNL     1      26.481  45.849  50.282  1.00  0.00     0.037 A 
HETATM   19  C   UNL     1      25.220  45.883  50.881  1.00  0.00     0.068 A 
HETATM   20  C   UNL     1      24.703  44.718  51.445  1.00  0.00     0.037 A 
HETATM   21  C   UNL     1      25.446  43.532  51.413  1.00  0.00     0.010 A 
BRANCH  19  22
HETATM   22  O   UNL     1      24.607  47.105  50.854  1.00  0.00    -0.356 OA
HETATM   23  C   UNL     1      23.939  47.466  49.650  1.00  0.00     0.210 C 
ENDBRANCH  19  22
ENDBRANCH  15  16
ENDBRANCH  14  15
ENDBRANCH  12  14
ENDBRANCH   3  12
BRANCH   1  24
HETATM   24  N   UNL     1      27.991  46.280  54.831  1.00  0.00    -0.277 NA
HETATM   25  H   UNL     1      28.492  47.121  54.550  1.00  0.00     0.129 HD
BRANCH  24  26
HETATM   26  C   UNL     1      26.675  46.207  54.195  1.00  0.00     0.093 C 
BRANCH  26  27
HETATM   27  C   UNL     1      26.002  47.580  54.222  1.00  0.00     0.010 C 
HETATM   28  C   UNL     1      26.419  48.419  55.422  1.00  0.00     0.006 C 
ENDBRANCH  26  27
ENDBRANCH  24  26
ENDBRANCH   1  24
TORSDOF 8
ENDMDL
MODEL 2
REMARK VINA RESULT:      -7.9      1.529      3.952
REMARK  8 active torsions:
REMARK  status: ('A' for Active; 'I' for Inactive)
REMARK    1  A    between atoms: C_2  and  C_3 
REMARK    2  A    between atoms: C_3  and  N_4 
REMARK    3  A    between atoms: N_4  and  C_5 
REMARK    4  A    between atoms: C_7  and  N_8 
REMARK    5  A    between atoms: N_8  and  C_9 
REMARK    6  A    between atoms: C_9  and  C_10 
REMARK    7  A    between atoms: C_10  and  C_11 
REMARK    8  A    between atoms: C_14  and  O_15 
ROOT
HETATM    1  C   UNL     1      29.323  44.266  54.534  1.00  0.00     0.119 A 
HETATM    2  N   UNL     1      28.409  45.194  54.191  1.00  0.00    -0.207 NA
HETATM    3  C   UNL     1      28.198  46.202  55.045  1.00  0.00     0.181 A 
HETATM    4  N   UNL     1      28.818  46.314  56.214  1.00  0.00    -0.330 N 
HETATM    5  H   UNL     1      28.531  47.074  56.818  1.00  0.00     0.168 HD
HETATM    6  C   UNL     1      29.754  45.437  56.589  1.00  0.00     0.048 A 
HETATM    7  C   UNL     1      30.060  44.359  55.736  1.00  0.00     0.031 A 
HETATM    8  C   UNL     1      30.422  45.602  57.812  1.00  0.00     0.030 A 
HETATM    9  C   UNL     1      31.415  44.701  58.192  1.00  0.00     0.002 A 
HETATM   10  C   UNL     1      31.746  43.638  57.356  1.00  0.00     0.001 A 
HETATM   11  C   UNL     1      31.078  43.465  56.142  1.00  0.00     0.017 A 
ENDROOT
BRANCH   3  12
HETATM   12  N   UNL     1      27.230  47.139  54.706  1.00  0.00    -0.262 NA
HETATM   13  H   UNL     1      27.066  47.661  55.574  1.00  0.00     0.130 HD
BRANCH  12  14
HETATM   14  C   UNL     1      25.978  46.567  54.200  1.00  0.00     0.100 C 
BRANCH  14  15
HETATM   15  C   UNL     1      25.715  47.038  52.764  1.00  0.00     0.053 C 
BRANCH  15  16
HETATM   16  C   UNL     1      25.688  45.876  51.803  1.00  0.00    -0.057 A 
HETATM   17  C   UNL     1      24.956  44.720  52.096  1.00  0.00     0.010 A 
HETATM   18  C   UNL     1      24.971  43.636  51.216  1.00  0.00     0.037 A 
HETATM   19  C   UNL     1      25.703  43.689  50.028  1.00  0.00     0.068 A 
HETATM   20  C   UNL     1      26.426  44.842  49.726  1.00  0.00     0.037 A 
HETATM   21  C   UNL     1      26.419  45.928  50.609  1.00  0.00     0.010 A 
BRANCH  19  22
HETATM   22  O   UNL     1      25.634  42.559  49.263  1.00  0.00    -0.356 OA
HETATM   23  C   UNL     1      26.867  41.995  48.831  1.00  0.00     0.210 C 
ENDBRANCH  19  22
ENDBRANCH  15  16
ENDBRANCH  14  15
ENDBRANCH  12  14
ENDBRANCH   3  12
BRANCH   1  24
HETATM   24  N   UNL     1      29.586  43.212  53.648  1.00  0.00    -0.277 NA
HETATM   25  H   UNL     1      29.533  42.315  54.127  1.00  0.00     0.129 HD
BRANCH  24  26
HETATM   26  C   UNL     1      28.824  43.194  52.399  1.00  0.00     0.093 C 
BRANCH  26  27
HETATM   27  C   UNL     1      28.090  41.860  52.251  1.00  0.00     0.010 C 
HETATM   28  C   UNL     1      28.481  40.849  53.319  1.00  0.00     0.006 C 
ENDBRANCH  26  27
ENDBRANCH  24  26
ENDBRANCH   1  24
TORSDOF 8
ENDMDL
MODEL 3
REMARK VINA RESULT:      -7.8      1.321      3.550
REMARK  8 active torsions:
REMARK  status: ('A' for Active; 'I' for Inactive)
REMARK    1  A    between atoms: C_2  and  C_3 
REMARK    2  A    between atoms: C_3  and  N_4 
REMARK    3  A    between atoms: N_4  and  C_5 
REMARK    4  A    between atoms: C_7  and  N_8 
REMARK    5  A    between atoms: N_8  and  C_9 
REMARK    6  A    between atoms: C_9  and  C_10 
REMARK    7  A    between atoms: C_10  and  C_11 
REMARK    8  A    between atoms: C_14  and  O_15 
ROOT
HETATM    1  C   UNL     1      29.274  43.996  54.807  1.00  0.00     0.119 A 
HETATM    2  N   UNL     1      28.930  42.797  54.301  1.00  0.00    -0.207 NA
HETATM    3  C   UNL     1      27.717  42.680  53.750  1.00  0.00     0.181 A 
HETATM    4  N   UNL     1      26.835  43.672  53.703  1.00  0.00    -0.330 N 
HETATM    5  H   UNL     1      25.919  43.458  53.330  1.00  0.00     0.168 HD
HETATM    6  C   UNL     1      27.136  44.889  54.164  1.00  0.00     0.048 A 
HETATM    7  C   UNL     1      28.404  45.109  54.737  1.00  0.00     0.031 A 
HETATM    8  C   UNL     1      26.200  45.930  54.066  1.00  0.00     0.030 A 
HETATM    9  C   UNL     1      26.523  47.206  54.525  1.00  0.00     0.002 A 
HETATM   10  C   UNL     1      27.776  47.448  55.079  1.00  0.00     0.001 A 
HETATM   11  C   UNL     1      28.709  46.414  55.187  1.00  0.00     0.017 A 
ENDROOT
BRANCH   3  12
HETATM   12  N   UNL     1      27.351  41.433  53.259  1.00  0.00    -0.262 NA
HETATM   13  H   UNL     1      27.786  40.767  53.906  1.00  0.00     0.130 HD
BRANCH  12  14
HETATM   14  C   UNL     1      27.776  41.172  51.880  1.00  0.00     0.100 C 
BRANCH  14  15
HETATM   15  C   UNL     1      26.570  41.193  50.934  1.00  0.00     0.053 C 
BRANCH  15  16
HETATM   16  C   UNL     1      26.122  42.605  50.648  1.00  0.00    -0.057 A 
HETATM   17  C   UNL     1      27.012  43.546  50.119  1.00  0.00     0.010 A 
HETATM   18  C   UNL     1      26.596  44.861  49.896  1.00  0.00     0.037 A 
HETATM   19  C   UNL     1      25.289  45.255  50.185  1.00  0.00     0.068 A 
HETATM   20  C   UNL     1      24.394  44.319  50.703  1.00  0.00     0.037 A 
HETATM   21  C   UNL     1      24.810  43.003  50.933  1.00  0.00     0.010 A 
BRANCH  19  22
HETATM   22  O   UNL     1      25.017  46.569  49.924  1.00  0.00    -0.356 OA
HETATM   23  C   UNL     1      26.128  47.455  49.843  1.00  0.00     0.210 C 
ENDBRANCH  19  22
ENDBRANCH  15  16
ENDBRANCH  14  15
ENDBRANCH  12  14
ENDBRANCH   3  12
BRANCH   1  24
HETATM   24  N   UNL     1      30.548  44.157  55.369  1.00  0.00    -0.277 NA
HETATM   25  H   UNL     1      30.655  45.090  55.762  1.00  0.00     0.129 HD
BRANCH  24  26
HETATM   26  C   UNL     1      30.988  43.128  56.313  1.00  0.00     0.093 C 
BRANCH  26  27
HETATM   27  C   UNL     1      31.697  43.777  57.503  1.00  0.00     0.010 C 
HETATM   28  C   UNL     1      30.902  44.924  58.110  1.00  0.00     0.006 C 
ENDBRANCH  26  27
ENDBRANCH  24  26
ENDBRANCH   1  24
TORSDOF 8
ENDMDL
MODEL 4
REMARK VINA RESULT:      -7.7      3.301      7.552
REMARK  8 active torsions:
REMARK  status: ('A' for Active; 'I' for Inactive)
REMARK    1  A    between atoms: C_2  and  C_3 
REMARK    2  A    between atoms: C_3  and  N_4 
REMARK    3  A    between atoms: N_4  and  C_5 
REMARK    4  A    between atoms: C_7  and  N_8 
REMARK    5  A    between atoms: N_8  and  C_9 
REMARK    6  A    between atoms: C_9  and  C_10 
REMARK    7  A    between atoms: C_10  and  C_11 
REMARK    8  A    between atoms: C_14  and  O_15 
ROOT
HETATM    1  C   UNL     1      27.593  41.287  49.244  1.00  0.00     0.119 A 
HETATM    2  N   UNL     1      27.853  41.350  50.564  1.00  0.00    -0.207 NA
HETATM    3  C   UNL     1      28.437  40.289  51.133  1.00  0.00     0.181 A 
HETATM    4  N   UNL     1      28.742  39.178  50.472  1.00  0.00    -0.330 N 
HETATM    5  H   UNL     1      29.113  38.407  51.011  1.00  0.00     0.168 HD
HETATM    6  C   UNL     1      28.531  39.074  49.156  1.00  0.00     0.048 A 
HETATM    7  C   UNL     1      27.946  40.157  48.471  1.00  0.00     0.031 A 
HETATM    8  C   UNL     1      28.900  37.905  48.475  1.00  0.00     0.030 A 
HETATM    9  C   UNL     1      28.703  37.806  47.099  1.00  0.00     0.002 A 
HETATM   10  C   UNL     1      28.142  38.870  46.399  1.00  0.00     0.001 A 
HETATM   11  C   UNL     1      27.766  40.034  47.074  1.00  0.00     0.017 A 
ENDROOT
BRANCH   3  12
HETATM   12  N   UNL     1      28.673  40.342  52.500  1.00  0.00    -0.262 NA
HETATM   13  H   UNL     1      28.008  39.671  52.900  1.00  0.00     0.130 HD
BRANCH  12  14
HETATM   14  C   UNL     1      28.495  41.669  53.099  1.00  0.00     0.100 C 
BRANCH  14  15
HETATM   15  C   UNL     1      29.826  42.429  53.124  1.00  0.00     0.053 C 
BRANCH  15  16
HETATM   16  C   UNL     1      29.859  43.440  54.243  1.00  0.00    -0.057 A 
HETATM   17  C   UNL     1      30.834  43.368  55.245  1.00  0.00     0.010 A 
HETATM   18  C   UNL     1      30.830  44.286  56.297  1.00  0.00     0.037 A 
HETATM   19  C   UNL     1      29.867  45.295  56.363  1.00  0.00     0.068 A 
HETATM   20  C   UNL     1      28.900  45.378  55.362  1.00  0.00     0.037 A 
HETATM   21  C   UNL     1      28.897  44.455  54.309  1.00  0.00     0.010 A 
BRANCH  19  22
HETATM   22  O   UNL     1      29.976  46.120  57.446  1.00  0.00    -0.356 OA
HETATM   23  C   UNL     1      30.673  45.612  58.578  1.00  0.00     0.210 C 
ENDBRANCH  19  22
ENDBRANCH  15  16
ENDBRANCH  14  15
ENDBRANCH  12  14
ENDBRANCH   3  12
BRANCH   1  24
HETATM   24  N   UNL     1      27.007  42.392  48.614  1.00  0.00    -0.277 NA
HETATM   25  H   UNL     1      26.567  42.118  47.737  1.00  0.00     0.129 HD
BRANCH  24  26
HETATM   26  C   UNL     1      26.108  43.215  49.425  1.00  0.00     0.093 C 
BRANCH  26  27
HETATM   27  C   UNL     1      26.778  44.548  49.763  1.00  0.00     0.010 C 
HETATM   28  C   UNL     1      26.855  44.807  51.261  1.00  0.00     0.006 C 
ENDBRANCH  26  27
ENDBRANCH  24  26
ENDBRANCH   1  24
TORSDOF 8
ENDMDL
MODEL 5
REMARK VINA RESULT:      -7.7      1.499      1.815
REMARK  8 active torsions:
REMARK  status: ('A' for Active; 'I' for Inactive)
REMARK    1  A    between atoms: C_2  and  C_3 
REMARK    2  A    between atoms: C_3  and  N_4 
REMARK    3  A    between atoms: N_4  and  C_5 
REMARK    4  A    between atoms: C_7  and  N_8 
REMARK    5  A    between atoms: N_8  and  C_9 
REMARK    6  A    between atoms: C_9  and  C_10 
REMARK    7  A    between atoms: C_10  and  C_11 
REMARK    8  A    between atoms: C_14  and  O_15 
ROOT
HETATM    1  C   UNL     1      28.950  45.096  54.799  1.00  0.00     0.119 A 
HETATM    2  N   UNL     1      28.974  44.214  53.782  1.00  0.00    -0.207 NA
HETATM    3  C   UNL     1      29.833  43.193  53.867  1.00  0.00     0.181 A 
HETATM    4  N   UNL     1      30.674  43.024  54.881  1.00  0.00    -0.330 N 
HETATM    5  H   UNL     1      31.334  42.260  54.813  1.00  0.00     0.168 HD
HETATM    6  C   UNL     1      30.671  43.854  55.929  1.00  0.00     0.048 A 
HETATM    7  C   UNL     1      29.777  44.942  55.935  1.00  0.00     0.031 A 
HETATM    8  C   UNL     1      31.542  43.630  57.005  1.00  0.00     0.030 A 
HETATM    9  C   UNL     1      31.521  44.481  58.109  1.00  0.00     0.002 A 
HETATM   10  C   UNL     1      30.634  45.553  58.144  1.00  0.00     0.001 A 
HETATM   11  C   UNL     1      29.770  45.785  57.070  1.00  0.00     0.017 A 
ENDROOT
BRANCH   3  12
HETATM   12  N   UNL     1      29.882  42.303  52.801  1.00  0.00    -0.262 NA
HETATM   13  H   UNL     1      29.945  42.902  51.971  1.00  0.00     0.130 HD
BRANCH  12  14
HETATM   14  C   UNL     1      28.727  41.403  52.705  1.00  0.00     0.100 C 
BRANCH  14  15
HETATM   15  C   UNL     1      28.311  41.220  51.240  1.00  0.00     0.053 C 
BRANCH  15  16
HETATM   16  C   UNL     1      26.921  41.750  50.995  1.00  0.00    -0.057 A 
HETATM   17  C   UNL     1      26.480  42.921  51.622  1.00  0.00     0.010 A 
HETATM   18  C   UNL     1      25.177  43.381  51.417  1.00  0.00     0.037 A 
HETATM   19  C   UNL     1      24.299  42.691  50.578  1.00  0.00     0.068 A 
HETATM   20  C   UNL     1      24.736  41.530  49.943  1.00  0.00     0.037 A 
HETATM   21  C   UNL     1      26.039  41.063  50.151  1.00  0.00     0.010 A 
BRANCH  19  22
HETATM   22  O   UNL     1      23.055  43.247  50.471  1.00  0.00    -0.356 OA
HETATM   23  C   UNL     1      22.938  44.419  49.671  1.00  0.00     0.210 C 
ENDBRANCH  19  22
ENDBRANCH  15  16
ENDBRANCH  14  15
ENDBRANCH  12  14
ENDBRANCH   3  12
BRANCH   1  24
HETATM   24  N   UNL     1      28.042  46.163  54.751  1.00  0.00    -0.277 NA
HETATM   25  H   UNL     1      28.503  47.018  54.445  1.00  0.00     0.129 HD
BRANCH  24  26
HETATM   26  C   UNL     1      26.797  45.938  54.015  1.00  0.00     0.093 C 
BRANCH  26  27
HETATM   27  C   UNL     1      25.955  47.215  54.006  1.00  0.00     0.010 C 
HETATM   28  C   UNL     1      26.296  48.156  55.152  1.00  0.00     0.006 C 
ENDBRANCH  26  27
ENDBRANCH  24  26
ENDBRANCH   1  24
TORSDOF 8
ENDMDL
MODEL 6
REMARK VINA RESULT:      -7.6      3.483      7.665
REMARK  8 active torsions:
REMARK  status: ('A' for Active; 'I' for Inactive)
REMARK    1  A    between atoms: C_2  and  C_3 
REMARK    2  A    between atoms: C_3  and  N_4 
REMARK    3  A    between atoms: N_4  and  C_5 
REMARK    4  A    between atoms: C_7  and  N_8 
REMARK    5  A    between atoms: N_8  and  C_9 
REMARK    6  A    between atoms: C_9  and  C_10 
REMARK    7  A    between atoms: C_10  and  C_11 
REMARK    8  A    between atoms: C_14  and  O_15 
ROOT
HETATM    1  C   UNL     1      24.029  47.309  49.752  1.00  0.00     0.119 A 
HETATM    2  N   UNL     1      24.290  46.191  50.456  1.00  0.00    -0.207 NA
HETATM    3  C   UNL     1      25.568  45.921  50.740  1.00  0.00     0.181 A 
HETATM    4  N   UNL     1      26.584  46.678  50.342  1.00  0.00    -0.330 N 
HETATM    5  H   UNL     1      27.517  46.346  50.547  1.00  0.00     0.168 HD
HETATM    6  C   UNL     1      26.379  47.813  49.666  1.00  0.00     0.048 A 
HETATM    7  C   UNL     1      25.059  48.189  49.348  1.00  0.00     0.031 A 
HETATM    8  C   UNL     1      27.467  48.615  49.292  1.00  0.00     0.030 A 
HETATM    9  C   UNL     1      27.251  49.811  48.608  1.00  0.00     0.002 A 
HETATM   10  C   UNL     1      25.955  50.210  48.299  1.00  0.00     0.001 A 
HETATM   11  C   UNL     1      24.868  49.411  48.662  1.00  0.00     0.017 A 
ENDROOT
BRANCH   3  12
HETATM   12  N   UNL     1      25.839  44.750  51.437  1.00  0.00    -0.262 NA
HETATM   13  H   UNL     1      25.464  44.920  52.376  1.00  0.00     0.130 HD
BRANCH  12  14
HETATM   14  C   UNL     1      27.260  44.393  51.501  1.00  0.00     0.100 C 
BRANCH  14  15
HETATM   15  C   UNL     1      27.479  43.238  52.486  1.00  0.00     0.053 C 
BRANCH  15  16
HETATM   16  C   UNL     1      28.465  43.615  53.562  1.00  0.00    -0.057 A 
HETATM   17  C   UNL     1      29.602  42.833  53.799  1.00  0.00     0.010 A 
HETATM   18  C   UNL     1      30.487  43.171  54.825  1.00  0.00     0.037 A 
HETATM   19  C   UNL     1      30.264  44.296  55.620  1.00  0.00     0.068 A 
HETATM   20  C   UNL     1      29.140  45.085  55.383  1.00  0.00     0.037 A 
HETATM   21  C   UNL     1      28.246  44.746  54.360  1.00  0.00     0.010 A 
BRANCH  19  22
HETATM   22  O   UNL     1      31.205  44.507  56.589  1.00  0.00    -0.356 OA
HETATM   23  C   UNL     1      31.759  43.355  57.214  1.00  0.00     0.210 C 
ENDBRANCH  19  22
ENDBRANCH  15  16
ENDBRANCH  14  15
ENDBRANCH  12  14
ENDBRANCH   3  12
BRANCH   1  24
HETATM   24  N   UNL     1      22.697  47.633  49.460  1.00  0.00    -0.277 NA
HETATM   25  H   UNL     1      22.606  48.622  49.235  1.00  0.00     0.129 HD
BRANCH  24  26
HETATM   26  C   UNL     1      22.015  46.798  48.471  1.00  0.00     0.093 C 
BRANCH  26  27
HETATM   27  C   UNL     1      20.511  47.075  48.496  1.00  0.00     0.010 C 
HETATM   28  C   UNL     1      20.167  48.405  49.153  1.00  0.00     0.006 C 
ENDBRANCH  26  27
ENDBRANCH  24  26
ENDBRANCH   1  24
TORSDOF 8
ENDMDL
MODEL 7
REMARK VINA RESULT:      -7.5      2.706      7.559
REMARK  8 active torsions:
REMARK  status: ('A' for Active; 'I' for Inactive)
REMARK    1  A    between atoms: C_2  and  C_3 
REMARK    2  A    between atoms: C_3  and  N_4 
REMARK    3  A    between atoms: N_4  and  C_5 
REMARK    4  A    between atoms: C_7  and  N_8 
REMARK    5  A    between atoms: N_8  and  C_9 
REMARK    6  A    between atoms: C_9  and  C_10 
REMARK    7  A    between atoms: C_10  and  C_11 
REMARK    8  A    between atoms: C_14  and  O_15 
ROOT
HETATM    1  C   UNL     1      26.376  44.039  52.460  1.00  0.00     0.119 A 
HETATM    2  N   UNL     1      26.592  45.108  53.250  1.00  0.00    -0.207 NA
HETATM    3  C   UNL     1      26.008  46.262  52.907  1.00  0.00     0.181 A 
HETATM    4  N   UNL     1      25.256  46.408  51.822  1.00  0.00    -0.330 N 
HETATM    5  H   UNL     1      24.921  47.340  51.614  1.00  0.00     0.168 HD
HETATM    6  C   UNL     1      24.986  45.373  51.021  1.00  0.00     0.048 A 
HETATM    7  C   UNL     1      25.538  44.113  51.323  1.00  0.00     0.031 A 
HETATM    8  C   UNL     1      24.156  45.547  49.903  1.00  0.00     0.030 A 
HETATM    9  C   UNL     1      23.855  44.462  49.081  1.00  0.00     0.002 A 
HETATM   10  C   UNL     1      24.377  43.204  49.372  1.00  0.00     0.001 A 
HETATM   11  C   UNL     1      25.210  43.028  50.478  1.00  0.00     0.017 A 
ENDROOT
BRANCH   3  12
HETATM   12  N   UNL     1      26.260  47.372  53.703  1.00  0.00    -0.262 NA
HETATM   13  H   UNL     1      26.183  48.168  53.061  1.00  0.00     0.130 HD
BRANCH  12  14
HETATM   14  C   UNL     1      27.569  47.363  54.365  1.00  0.00     0.100 C 
BRANCH  14  15
HETATM   15  C   UNL     1      27.403  47.170  55.877  1.00  0.00     0.053 C 
BRANCH  15  16
HETATM   16  C   UNL     1      28.547  46.376  56.457  1.00  0.00    -0.057 A 
HETATM   17  C   UNL     1      29.389  45.624  55.630  1.00  0.00     0.010 A 
HETATM   18  C   UNL     1      30.420  44.861  56.183  1.00  0.00     0.037 A 
HETATM   19  C   UNL     1      30.636  44.845  57.562  1.00  0.00     0.068 A 
HETATM   20  C   UNL     1      29.808  45.600  58.390  1.00  0.00     0.037 A 
HETATM   21  C   UNL     1      28.769  46.361  57.840  1.00  0.00     0.010 A 
BRANCH  19  22
HETATM   22  O   UNL     1      31.674  44.054  57.969  1.00  0.00    -0.356 OA
HETATM   23  C   UNL     1      32.029  42.968  57.120  1.00  0.00     0.210 C 
ENDBRANCH  19  22
ENDBRANCH  15  16
ENDBRANCH  14  15
ENDBRANCH  12  14
ENDBRANCH   3  12
BRANCH   1  24
HETATM   24  N   UNL     1      26.953  42.811  52.807  1.00  0.00    -0.277 NA
HETATM   25  H   UNL     1      27.556  42.470  52.060  1.00  0.00     0.129 HD
BRANCH  24  26
HETATM   26  C   UNL     1      27.625  42.740  54.106  1.00  0.00     0.093 C 
BRANCH  26  27
HETATM   27  C   UNL     1      29.060  42.242  53.928  1.00  0.00     0.010 C 
HETATM   28  C   UNL     1      29.830  43.024  52.874  1.00  0.00     0.006 C 
ENDBRANCH  26  27
ENDBRANCH  24  26
ENDBRANCH   1  24
TORSDOF 8
ENDMDL
MODEL 8
REMARK VINA RESULT:      -7.4      1.979      4.549
REMARK  8 active torsions:
REMARK  status: ('A' for Active; 'I' for Inactive)
REMARK    1  A    between atoms: C_2  and  C_3 
REMARK    2  A    between atoms: C_3  and  N_4 
REMARK    3  A    between atoms: N_4  and  C_5 
REMARK    4  A    between atoms: C_7  and  N_8 
REMARK    5  A    between atoms: N_8  and  C_9 
REMARK    6  A    between atoms: C_9  and  C_10 
REMARK    7  A    between atoms: C_10  and  C_11 
REMARK    8  A    between atoms: C_14  and  O_15 
ROOT
HETATM    1  C   UNL     1      28.387  43.580  53.302  1.00  0.00     0.119 A 
HETATM    2  N   UNL     1      27.371  44.341  52.851  1.00  0.00    -0.207 NA
HETATM    3  C   UNL     1      27.108  45.477  53.505  1.00  0.00     0.181 A 
HETATM    4  N   UNL     1      27.775  45.873  54.584  1.00  0.00    -0.330 N 
HETATM    5  H   UNL     1      27.449  46.711  55.047  1.00  0.00     0.168 HD
HETATM    6  C   UNL     1      28.809  45.171  55.055  1.00  0.00     0.048 A 
HETATM    7  C   UNL     1      29.174  43.973  54.408  1.00  0.00     0.031 A 
HETATM    8  C   UNL     1      29.522  45.632  56.172  1.00  0.00     0.030 A 
HETATM    9  C   UNL     1      30.616  44.912  56.649  1.00  0.00     0.002 A 
HETATM   10  C   UNL     1      31.004  43.736  56.014  1.00  0.00     0.001 A 
HETATM   11  C   UNL     1      30.292  43.268  54.907  1.00  0.00     0.017 A 
ENDROOT
BRANCH   3  12
HETATM   12  N   UNL     1      26.038  46.243  53.060  1.00  0.00    -0.262 NA
HETATM   13  H   UNL     1      25.305  46.088  53.760  1.00  0.00     0.130 HD
BRANCH  12  14
HETATM   14  C   UNL     1      25.556  45.896  51.719  1.00  0.00     0.100 C 
BRANCH  14  15
HETATM   15  C   UNL     1      26.525  46.416  50.650  1.00  0.00     0.053 C 
BRANCH  15  16
HETATM   16  C   UNL     1      25.927  47.567  49.881  1.00  0.00    -0.057 A 
HETATM   17  C   UNL     1      24.541  47.691  49.739  1.00  0.00     0.010 A 
HETATM   18  C   UNL     1      24.001  48.740  48.991  1.00  0.00     0.037 A 
HETATM   19  C   UNL     1      24.829  49.686  48.386  1.00  0.00     0.068 A 
HETATM   20  C   UNL     1      26.211  49.575  48.533  1.00  0.00     0.037 A 
HETATM   21  C   UNL     1      26.756  48.521  49.276  1.00  0.00     0.010 A 
BRANCH  19  22
HETATM   22  O   UNL     1      24.171  50.655  47.681  1.00  0.00    -0.356 OA
HETATM   23  C   UNL     1      22.940  51.122  48.221  1.00  0.00     0.210 C 
ENDBRANCH  19  22
ENDBRANCH  15  16
ENDBRANCH  14  15
ENDBRANCH  12  14
ENDBRANCH   3  12
BRANCH   1  24
HETATM   24  N   UNL     1      28.703  42.397  52.621  1.00  0.00    -0.277 NA
HETATM   25  H   UNL     1      29.325  41.814  53.179  1.00  0.00     0.129 HD
BRANCH  24  26
HETATM   26  C   UNL     1      27.582  41.621  52.089  1.00  0.00     0.093 C 
BRANCH  26  27
HETATM   27  C   UNL     1      28.049  40.766  50.910  1.00  0.00     0.010 C 
HETATM   28  C   UNL     1      26.898  40.082  50.185  1.00  0.00     0.006 C 
ENDBRANCH  26  27
ENDBRANCH  24  26
ENDBRANCH   1  24
TORSDOF 8
ENDMDL
MODEL 9
REMARK VINA RESULT:      -7.4      2.792      6.606
REMARK  8 active torsions:
REMARK  status: ('A' for Active; 'I' for Inactive)
REMARK    1  A    between atoms: C_2  and  C_3 
REMARK    2  A    between atoms: C_3  and  N_4 
REMARK    3  A    between atoms: N_4  and  C_5 
REMARK    4  A    between atoms: C_7  and  N_8 
REMARK    5  A    between atoms: N_8  and  C_9 
REMARK    6  A    between atoms: C_9  and  C_10 
REMARK    7  A    between atoms: C_10  and  C_11 
REMARK    8  A    between atoms: C_14  and  O_15 
ROOT
HETATM    1  C   UNL     1      27.613  41.506  49.504  1.00  0.00     0.119 A 
HETATM    2  N   UNL     1      27.913  41.589  50.815  1.00  0.00    -0.207 NA
HETATM    3  C   UNL     1      28.500  40.531  51.385  1.00  0.00     0.181 A 
HETATM    4  N   UNL     1      28.772  39.405  50.736  1.00  0.00    -0.330 N 
HETATM    5  H   UNL     1      29.150  38.639  51.278  1.00  0.00     0.168 HD
HETATM    6  C   UNL     1      28.521  39.280  49.429  1.00  0.00     0.048 A 
HETATM    7  C   UNL     1      27.929  40.358  48.742  1.00  0.00     0.031 A 
HETATM    8  C   UNL     1      28.856  38.094  48.759  1.00  0.00     0.030 A 
HETATM    9  C   UNL     1      28.617  37.974  47.391  1.00  0.00     0.002 A 
HETATM   10  C   UNL     1      28.048  39.033  46.689  1.00  0.00     0.001 A 
HETATM   11  C   UNL     1      27.706  40.213  47.353  1.00  0.00     0.017 A 
ENDROOT
BRANCH   3  12
HETATM   12  N   UNL     1      28.777  40.605  52.744  1.00  0.00    -0.262 NA
HETATM   13  H   UNL     1      28.627  39.650  53.088  1.00  0.00     0.130 HD
BRANCH  12  14
HETATM   14  C   UNL     1      27.946  41.560  53.485  1.00  0.00     0.100 C 
BRANCH  14  15
HETATM   15  C   UNL     1      28.807  42.697  54.048  1.00  0.00     0.053 C 
BRANCH  15  16
HETATM   16  C   UNL     1      28.010  43.968  54.194  1.00  0.00    -0.057 A 
HETATM   17  C   UNL     1      28.479  45.022  54.987  1.00  0.00     0.010 A 
HETATM   18  C   UNL     1      27.712  46.178  55.146  1.00  0.00     0.037 A 
HETATM   19  C   UNL     1      26.477  46.310  54.510  1.00  0.00     0.068 A 
HETATM   20  C   UNL     1      26.009  45.268  53.710  1.00  0.00     0.037 A 
HETATM   21  C   UNL     1      26.771  44.105  53.554  1.00  0.00     0.010 A 
BRANCH  19  22
HETATM   22  O   UNL     1      25.830  47.489  54.754  1.00  0.00    -0.356 OA
HETATM   23  C   UNL     1      26.499  48.433  55.582  1.00  0.00     0.210 C 
ENDBRANCH  19  22
ENDBRANCH  15  16
ENDBRANCH  14  15
ENDBRANCH  12  14
ENDBRANCH   3  12
BRANCH   1  24
HETATM   24  N   UNL     1      27.021  42.607  48.872  1.00  0.00    -0.277 NA
HETATM   25  H   UNL     1      26.427  42.306  48.101  1.00  0.00     0.129 HD
BRANCH  24  26
HETATM   26  C   UNL     1      26.330  43.569  49.731  1.00  0.00     0.093 C 
BRANCH  26  27
HETATM   27  C   UNL     1      27.190  44.820  49.917  1.00  0.00     0.010 C 
HETATM   28  C   UNL     1      26.389  46.110  49.807  1.00  0.00     0.006 C 
ENDBRANCH  26  27
ENDBRANCH  24  26
ENDBRANCH   1  24
TORSDOF 8
ENDMDL
MODEL 10
REMARK VINA RESULT:      -7.3      2.202      4.225
REMARK  8 active torsions:
REMARK  status: ('A' for Active; 'I' for Inactive)
REMARK    1  A    between atoms: C_2  and  C_3 
REMARK    2  A    between atoms: C_3  and  N_4 
REMARK    3  A    between atoms: N_4  and  C_5 
REMARK    4  A    between atoms: C_7  and  N_8 
REMARK    5  A    between atoms: N_8  and  C_9 
REMARK    6  A    between atoms: C_9  and  C_10 
REMARK    7  A    between atoms: C_10  and  C_11 
REMARK    8  A    between atoms: C_14  and  O_15 
ROOT
HETATM    1  C   UNL     1      29.044  44.297  54.720  1.00  0.00     0.119 A 
HETATM    2  N   UNL     1      28.783  43.138  54.086  1.00  0.00    -0.207 NA
HETATM    3  C   UNL     1      27.657  43.063  53.368  1.00  0.00     0.181 A 
HETATM    4  N   UNL     1      26.779  44.055  53.274  1.00  0.00    -0.330 N 
HETATM    5  H   UNL     1      25.925  43.870  52.766  1.00  0.00     0.168 HD
HETATM    6  C   UNL     1      27.003  45.236  53.859  1.00  0.00     0.048 A 
HETATM    7  C   UNL     1      28.180  45.412  54.613  1.00  0.00     0.031 A 
HETATM    8  C   UNL     1      26.079  46.280  53.711  1.00  0.00     0.030 A 
HETATM    9  C   UNL     1      26.325  47.520  54.301  1.00  0.00     0.002 A 
HETATM   10  C   UNL     1      27.489  47.720  55.036  1.00  0.00     0.001 A 
HETATM   11  C   UNL     1      28.409  46.681  55.193  1.00  0.00     0.017 A 
ENDROOT
BRANCH   3  12
HETATM   12  N   UNL     1      27.372  41.855  52.743  1.00  0.00    -0.262 NA
HETATM   13  H   UNL     1      28.141  41.236  53.023  1.00  0.00     0.130 HD
BRANCH  12  14
HETATM   14  C   UNL     1      27.275  41.933  51.282  1.00  0.00     0.100 C 
BRANCH  14  15
HETATM   15  C   UNL     1      26.228  40.941  50.760  1.00  0.00     0.053 C 
BRANCH  15  16
HETATM   16  C   UNL     1      25.067  41.657  50.117  1.00  0.00    -0.057 A 
HETATM   17  C   UNL     1      24.433  42.722  50.766  1.00  0.00     0.010 A 
HETATM   18  C   UNL     1      23.333  43.351  50.177  1.00  0.00     0.037 A 
HETATM   19  C   UNL     1      22.857  42.939  48.931  1.00  0.00     0.068 A 
HETATM   20  C   UNL     1      23.491  41.886  48.275  1.00  0.00     0.037 A 
HETATM   21  C   UNL     1      24.589  41.249  48.865  1.00  0.00     0.010 A 
BRANCH  19  22
HETATM   22  O   UNL     1      21.774  43.637  48.474  1.00  0.00    -0.356 OA
HETATM   23  C   UNL     1      21.993  44.989  48.088  1.00  0.00     0.210 C 
ENDBRANCH  19  22
ENDBRANCH  15  16
ENDBRANCH  14  15
ENDBRANCH  12  14
ENDBRANCH   3  12
BRANCH   1  24
HETATM   24  N   UNL     1      30.228  44.416  55.459  1.00  0.00    -0.277 NA
HETATM   25  H   UNL     1      30.125  45.107  56.200  1.00  0.00     0.129 HD
BRANCH  24  26
HETATM   26  C   UNL     1      30.817  43.176  55.966  1.00  0.00     0.093 C 
BRANCH  26  27
HETATM   27  C   UNL     1      31.776  43.482  57.118  1.00  0.00     0.010 C 
HETATM   28  C   UNL     1      31.223  44.520  58.085  1.00  0.00     0.006 C 
ENDBRANCH  26  27
ENDBRANCH  24  26
ENDBRANCH   1  24
TORSDOF 8
ENDMDL
