MODEL 1
REMARK VINA RESULT:      -9.8      0.000      0.000
REMARK  5 active torsions:
REMARK  status: ('A' for Active; 'I' for Inactive)
REMARK    1  A    between atoms: C_8  and  N_9 
REMARK    2  A    between atoms: C_12  and  N_13 
REMARK    3  A    between atoms: N_13  and  C_15 
REMARK    4  A    between atoms: C_15  and  C_16 
REMARK    5  A    between atoms: C_17  and  C_18 
ROOT
HETATM    1  N   UNL     1      26.523  43.414  53.301  1.00  0.00    -0.067 N 
HETATM    2  H   UNL     1      26.375  42.408  53.453  1.00  0.00     0.280 HD
HETATM    3  C   UNL     1      25.191  43.979  52.856  1.00  0.00     0.270 C 
ENDROOT
BRANCH   1   4
HETATM    4  C   UNL     1      27.684  43.614  52.306  1.00  0.00     0.190 C 
HETATM    5  C   UNL     1      28.900  42.760  52.702  1.00  0.00     0.048 C 
HETATM    6  C   UNL     1      28.753  41.284  52.326  1.00  0.00     0.099 C 
HETATM    7  N   UNL     1      28.429  41.184  50.896  1.00  0.00    -0.268 NA
HETATM    8  C   UNL     1      27.187  41.859  50.508  1.00  0.00     0.099 C 
HETATM    9  C   UNL     1      27.314  43.344  50.839  1.00  0.00     0.048 C 
BRANCH   7  10
HETATM   10  C   UNL     1      28.607  39.904  50.348  1.00  0.00     0.109 A 
HETATM   11  N   UNL     1      29.083  38.911  51.119  1.00  0.00    -0.224 NA
HETATM   12  C   UNL     1      29.312  37.704  50.546  1.00  0.00     0.102 A 
HETATM   13  N   UNL     1      29.096  37.456  49.248  1.00  0.00    -0.348 N 
HETATM   14  C   UNL     1      29.881  36.614  51.398  1.00  0.00     0.091 C 
HETATM   15  C   UNL     1      28.620  38.424  48.449  1.00  0.00     0.009 A 
HETATM   16  H   UNL     1      29.307  36.533  48.871  1.00  0.00     0.167 HD
HETATM   17  C   UNL     1      28.402  38.130  47.000  1.00  0.00     0.068 C 
HETATM   18  C   UNL     1      28.368  39.684  48.995  1.00  0.00     0.069 A 
ENDBRANCH   7  10
ENDBRANCH   1   4
BRANCH   1  19
HETATM   19  C   UNL     1      26.879  43.989  54.684  1.00  0.00     0.277 C 
BRANCH  19  20
HETATM   20  C   UNL     1      27.339  45.400  54.647  1.00  0.00     0.016 A 
HETATM   21  C   UNL     1      28.487  45.974  55.274  1.00  0.00     0.096 A 
HETATM   22  N   UNL     1      28.507  47.300  55.103  1.00  0.00    -0.174 NA
HETATM   23  N   UNL     1      27.486  47.564  54.280  1.00  0.00    -0.288 N 
HETATM   24  H   UNL     1      27.356  48.523  53.966  1.00  0.00     0.188 HD
HETATM   25  C   UNL     1      26.731  46.461  54.004  1.00  0.00     0.120 A 
BRANCH  21  26
HETATM   26  C   UNL     1      29.519  45.314  56.068  1.00  0.00    -0.005 A 
HETATM   27  C   UNL     1      29.798  45.737  57.374  1.00  0.00     0.014 A 
HETATM   28  C   UNL     1      30.773  45.084  58.132  1.00  0.00     0.001 A 
HETATM   29  C   UNL     1      31.467  44.001  57.593  1.00  0.00     0.000 A 
HETATM   30  C   UNL     1      31.184  43.565  56.300  1.00  0.00     0.001 A 
HETATM   31  C   UNL     1      30.212  44.217  55.540  1.00  0.00     0.014 A 
ENDBRANCH  21  26
ENDBRANCH  19  20
ENDBRANCH   1  19
TORSDOF 5
ENDMDL
MODEL 2
REMARK VINA RESULT:      -9.6      3.578      6.778
REMARK  5 active torsions:
REMARK  status: ('A' for Active; 'I' for Inactive)
REMARK    1  A    between atoms: C_8  and  N_9 
REMARK    2  A    between atoms: C_12  and  N_13 
REMARK    3  A    between atoms: N_13  and  C_15 
REMARK    4  A    between atoms: C_15  and  C_16 
REMARK    5  A    between atoms: C_17  and  C_18 
ROOT
HETATM    1  N   UNL     1      26.141  43.929  53.557  1.00  0.00    -0.067 N 
HETATM    2  H   UNL     1      25.747  43.308  52.839  1.00  0.00     0.280 HD
HETATM    3  C   UNL     1      24.971  44.430  54.377  1.00  0.00     0.270 C 
ENDROOT
BRANCH   1   4
HETATM    4  C   UNL     1      26.981  45.028  52.876  1.00  0.00     0.190 C 
HETATM    5  C   UNL     1      27.118  44.758  51.368  1.00  0.00     0.048 C 
HETATM    6  C   UNL     1      25.868  45.135  50.569  1.00  0.00     0.099 C 
HETATM    7  N   UNL     1      25.510  46.528  50.868  1.00  0.00    -0.268 NA
HETATM    8  C   UNL     1      25.219  46.789  52.281  1.00  0.00     0.099 C 
HETATM    9  C   UNL     1      26.460  46.456  53.105  1.00  0.00     0.048 C 
BRANCH   7  10
HETATM   10  C   UNL     1      24.610  47.104  49.958  1.00  0.00     0.109 A 
HETATM   11  N   UNL     1      24.614  48.436  49.771  1.00  0.00    -0.224 NA
HETATM   12  C   UNL     1      23.687  48.972  48.940  1.00  0.00     0.102 A 
HETATM   13  N   UNL     1      22.762  48.243  48.305  1.00  0.00    -0.348 N 
HETATM   14  C   UNL     1      23.669  50.459  48.768  1.00  0.00     0.091 C 
HETATM   15  C   UNL     1      22.729  46.911  48.467  1.00  0.00     0.009 A 
HETATM   16  H   UNL     1      22.078  48.708  47.709  1.00  0.00     0.167 HD
HETATM   17  C   UNL     1      21.677  46.118  47.761  1.00  0.00     0.068 C 
HETATM   18  C   UNL     1      23.665  46.313  49.313  1.00  0.00     0.069 A 
ENDBRANCH   7  10
ENDBRANCH   1   4
BRANCH   1  19
HETATM   19  C   UNL     1      27.025  43.027  54.437  1.00  0.00     0.277 C 
BRANCH  19  20
HETATM   20  C   UNL     1      28.312  42.647  53.804  1.00  0.00     0.016 A 
HETATM   21  C   UNL     1      29.637  42.978  54.223  1.00  0.00     0.096 A 
HETATM   22  N   UNL     1      30.537  42.547  53.333  1.00  0.00    -0.174 NA
HETATM   23  N   UNL     1      29.838  41.842  52.438  1.00  0.00    -0.288 N 
HETATM   24  H   UNL     1      30.345  41.365  51.695  1.00  0.00     0.188 HD
HETATM   25  C   UNL     1      28.492  41.899  52.656  1.00  0.00     0.120 A 
BRANCH  21  26
HETATM   26  C   UNL     1      30.062  43.733  55.398  1.00  0.00    -0.005 A 
HETATM   27  C   UNL     1      30.989  43.195  56.299  1.00  0.00     0.014 A 
HETATM   28  C   UNL     1      31.405  43.935  57.409  1.00  0.00     0.001 A 
HETATM   29  C   UNL     1      30.901  45.219  57.619  1.00  0.00     0.000 A 
HETATM   30  C   UNL     1      29.989  45.767  56.719  1.00  0.00     0.001 A 
HETATM   31  C   UNL     1      29.572  45.028  55.611  1.00  0.00     0.014 A 
ENDBRANCH  21  26
ENDBRANCH  19  20
ENDBRANCH   1  19
TORSDOF 5
ENDMDL
MODEL 3
REMARK VINA RESULT:      -9.6      3.369      6.498
REMARK  5 active torsions:
REMARK  status: ('A' for Active; 'I' for Inactive)
REMARK    1  A    between atoms: C_8  and  N_9 
REMARK    2  A    between atoms: C_12  and  N_13 
REMARK    3  A    between atoms: N_13  and  C_15 
REMARK    4  A    between atoms: C_15  and  C_16 
REMARK    5  A    between atoms: C_17  and  C_18 
ROOT
HETATM    1  N   UNL     1      27.886  43.985  52.654  1.00  0.00    -0.067 N 
HETATM    2  H   UNL     1      28.172  44.950  52.441  1.00  0.00     0.280 HD
HETATM    3  C   UNL     1      29.135  43.136  52.548  1.00  0.00     0.270 C 
ENDROOT
BRANCH   1   4
HETATM    4  C   UNL     1      26.734  43.576  51.714  1.00  0.00     0.190 C 
HETATM    5  C   UNL     1      25.416  44.244  52.140  1.00  0.00     0.048 C 
HETATM    6  C   UNL     1      25.316  45.711  51.719  1.00  0.00     0.099 C 
HETATM    7  N   UNL     1      25.567  45.814  50.275  1.00  0.00    -0.268 NA
HETATM    8  C   UNL     1      26.883  45.328  49.852  1.00  0.00     0.099 C 
HETATM    9  C   UNL     1      27.002  43.852  50.226  1.00  0.00     0.048 C 
BRANCH   7  10
HETATM   10  C   UNL     1      25.170  47.032  49.701  1.00  0.00     0.109 A 
HETATM   11  N   UNL     1      26.102  47.921  49.315  1.00  0.00    -0.224 NA
HETATM   12  C   UNL     1      25.690  49.117  48.829  1.00  0.00     0.102 A 
HETATM   13  N   UNL     1      24.400  49.461  48.725  1.00  0.00    -0.348 N 
HETATM   14  C   UNL     1      26.731  50.118  48.441  1.00  0.00     0.091 C 
HETATM   15  C   UNL     1      23.443  48.598  49.099  1.00  0.00     0.009 A 
HETATM   16  H   UNL     1      24.154  50.384  48.371  1.00  0.00     0.167 HD
HETATM   17  C   UNL     1      22.010  49.008  48.989  1.00  0.00     0.068 C 
HETATM   18  C   UNL     1      23.819  47.353  49.605  1.00  0.00     0.069 A 
ENDBRANCH   7  10
ENDBRANCH   1   4
BRANCH   1  19
HETATM   19  C   UNL     1      27.417  44.012  54.120  1.00  0.00     0.277 C 
BRANCH  19  20
HETATM   20  C   UNL     1      27.555  45.340  54.769  1.00  0.00     0.016 A 
HETATM   21  C   UNL     1      28.526  45.761  55.728  1.00  0.00     0.096 A 
HETATM   22  N   UNL     1      28.258  46.996  56.164  1.00  0.00    -0.174 NA
HETATM   23  N   UNL     1      27.232  47.418  55.418  1.00  0.00    -0.288 N 
HETATM   24  H   UNL     1      26.902  48.372  55.545  1.00  0.00     0.188 HD
HETATM   25  C   UNL     1      26.749  46.448  54.588  1.00  0.00     0.120 A 
BRANCH  21  26
HETATM   26  C   UNL     1      29.653  45.011  56.276  1.00  0.00    -0.005 A 
HETATM   27  C   UNL     1      30.292  44.022  55.519  1.00  0.00     0.014 A 
HETATM   28  C   UNL     1      31.383  43.326  56.046  1.00  0.00     0.001 A 
HETATM   29  C   UNL     1      31.845  43.621  57.328  1.00  0.00     0.000 A 
HETATM   30  C   UNL     1      31.223  44.614  58.083  1.00  0.00     0.001 A 
HETATM   31  C   UNL     1      30.132  45.309  57.558  1.00  0.00     0.014 A 
ENDBRANCH  21  26
ENDBRANCH  19  20
ENDBRANCH   1  19
TORSDOF 5
ENDMDL
MODEL 4
REMARK VINA RESULT:      -9.2      4.290      7.579
REMARK  5 active torsions:
REMARK  status: ('A' for Active; 'I' for Inactive)
REMARK    1  A    between atoms: C_8  and  N_9 
REMARK    2  A    between atoms: C_12  and  N_13 
REMARK    3  A    between atoms: N_13  and  C_15 
REMARK    4  A    between atoms: C_15  and  C_16 
REMARK    5  A    between atoms: C_17  and  C_18 
ROOT
HETATM    1  N   UNL     1      27.186  44.372  50.510  1.00  0.00    -0.067 N 
HETATM    2  H   UNL     1      27.548  45.150  49.944  1.00  0.00     0.280 HD
HETATM    3  C   UNL     1      26.710  43.319  49.532  1.00  0.00     0.270 C 
ENDROOT
BRANCH   1   4
HETATM    4  C   UNL     1      26.108  44.902  51.477  1.00  0.00     0.190 C 
HETATM    5  C   UNL     1      26.215  46.428  51.634  1.00  0.00     0.048 C 
HETATM    6  C   UNL     1      25.622  47.202  50.455  1.00  0.00     0.099 C 
HETATM    7  N   UNL     1      24.243  46.748  50.229  1.00  0.00    -0.268 NA
HETATM    8  C   UNL     1      24.118  45.320  49.920  1.00  0.00     0.099 C 
HETATM    9  C   UNL     1      24.670  44.517  51.095  1.00  0.00     0.048 C 
BRANCH   7  10
HETATM   10  C   UNL     1      23.476  47.601  49.420  1.00  0.00     0.109 A 
HETATM   11  N   UNL     1      23.642  48.932  49.511  1.00  0.00    -0.224 NA
HETATM   12  C   UNL     1      22.839  49.733  48.770  1.00  0.00     0.102 A 
HETATM   13  N   UNL     1      21.881  49.265  47.959  1.00  0.00    -0.348 N 
HETATM   14  C   UNL     1      22.999  51.215  48.908  1.00  0.00     0.091 C 
HETATM   15  C   UNL     1      21.690  47.942  47.842  1.00  0.00     0.009 A 
HETATM   16  H   UNL     1      21.296  49.920  47.443  1.00  0.00     0.167 HD
HETATM   17  C   UNL     1      20.605  47.441  46.944  1.00  0.00     0.068 C 
HETATM   18  C   UNL     1      22.493  47.076  48.585  1.00  0.00     0.069 A 
ENDBRANCH   7  10
ENDBRANCH   1   4
BRANCH   1  19
HETATM   19  C   UNL     1      28.401  43.829  51.283  1.00  0.00     0.277 C 
BRANCH  19  20
HETATM   20  C   UNL     1      28.076  42.707  52.200  1.00  0.00     0.016 A 
HETATM   21  C   UNL     1      28.372  42.587  53.592  1.00  0.00     0.096 A 
HETATM   22  N   UNL     1      28.018  41.382  54.050  1.00  0.00    -0.174 NA
HETATM   23  N   UNL     1      27.390  40.788  53.029  1.00  0.00    -0.288 N 
HETATM   24  H   UNL     1      26.979  39.870  53.183  1.00  0.00     0.188 HD
HETATM   25  C   UNL     1      27.429  41.528  51.883  1.00  0.00     0.120 A 
BRANCH  21  26
HETATM   26  C   UNL     1      29.024  43.551  54.473  1.00  0.00    -0.005 A 
HETATM   27  C   UNL     1      28.396  44.757  54.808  1.00  0.00     0.014 A 
HETATM   28  C   UNL     1      29.020  45.662  55.670  1.00  0.00     0.001 A 
HETATM   29  C   UNL     1      30.272  45.362  56.208  1.00  0.00     0.000 A 
HETATM   30  C   UNL     1      30.897  44.157  55.892  1.00  0.00     0.001 A 
HETATM   31  C   UNL     1      30.275  43.254  55.029  1.00  0.00     0.014 A 
ENDBRANCH  21  26
ENDBRANCH  19  20
ENDBRANCH   1  19
TORSDOF 5
ENDMDL
MODEL 5
REMARK VINA RESULT:      -9.0     13.398     16.069
REMARK  5 active torsions:
REMARK  status: ('A' for Active; 'I' for Inactive)
REMARK    1  A    between atoms: C_8  and  N_9 
REMARK    2  A    between atoms: C_12  and  N_13 
REMARK    3  A    between atoms: N_13  and  C_15 
REMARK    4  A    between atoms: C_15  and  C_16 
REMARK    5  A    between atoms: C_17  and  C_18 
ROOT
HETATM    1  N   UNL     1      29.185  48.052  39.594  1.00  0.00    -0.067 N 
HETATM    2  H   UNL     1      28.981  48.963  40.025  1.00  0.00     0.280 HD
HETATM    3  C   UNL     1      28.753  47.000  40.593  1.00  0.00     0.270 C 
ENDROOT
BRANCH   1   4
HETATM    4  C   UNL     1      30.672  48.001  39.190  1.00  0.00     0.190 C 
HETATM    5  C   UNL     1      31.182  49.398  38.798  1.00  0.00     0.048 C 
HETATM    6  C   UNL     1      31.479  50.295  40.001  1.00  0.00     0.099 C 
HETATM    7  N   UNL     1      32.391  49.590  40.912  1.00  0.00    -0.268 NA
HETATM    8  C   UNL     1      31.869  48.322  41.431  1.00  0.00     0.099 C 
HETATM    9  C   UNL     1      31.596  47.388  40.255  1.00  0.00     0.048 C 
BRANCH   7  10
HETATM   10  C   UNL     1      33.012  50.413  41.864  1.00  0.00     0.109 A 
HETATM   11  N   UNL     1      34.333  50.649  41.779  1.00  0.00    -0.224 NA
HETATM   12  C   UNL     1      34.919  51.390  42.752  1.00  0.00     0.102 A 
HETATM   13  N   UNL     1      34.248  51.889  43.798  1.00  0.00    -0.348 N 
HETATM   14  C   UNL     1      36.396  51.614  42.676  1.00  0.00     0.091 C 
HETATM   15  C   UNL     1      32.928  51.675  43.913  1.00  0.00     0.009 A 
HETATM   16  H   UNL     1      34.749  52.422  44.507  1.00  0.00     0.167 HD
HETATM   17  C   UNL     1      32.202  52.227  45.097  1.00  0.00     0.068 C 
HETATM   18  C   UNL     1      32.281  50.918  42.935  1.00  0.00     0.069 A 
ENDBRANCH   7  10
ENDBRANCH   1   4
BRANCH   1  19
HETATM   19  C   UNL     1      28.275  47.974  38.355  1.00  0.00     0.277 C 
BRANCH  19  20
HETATM   20  C   UNL     1      26.913  48.520  38.575  1.00  0.00     0.016 A 
HETATM   21  C   UNL     1      26.544  49.808  39.070  1.00  0.00     0.096 A 
HETATM   22  N   UNL     1      25.219  49.891  39.235  1.00  0.00    -0.174 NA
HETATM   23  N   UNL     1      24.730  48.750  38.738  1.00  0.00    -0.288 N 
HETATM   24  H   UNL     1      23.720  48.630  38.708  1.00  0.00     0.188 HD
HETATM   25  C   UNL     1      25.709  47.876  38.361  1.00  0.00     0.120 A 
BRANCH  21  26
HETATM   26  C   UNL     1      27.407  50.926  39.439  1.00  0.00    -0.005 A 
HETATM   27  C   UNL     1      28.060  51.682  38.458  1.00  0.00     0.014 A 
HETATM   28  C   UNL     1      28.866  52.764  38.822  1.00  0.00     0.001 A 
HETATM   29  C   UNL     1      29.017  53.099  40.167  1.00  0.00     0.000 A 
HETATM   30  C   UNL     1      28.359  52.360  41.149  1.00  0.00     0.001 A 
HETATM   31  C   UNL     1      27.555  51.279  40.787  1.00  0.00     0.014 A 
ENDBRANCH  21  26
ENDBRANCH  19  20
ENDBRANCH   1  19
TORSDOF 5
ENDMDL
MODEL 6
REMARK VINA RESULT:      -9.0      4.738      7.315
REMARK  5 active torsions:
REMARK  status: ('A' for Active; 'I' for Inactive)
REMARK    1  A    between atoms: C_8  and  N_9 
REMARK    2  A    between atoms: C_12  and  N_13 
REMARK    3  A    between atoms: N_13  and  C_15 
REMARK    4  A    between atoms: C_15  and  C_16 
REMARK    5  A    between atoms: C_17  and  C_18 
ROOT
HETATM    1  N   UNL     1      25.675  46.295  51.368  1.00  0.00    -0.067 N 
HETATM    2  H   UNL     1      26.527  46.142  50.812  1.00  0.00     0.280 HD
HETATM    3  C   UNL     1      26.103  47.060  52.602  1.00  0.00     0.270 C 
ENDROOT
BRANCH   1   4
HETATM    4  C   UNL     1      24.994  44.940  51.641  1.00  0.00     0.190 C 
HETATM    5  C   UNL     1      24.521  44.290  50.329  1.00  0.00     0.048 C 
HETATM    6  C   UNL     1      25.651  43.629  49.538  1.00  0.00     0.099 C 
HETATM    7  N   UNL     1      26.364  42.690  50.414  1.00  0.00    -0.268 NA
HETATM    8  C   UNL     1      26.965  43.306  51.600  1.00  0.00     0.099 C 
HETATM    9  C   UNL     1      25.857  43.945  52.433  1.00  0.00     0.048 C 
BRANCH   7  10
HETATM   10  C   UNL     1      27.186  41.774  49.737  1.00  0.00     0.109 A 
HETATM   11  N   UNL     1      27.306  41.850  48.400  1.00  0.00    -0.224 NA
HETATM   12  C   UNL     1      28.050  40.910  47.766  1.00  0.00     0.102 A 
HETATM   13  N   UNL     1      28.661  39.905  48.406  1.00  0.00    -0.348 N 
HETATM   14  C   UNL     1      28.146  40.974  46.275  1.00  0.00     0.091 C 
HETATM   15  C   UNL     1      28.564  39.800  49.740  1.00  0.00     0.009 A 
HETATM   16  H   UNL     1      29.190  39.218  47.870  1.00  0.00     0.167 HD
HETATM   17  C   UNL     1      29.241  38.661  50.431  1.00  0.00     0.068 C 
HETATM   18  C   UNL     1      27.809  40.746  50.436  1.00  0.00     0.069 A 
ENDBRANCH   7  10
ENDBRANCH   1   4
BRANCH   1  19
HETATM   19  C   UNL     1      24.779  47.198  50.502  1.00  0.00     0.277 C 
BRANCH  19  20
HETATM   20  C   UNL     1      25.532  48.135  49.632  1.00  0.00     0.016 A 
HETATM   21  C   UNL     1      25.018  49.159  48.778  1.00  0.00     0.096 A 
HETATM   22  N   UNL     1      26.002  49.721  48.068  1.00  0.00    -0.174 NA
HETATM   23  N   UNL     1      27.131  49.181  48.539  1.00  0.00    -0.288 N 
HETATM   24  H   UNL     1      28.018  49.519  48.173  1.00  0.00     0.188 HD
HETATM   25  C   UNL     1      26.901  48.196  49.456  1.00  0.00     0.120 A 
BRANCH  21  26
HETATM   26  C   UNL     1      23.633  49.572  48.580  1.00  0.00    -0.005 A 
HETATM   27  C   UNL     1      23.220  50.872  48.896  1.00  0.00     0.014 A 
HETATM   28  C   UNL     1      21.895  51.263  48.681  1.00  0.00     0.001 A 
HETATM   29  C   UNL     1      20.980  50.359  48.143  1.00  0.00     0.000 A 
HETATM   30  C   UNL     1      21.387  49.068  47.812  1.00  0.00     0.001 A 
HETATM   31  C   UNL     1      22.708  48.676  48.028  1.00  0.00     0.014 A 
ENDBRANCH  21  26
ENDBRANCH  19  20
ENDBRANCH   1  19
TORSDOF 5
ENDMDL
MODEL 7
REMARK VINA RESULT:      -9.0     13.253     15.654
REMARK  5 active torsions:
REMARK  status: ('A' for Active; 'I' for Inactive)
REMARK    1  A    between atoms: C_8  and  N_9 
REMARK    2  A    between atoms: C_12  and  N_13 
REMARK    3  A    between atoms: N_13  and  C_15 
REMARK    4  A    between atoms: C_15  and  C_16 
REMARK    5  A    between atoms: C_17  and  C_18 
ROOT
HETATM    1  N   UNL     1      27.798  50.625  38.943  1.00  0.00    -0.067 N 
HETATM    2  H   UNL     1      28.469  49.870  38.747  1.00  0.00     0.280 HD
HETATM    3  C   UNL     1      26.642  50.426  37.987  1.00  0.00     0.270 C 
ENDROOT
BRANCH   1   4
HETATM    4  C   UNL     1      28.514  51.986  38.830  1.00  0.00     0.190 C 
HETATM    5  C   UNL     1      28.711  52.618  40.219  1.00  0.00     0.048 C 
HETATM    6  C   UNL     1      29.872  52.006  41.005  1.00  0.00     0.099 C 
HETATM    7  N   UNL     1      31.087  52.053  40.180  1.00  0.00    -0.268 NA
HETATM    8  C   UNL     1      30.987  51.324  38.912  1.00  0.00     0.099 C 
HETATM    9  C   UNL     1      29.858  51.935  38.086  1.00  0.00     0.048 C 
BRANCH   7  10
HETATM   10  C   UNL     1      32.280  51.849  40.891  1.00  0.00     0.109 A 
HETATM   11  N   UNL     1      32.282  51.951  42.232  1.00  0.00    -0.224 NA
HETATM   12  C   UNL     1      33.461  51.819  42.886  1.00  0.00     0.102 A 
HETATM   13  N   UNL     1      34.626  51.601  42.262  1.00  0.00    -0.348 N 
HETATM   14  C   UNL     1      33.465  51.977  44.374  1.00  0.00     0.091 C 
HETATM   15  C   UNL     1      34.661  51.491  40.925  1.00  0.00     0.009 A 
HETATM   16  H   UNL     1      35.483  51.531  42.809  1.00  0.00     0.167 HD
HETATM   17  C   UNL     1      35.974  51.264  40.248  1.00  0.00     0.068 C 
HETATM   18  C   UNL     1      33.471  51.620  40.208  1.00  0.00     0.069 A 
ENDBRANCH   7  10
ENDBRANCH   1   4
BRANCH   1  19
HETATM   19  C   UNL     1      27.312  50.376  40.382  1.00  0.00     0.277 C 
BRANCH  19  20
HETATM   20  C   UNL     1      27.082  48.944  40.698  1.00  0.00     0.016 A 
HETATM   21  C   UNL     1      28.045  47.950  41.050  1.00  0.00     0.096 A 
HETATM   22  N   UNL     1      27.469  46.747  41.153  1.00  0.00    -0.174 NA
HETATM   23  N   UNL     1      26.158  46.971  41.009  1.00  0.00    -0.288 N 
HETATM   24  H   UNL     1      25.520  46.187  41.117  1.00  0.00     0.188 HD
HETATM   25  C   UNL     1      25.876  48.270  40.699  1.00  0.00     0.120 A 
BRANCH  21  26
HETATM   26  C   UNL     1      29.486  48.097  41.231  1.00  0.00    -0.005 A 
HETATM   27  C   UNL     1      30.010  48.607  42.426  1.00  0.00     0.014 A 
HETATM   28  C   UNL     1      31.392  48.724  42.597  1.00  0.00     0.001 A 
HETATM   29  C   UNL     1      32.256  48.324  41.578  1.00  0.00     0.000 A 
HETATM   30  C   UNL     1      31.743  47.801  40.392  1.00  0.00     0.001 A 
HETATM   31  C   UNL     1      30.363  47.686  40.220  1.00  0.00     0.014 A 
ENDBRANCH  21  26
ENDBRANCH  19  20
ENDBRANCH   1  19
TORSDOF 5
ENDMDL
MODEL 8
REMARK VINA RESULT:      -8.9     13.890     15.879
REMARK  5 active torsions:
REMARK  status: ('A' for Active; 'I' for Inactive)
REMARK    1  A    between atoms: C_8  and  N_9 
REMARK    2  A    between atoms: C_12  and  N_13 
REMARK    3  A    between atoms: N_13  and  C_15 
REMARK    4  A    between atoms: C_15  and  C_16 
REMARK    5  A    between atoms: C_17  and  C_18 
ROOT
HETATM    1  N   UNL     1      30.596  51.676  41.215  1.00  0.00    -0.067 N 
HETATM    2  H   UNL     1      30.190  50.767  41.474  1.00  0.00     0.280 HD
HETATM    3  C   UNL     1      31.138  52.280  42.494  1.00  0.00     0.270 C 
ENDROOT
BRANCH   1   4
HETATM    4  C   UNL     1      29.531  52.523  40.492  1.00  0.00     0.190 C 
HETATM    5  C   UNL     1      29.470  52.167  38.996  1.00  0.00     0.048 C 
HETATM    6  C   UNL     1      28.715  50.867  38.713  1.00  0.00     0.099 C 
HETATM    7  N   UNL     1      27.386  50.939  39.335  1.00  0.00    -0.268 NA
HETATM    8  C   UNL     1      27.407  51.123  40.789  1.00  0.00     0.099 C 
HETATM    9  C   UNL     1      28.125  52.432  41.106  1.00  0.00     0.048 C 
BRANCH   7  10
HETATM   10  C   UNL     1      26.473  49.980  38.869  1.00  0.00     0.109 A 
HETATM   11  N   UNL     1      25.616  49.404  39.731  1.00  0.00    -0.224 NA
HETATM   12  C   UNL     1      24.795  48.430  39.267  1.00  0.00     0.102 A 
HETATM   13  N   UNL     1      24.802  48.008  37.996  1.00  0.00    -0.348 N 
HETATM   14  C   UNL     1      23.873  47.762  40.239  1.00  0.00     0.091 C 
HETATM   15  C   UNL     1      25.642  48.563  37.109  1.00  0.00     0.009 A 
HETATM   16  H   UNL     1      24.173  47.257  37.714  1.00  0.00     0.167 HD
HETATM   17  C   UNL     1      25.645  48.065  35.700  1.00  0.00     0.068 C 
HETATM   18  C   UNL     1      26.507  49.569  37.540  1.00  0.00     0.069 A 
ENDBRANCH   7  10
ENDBRANCH   1   4
BRANCH   1  19
HETATM   19  C   UNL     1      31.770  51.348  40.276  1.00  0.00     0.277 C 
BRANCH  19  20
HETATM   20  C   UNL     1      32.544  50.147  40.680  1.00  0.00     0.016 A 
HETATM   21  C   UNL     1      32.127  48.781  40.675  1.00  0.00     0.096 A 
HETATM   22  N   UNL     1      33.066  47.997  41.216  1.00  0.00    -0.174 NA
HETATM   23  N   UNL     1      34.111  48.801  41.439  1.00  0.00    -0.288 N 
HETATM   24  H   UNL     1      34.970  48.389  41.796  1.00  0.00     0.188 HD
HETATM   25  C   UNL     1      33.837  50.110  41.167  1.00  0.00     0.120 A 
BRANCH  21  26
HETATM   26  C   UNL     1      30.857  48.216  40.230  1.00  0.00    -0.005 A 
HETATM   27  C   UNL     1      30.695  47.763  38.915  1.00  0.00     0.014 A 
HETATM   28  C   UNL     1      29.481  47.204  38.507  1.00  0.00     0.001 A 
HETATM   29  C   UNL     1      28.428  47.086  39.413  1.00  0.00     0.000 A 
HETATM   30  C   UNL     1      28.586  47.521  40.728  1.00  0.00     0.001 A 
HETATM   31  C   UNL     1      29.797  48.082  41.136  1.00  0.00     0.014 A 
ENDBRANCH  21  26
ENDBRANCH  19  20
ENDBRANCH   1  19
TORSDOF 5
ENDMDL
MODEL 9
REMARK VINA RESULT:      -8.5      2.828      4.048
REMARK  5 active torsions:
REMARK  status: ('A' for Active; 'I' for Inactive)
REMARK    1  A    between atoms: C_8  and  N_9 
REMARK    2  A    between atoms: C_12  and  N_13 
REMARK    3  A    between atoms: N_13  and  C_15 
REMARK    4  A    between atoms: C_15  and  C_16 
REMARK    5  A    between atoms: C_17  and  C_18 
ROOT
HETATM    1  N   UNL     1      26.336  44.272  52.969  1.00  0.00    -0.067 N 
HETATM    2  H   UNL     1      26.521  43.276  52.795  1.00  0.00     0.280 HD
HETATM    3  C   UNL     1      25.389  44.331  54.149  1.00  0.00     0.270 C 
ENDROOT
BRANCH   1   4
HETATM    4  C   UNL     1      25.810  44.926  51.676  1.00  0.00     0.190 C 
HETATM    5  C   UNL     1      26.732  44.609  50.486  1.00  0.00     0.048 C 
HETATM    6  C   UNL     1      26.535  43.200  49.925  1.00  0.00     0.099 C 
HETATM    7  N   UNL     1      25.113  43.004  49.610  1.00  0.00    -0.268 NA
HETATM    8  C   UNL     1      24.213  43.146  50.759  1.00  0.00     0.099 C 
HETATM    9  C   UNL     1      24.360  44.556  51.323  1.00  0.00     0.048 C 
BRANCH   7  10
HETATM   10  C   UNL     1      24.848  41.905  48.778  1.00  0.00     0.109 A 
HETATM   11  N   UNL     1      23.587  41.662  48.379  1.00  0.00    -0.224 NA
HETATM   12  C   UNL     1      23.349  40.555  47.634  1.00  0.00     0.102 A 
HETATM   13  N   UNL     1      24.307  39.686  47.285  1.00  0.00    -0.348 N 
HETATM   14  C   UNL     1      21.939  40.266  47.228  1.00  0.00     0.091 C 
HETATM   15  C   UNL     1      25.577  39.899  47.665  1.00  0.00     0.009 A 
HETATM   16  H   UNL     1      24.061  38.861  46.741  1.00  0.00     0.167 HD
HETATM   17  C   UNL     1      26.627  38.908  47.279  1.00  0.00     0.068 C 
HETATM   18  C   UNL     1      25.870  41.027  48.433  1.00  0.00     0.069 A 
ENDBRANCH   7  10
ENDBRANCH   1   4
BRANCH   1  19
HETATM   19  C   UNL     1      27.691  44.875  53.379  1.00  0.00     0.277 C 
BRANCH  19  20
HETATM   20  C   UNL     1      28.801  43.890  53.408  1.00  0.00     0.016 A 
HETATM   21  C   UNL     1      29.798  43.708  54.415  1.00  0.00     0.096 A 
HETATM   22  N   UNL     1      30.696  42.794  54.033  1.00  0.00    -0.174 NA
HETATM   23  N   UNL     1      30.229  42.300  52.881  1.00  0.00    -0.288 N 
HETATM   24  H   UNL     1      30.736  41.535  52.443  1.00  0.00     0.188 HD
HETATM   25  C   UNL     1      29.111  42.949  52.444  1.00  0.00     0.120 A 
BRANCH  21  26
HETATM   26  C   UNL     1      29.950  44.409  55.686  1.00  0.00    -0.005 A 
HETATM   27  C   UNL     1      29.096  45.464  56.030  1.00  0.00     0.014 A 
HETATM   28  C   UNL     1      29.237  46.113  57.259  1.00  0.00     0.001 A 
HETATM   29  C   UNL     1      30.227  45.706  58.153  1.00  0.00     0.000 A 
HETATM   30  C   UNL     1      31.071  44.647  57.825  1.00  0.00     0.001 A 
HETATM   31  C   UNL     1      30.933  43.999  56.596  1.00  0.00     0.014 A 
ENDBRANCH  21  26
ENDBRANCH  19  20
ENDBRANCH   1  19
TORSDOF 5
ENDMDL
MODEL 10
REMARK VINA RESULT:      -8.3     11.006     14.874
REMARK  5 active torsions:
REMARK  status: ('A' for Active; 'I' for Inactive)
REMARK    1  A    between atoms: C_8  and  N_9 
REMARK    2  A    between atoms: C_12  and  N_13 
REMARK    3  A    between atoms: N_13  and  C_15 
REMARK    4  A    between atoms: C_15  and  C_16 
REMARK    5  A    between atoms: C_17  and  C_18 
ROOT
HETATM    1  N   UNL     1      19.495  47.325  47.149  1.00  0.00    -0.067 N 
HETATM    2  H   UNL     1      19.666  48.331  47.026  1.00  0.00     0.280 HD
HETATM    3  C   UNL     1      20.223  46.627  46.020  1.00  0.00     0.270 C 
ENDROOT
BRANCH   1   4
HETATM    4  C   UNL     1      17.976  47.068  47.205  1.00  0.00     0.190 C 
HETATM    5  C   UNL     1      17.392  47.524  48.553  1.00  0.00     0.048 C 
HETATM    6  C   UNL     1      17.200  49.038  48.650  1.00  0.00     0.099 C 
HETATM    7  N   UNL     1      16.405  49.495  47.502  1.00  0.00    -0.268 NA
HETATM    8  C   UNL     1      17.010  49.215  46.196  1.00  0.00     0.099 C 
HETATM    9  C   UNL     1      17.183  47.705  46.052  1.00  0.00     0.048 C 
BRANCH   7  10
HETATM   10  C   UNL     1      15.866  50.783  47.644  1.00  0.00     0.109 A 
HETATM   11  N   UNL     1      15.608  51.521  46.550  1.00  0.00    -0.224 NA
HETATM   12  C   UNL     1      15.153  52.787  46.719  1.00  0.00     0.102 A 
HETATM   13  N   UNL     1      14.959  53.342  47.922  1.00  0.00    -0.348 N 
HETATM   14  C   UNL     1      14.908  53.618  45.499  1.00  0.00     0.091 C 
HETATM   15  C   UNL     1      15.204  52.634  49.035  1.00  0.00     0.009 A 
HETATM   16  H   UNL     1      14.635  54.306  47.983  1.00  0.00     0.167 HD
HETATM   17  C   UNL     1      14.996  53.278  50.367  1.00  0.00     0.068 C 
HETATM   18  C   UNL     1      15.673  51.325  48.911  1.00  0.00     0.069 A 
ENDBRANCH   7  10
ENDBRANCH   1   4
BRANCH   1  19
HETATM   19  C   UNL     1      20.165  46.957  48.485  1.00  0.00     0.277 C 
BRANCH  19  20
HETATM   20  C   UNL     1      21.464  47.638  48.712  1.00  0.00     0.016 A 
HETATM   21  C   UNL     1      21.718  49.036  48.860  1.00  0.00     0.096 A 
HETATM   22  N   UNL     1      23.031  49.274  48.937  1.00  0.00    -0.174 NA
HETATM   23  N   UNL     1      23.606  48.067  48.977  1.00  0.00    -0.288 N 
HETATM   24  H   UNL     1      24.615  48.016  49.100  1.00  0.00     0.188 HD
HETATM   25  C   UNL     1      22.711  47.050  48.810  1.00  0.00     0.120 A 
BRANCH  21  26
HETATM   26  C   UNL     1      20.764  50.140  48.871  1.00  0.00    -0.005 A 
HETATM   27  C   UNL     1      20.271  50.650  50.079  1.00  0.00     0.014 A 
HETATM   28  C   UNL     1      19.375  51.722  50.078  1.00  0.00     0.001 A 
HETATM   29  C   UNL     1      18.975  52.295  48.871  1.00  0.00     0.000 A 
HETATM   30  C   UNL     1      19.472  51.803  47.666  1.00  0.00     0.001 A 
HETATM   31  C   UNL     1      20.365  50.731  47.665  1.00  0.00     0.014 A 
ENDBRANCH  21  26
ENDBRANCH  19  20
ENDBRANCH   1  19
TORSDOF 5
ENDMDL
