MODEL 1
REMARK VINA RESULT:      -7.9      0.000      0.000
REMARK  6 active torsions:
REMARK  status: ('A' for Active; 'I' for Inactive)
REMARK    1  A    between atoms: C_2  and  C_3 
REMARK    2  A    between atoms: C_3  and  N_4 
REMARK    3  A    between atoms: C_3  and  C_15 
REMARK       I    between atoms: N_4  and  C_5 
REMARK    4  A    between atoms: C_5  and  C_6 
REMARK    5  A    between atoms: C_6  and  C_7 
REMARK    6  A    between atoms: C_16  and  O_17 
ROOT
HETATM    1  C   UNL     1      25.638  46.838  51.173  1.00  0.00     0.128 C 
ENDROOT
BRANCH   1   2
HETATM    2  C   UNL     1      25.740  45.352  50.661  1.00  0.00    -0.026 C 
HETATM    3  C   UNL     1      27.203  44.866  50.799  1.00  0.00     0.016 C 
HETATM    4  C   UNL     1      25.320  45.187  49.188  1.00  0.00     0.016 C 
HETATM    5  C   UNL     1      24.867  44.412  51.519  1.00  0.00     0.016 C 
ENDBRANCH   1   2
BRANCH   1   6
HETATM    6  N   UNL     1      26.595  47.095  52.259  1.00  0.00    -0.351 N 
HETATM    7  C   UNL     1      26.258  46.981  53.589  1.00  0.00     0.222 C 
HETATM    8  O   UNL     1      25.177  46.560  53.990  1.00  0.00    -0.273 OA
HETATM    9  H   UNL     1      27.496  47.476  52.013  1.00  0.00     0.163 HD
BRANCH   7  10
HETATM   10  C   UNL     1      27.359  47.390  54.553  1.00  0.00     0.142 C 
BRANCH  10  11
HETATM   11  C   UNL     1      28.278  46.265  54.959  1.00  0.00    -0.032 A 
HETATM   12  C   UNL     1      29.342  46.459  55.839  1.00  0.00     0.126 A 
HETATM   13  N   UNL     1      30.223  45.493  56.189  1.00  0.00    -0.248 NA
HETATM   14  C   UNL     1      30.047  44.285  55.625  1.00  0.00     0.125 A 
HETATM   15 CL   UNL     1      31.197  43.100  56.087  1.00  0.00    -0.063 Cl
HETATM   16  C   UNL     1      29.038  43.982  54.728  1.00  0.00     0.045 A 
HETATM   17  C   UNL     1      28.142  44.994  54.389  1.00  0.00     0.012 A 
ENDBRANCH  10  11
ENDBRANCH   7  10
ENDBRANCH   1   6
BRANCH   1  18
HETATM   18  C   UNL     1      25.775  47.912  50.087  1.00  0.00    -0.001 A 
HETATM   19  C   UNL     1      24.634  48.428  49.429  1.00  0.00     0.076 A 
HETATM   20  C   UNL     1      24.780  49.415  48.445  1.00  0.00     0.037 A 
HETATM   21  C   UNL     1      26.044  49.889  48.096  1.00  0.00     0.003 A 
HETATM   22  C   UNL     1      27.175  49.382  48.725  1.00  0.00     0.001 A 
HETATM   23  C   UNL     1      27.041  48.405  49.711  1.00  0.00     0.012 A 
BRANCH  19  24
HETATM   24  O   UNL     1      23.426  47.907  49.813  1.00  0.00    -0.355 OA
HETATM   25  C   UNL     1      22.265  48.348  49.124  1.00  0.00     0.210 C 
ENDBRANCH  19  24
ENDBRANCH   1  18
TORSDOF 6
ENDMDL
MODEL 2
REMARK VINA RESULT:      -7.9      2.614      4.098
REMARK  6 active torsions:
REMARK  status: ('A' for Active; 'I' for Inactive)
REMARK    1  A    between atoms: C_2  and  C_3 
REMARK    2  A    between atoms: C_3  and  N_4 
REMARK    3  A    between atoms: C_3  and  C_15 
REMARK       I    between atoms: N_4  and  C_5 
REMARK    4  A    between atoms: C_5  and  C_6 
REMARK    5  A    between atoms: C_6  and  C_7 
REMARK    6  A    between atoms: C_16  and  O_17 
ROOT
HETATM    1  C   UNL     1      26.735  42.850  51.427  1.00  0.00     0.128 C 
ENDROOT
BRANCH   1   2
HETATM    2  C   UNL     1      26.588  41.801  50.262  1.00  0.00    -0.026 C 
HETATM    3  C   UNL     1      26.221  40.423  50.862  1.00  0.00     0.016 C 
HETATM    4  C   UNL     1      27.874  41.631  49.431  1.00  0.00     0.016 C 
HETATM    5  C   UNL     1      25.445  42.198  49.303  1.00  0.00     0.016 C 
ENDBRANCH   1   2
BRANCH   1   6
HETATM    6  N   UNL     1      28.100  42.850  51.975  1.00  0.00    -0.351 N 
HETATM    7  C   UNL     1      28.392  42.402  53.243  1.00  0.00     0.222 C 
HETATM    8  O   UNL     1      27.575  41.869  53.988  1.00  0.00    -0.273 OA
HETATM    9  H   UNL     1      28.824  43.302  51.436  1.00  0.00     0.163 HD
BRANCH   7  10
HETATM   10  C   UNL     1      29.844  42.584  53.654  1.00  0.00     0.142 C 
BRANCH  10  11
HETATM   11  C   UNL     1      30.042  43.468  54.860  1.00  0.00    -0.032 A 
HETATM   12  C   UNL     1      29.350  44.668  55.019  1.00  0.00     0.126 A 
HETATM   13  N   UNL     1      29.534  45.519  56.056  1.00  0.00    -0.248 NA
HETATM   14  C   UNL     1      30.461  45.166  56.966  1.00  0.00     0.125 A 
HETATM   15 CL   UNL     1      30.670  46.282  58.251  1.00  0.00    -0.063 Cl
HETATM   16  C   UNL     1      31.218  44.010  56.901  1.00  0.00     0.045 A 
HETATM   17  C   UNL     1      31.004  43.150  55.826  1.00  0.00     0.012 A 
ENDBRANCH  10  11
ENDBRANCH   7  10
ENDBRANCH   1   6
BRANCH   1  18
HETATM   18  C   UNL     1      26.310  44.280  51.074  1.00  0.00    -0.001 A 
HETATM   19  C   UNL     1      25.292  44.936  51.805  1.00  0.00     0.076 A 
HETATM   20  C   UNL     1      24.925  46.246  51.471  1.00  0.00     0.037 A 
HETATM   21  C   UNL     1      25.544  46.911  50.413  1.00  0.00     0.003 A 
HETATM   22  C   UNL     1      26.536  46.274  49.678  1.00  0.00     0.001 A 
HETATM   23  C   UNL     1      26.916  44.973  50.006  1.00  0.00     0.012 A 
BRANCH  19  24
HETATM   24  O   UNL     1      24.719  44.218  52.822  1.00  0.00    -0.355 OA
HETATM   25  C   UNL     1      25.160  44.480  54.147  1.00  0.00     0.210 C 
ENDBRANCH  19  24
ENDBRANCH   1  18
TORSDOF 6
ENDMDL
MODEL 3
REMARK VINA RESULT:      -7.1      2.988      7.200
REMARK  6 active torsions:
REMARK  status: ('A' for Active; 'I' for Inactive)
REMARK    1  A    between atoms: C_2  and  C_3 
REMARK    2  A    between atoms: C_3  and  N_4 
REMARK    3  A    between atoms: C_3  and  C_15 
REMARK       I    between atoms: N_4  and  C_5 
REMARK    4  A    between atoms: C_5  and  C_6 
REMARK    5  A    between atoms: C_6  and  C_7 
REMARK    6  A    between atoms: C_16  and  O_17 
ROOT
HETATM    1  C   UNL     1      27.267  45.484  54.530  1.00  0.00     0.128 C 
ENDROOT
BRANCH   1   2
HETATM    2  C   UNL     1      27.192  46.983  55.008  1.00  0.00    -0.026 C 
HETATM    3  C   UNL     1      28.414  47.755  54.456  1.00  0.00     0.016 C 
HETATM    4  C   UNL     1      27.187  47.132  56.542  1.00  0.00     0.016 C 
HETATM    5  C   UNL     1      25.928  47.676  54.455  1.00  0.00     0.016 C 
ENDBRANCH   1   2
BRANCH   1   6
HETATM    6  N   UNL     1      27.047  45.377  53.080  1.00  0.00    -0.351 N 
HETATM    7  C   UNL     1      25.902  44.838  52.539  1.00  0.00     0.222 C 
HETATM    8  O   UNL     1      24.925  44.499  53.200  1.00  0.00    -0.273 OA
HETATM    9  H   UNL     1      27.817  45.605  52.469  1.00  0.00     0.163 HD
BRANCH   7  10
HETATM   10  C   UNL     1      25.917  44.723  51.024  1.00  0.00     0.142 C 
BRANCH  10  11
HETATM   11  C   UNL     1      26.064  46.039  50.303  1.00  0.00    -0.032 A 
HETATM   12  C   UNL     1      27.224  46.376  49.606  1.00  0.00     0.126 A 
HETATM   13  N   UNL     1      27.421  47.566  48.991  1.00  0.00    -0.248 NA
HETATM   14  C   UNL     1      26.427  48.466  49.089  1.00  0.00     0.125 A 
HETATM   15 CL   UNL     1      26.730  49.962  48.308  1.00  0.00    -0.063 Cl
HETATM   16  C   UNL     1      25.241  48.248  49.768  1.00  0.00     0.045 A 
HETATM   17  C   UNL     1      25.062  47.013  50.387  1.00  0.00     0.012 A 
ENDBRANCH  10  11
ENDBRANCH   7  10
ENDBRANCH   1   6
BRANCH   1  18
HETATM   18  C   UNL     1      28.546  44.737  54.926  1.00  0.00    -0.001 A 
HETATM   19  C   UNL     1      28.751  43.393  54.536  1.00  0.00     0.076 A 
HETATM   20  C   UNL     1      29.931  42.731  54.901  1.00  0.00     0.037 A 
HETATM   21  C   UNL     1      30.905  43.381  55.659  1.00  0.00     0.003 A 
HETATM   22  C   UNL     1      30.712  44.697  56.059  1.00  0.00     0.001 A 
HETATM   23  C   UNL     1      29.545  45.368  55.695  1.00  0.00     0.012 A 
BRANCH  19  24
HETATM   24  O   UNL     1      27.747  42.815  53.805  1.00  0.00    -0.355 OA
HETATM   25  C   UNL     1      27.980  41.522  53.265  1.00  0.00     0.210 C 
ENDBRANCH  19  24
ENDBRANCH   1  18
TORSDOF 6
ENDMDL
MODEL 4
REMARK VINA RESULT:      -7.0     12.096     14.325
REMARK  6 active torsions:
REMARK  status: ('A' for Active; 'I' for Inactive)
REMARK    1  A    between atoms: C_2  and  C_3 
REMARK    2  A    between atoms: C_3  and  N_4 
REMARK    3  A    between atoms: C_3  and  C_15 
REMARK       I    between atoms: N_4  and  C_5 
REMARK    4  A    between atoms: C_5  and  C_6 
REMARK    5  A    between atoms: C_6  and  C_7 
REMARK    6  A    between atoms: C_16  and  O_17 
ROOT
HETATM    1  C   UNL     1      32.287  50.435  41.194  1.00  0.00     0.128 C 
ENDROOT
BRANCH   1   2
HETATM    2  C   UNL     1      31.985  48.892  41.304  1.00  0.00    -0.026 C 
HETATM    3  C   UNL     1      31.355  48.403  39.978  1.00  0.00     0.016 C 
HETATM    4  C   UNL     1      31.016  48.543  42.450  1.00  0.00     0.016 C 
HETATM    5  C   UNL     1      33.287  48.089  41.513  1.00  0.00     0.016 C 
ENDBRANCH   1   2
BRANCH   1   6
HETATM    6  N   UNL     1      31.086  51.186  40.801  1.00  0.00    -0.351 N 
HETATM    7  C   UNL     1      31.127  52.511  40.429  1.00  0.00     0.222 C 
HETATM    8  O   UNL     1      32.163  53.154  40.289  1.00  0.00    -0.273 OA
HETATM    9  H   UNL     1      30.190  50.738  40.920  1.00  0.00     0.163 HD
BRANCH   7  10
HETATM   10  C   UNL     1      29.764  53.129  40.162  1.00  0.00     0.142 C 
BRANCH  10  11
HETATM   11  C   UNL     1      28.722  52.150  39.683  1.00  0.00    -0.032 A 
HETATM   12  C   UNL     1      28.461  51.949  38.328  1.00  0.00     0.126 A 
HETATM   13  N   UNL     1      27.500  51.122  37.855  1.00  0.00    -0.248 NA
HETATM   14  C   UNL     1      26.753  50.481  38.771  1.00  0.00     0.125 A 
HETATM   15 CL   UNL     1      25.539  49.458  38.123  1.00  0.00    -0.063 Cl
HETATM   16  C   UNL     1      26.911  50.615  40.139  1.00  0.00     0.045 A 
HETATM   17  C   UNL     1      27.911  51.469  40.599  1.00  0.00     0.012 A 
ENDBRANCH  10  11
ENDBRANCH   7  10
ENDBRANCH   1   6
BRANCH   1  18
HETATM   18  C   UNL     1      32.918  51.065  42.442  1.00  0.00    -0.001 A 
HETATM   19  C   UNL     1      34.293  51.395  42.472  1.00  0.00     0.076 A 
HETATM   20  C   UNL     1      34.847  51.979  43.618  1.00  0.00     0.037 A 
HETATM   21  C   UNL     1      34.059  52.227  44.742  1.00  0.00     0.003 A 
HETATM   22  C   UNL     1      32.710  51.896  44.731  1.00  0.00     0.001 A 
HETATM   23  C   UNL     1      32.145  51.322  43.593  1.00  0.00     0.012 A 
BRANCH  19  24
HETATM   24  O   UNL     1      35.008  51.111  41.338  1.00  0.00    -0.355 OA
HETATM   25  C   UNL     1      36.320  50.589  41.496  1.00  0.00     0.210 C 
ENDBRANCH  19  24
ENDBRANCH   1  18
TORSDOF 6
ENDMDL
MODEL 5
REMARK VINA RESULT:      -6.8     11.847     14.279
REMARK  6 active torsions:
REMARK  status: ('A' for Active; 'I' for Inactive)
REMARK    1  A    between atoms: C_2  and  C_3 
REMARK    2  A    between atoms: C_3  and  N_4 
REMARK    3  A    between atoms: C_3  and  C_15 
REMARK       I    between atoms: N_4  and  C_5 
REMARK    4  A    between atoms: C_5  and  C_6 
REMARK    5  A    between atoms: C_6  and  C_7 
REMARK    6  A    between atoms: C_16  and  O_17 
ROOT
HETATM    1  C   UNL     1      31.166  52.026  40.136  1.00  0.00     0.128 C 
ENDROOT
BRANCH   1   2
HETATM    2  C   UNL     1      30.048  53.100  40.416  1.00  0.00    -0.026 C 
HETATM    3  C   UNL     1      30.718  54.459  40.733  1.00  0.00     0.016 C 
HETATM    4  C   UNL     1      29.133  52.731  41.599  1.00  0.00     0.016 C 
HETATM    5  C   UNL     1      29.162  53.310  39.170  1.00  0.00     0.016 C 
ENDBRANCH   1   2
BRANCH   1   6
HETATM    6  N   UNL     1      32.505  52.633  40.151  1.00  0.00    -0.351 N 
HETATM    7  C   UNL     1      33.487  52.290  39.249  1.00  0.00     0.222 C 
HETATM    8  O   UNL     1      33.311  51.536  38.297  1.00  0.00    -0.273 OA
HETATM    9  H   UNL     1      32.738  53.239  40.922  1.00  0.00     0.163 HD
BRANCH   7  10
HETATM   10  C   UNL     1      34.829  52.956  39.500  1.00  0.00     0.142 C 
BRANCH  10  11
HETATM   11  C   UNL     1      35.685  52.259  40.527  1.00  0.00    -0.032 A 
HETATM   12  C   UNL     1      36.923  52.763  40.925  1.00  0.00     0.126 A 
HETATM   13  N   UNL     1      37.748  52.145  41.803  1.00  0.00    -0.248 NA
HETATM   14  C   UNL     1      37.330  50.964  42.292  1.00  0.00     0.125 A 
HETATM   15 CL   UNL     1      38.415  50.213  43.386  1.00  0.00    -0.063 Cl
HETATM   16  C   UNL     1      36.131  50.361  41.957  1.00  0.00     0.045 A 
HETATM   17  C   UNL     1      35.298  51.021  41.056  1.00  0.00     0.012 A 
ENDBRANCH  10  11
ENDBRANCH   7  10
ENDBRANCH   1   6
BRANCH   1  18
HETATM   18  C   UNL     1      31.135  50.799  41.056  1.00  0.00    -0.001 A 
HETATM   19  C   UNL     1      30.376  49.655  40.714  1.00  0.00     0.076 A 
HETATM   20  C   UNL     1      30.368  48.542  41.565  1.00  0.00     0.037 A 
HETATM   21  C   UNL     1      31.092  48.552  42.757  1.00  0.00     0.003 A 
HETATM   22  C   UNL     1      31.831  49.673  43.112  1.00  0.00     0.001 A 
HETATM   23  C   UNL     1      31.853  50.785  42.269  1.00  0.00     0.012 A 
BRANCH  19  24
HETATM   24  O   UNL     1      29.680  49.720  39.536  1.00  0.00    -0.355 OA
HETATM   25  C   UNL     1      29.597  48.540  38.749  1.00  0.00     0.210 C 
ENDBRANCH  19  24
ENDBRANCH   1  18
TORSDOF 6
ENDMDL
MODEL 6
REMARK VINA RESULT:      -6.8     11.963     13.849
REMARK  6 active torsions:
REMARK  status: ('A' for Active; 'I' for Inactive)
REMARK    1  A    between atoms: C_2  and  C_3 
REMARK    2  A    between atoms: C_3  and  N_4 
REMARK    3  A    between atoms: C_3  and  C_15 
REMARK       I    between atoms: N_4  and  C_5 
REMARK    4  A    between atoms: C_5  and  C_6 
REMARK    5  A    between atoms: C_6  and  C_7 
REMARK    6  A    between atoms: C_16  and  O_17 
ROOT
HETATM    1  C   UNL     1      30.550  51.171  41.608  1.00  0.00     0.128 C 
ENDROOT
BRANCH   1   2
HETATM    2  C   UNL     1      30.029  52.404  40.777  1.00  0.00    -0.026 C 
HETATM    3  C   UNL     1      30.001  52.029  39.276  1.00  0.00     0.016 C 
HETATM    4  C   UNL     1      30.907  53.660  40.939  1.00  0.00     0.016 C 
HETATM    5  C   UNL     1      28.585  52.771  41.181  1.00  0.00     0.016 C 
ENDBRANCH   1   2
BRANCH   1   6
HETATM    6  N   UNL     1      30.589  49.953  40.786  1.00  0.00    -0.351 N 
HETATM    7  C   UNL     1      30.282  48.708  41.288  1.00  0.00     0.222 C 
HETATM    8  O   UNL     1      29.851  48.510  42.420  1.00  0.00    -0.273 OA
HETATM    9  H   UNL     1      30.964  50.026  39.853  1.00  0.00     0.163 HD
BRANCH   7  10
HETATM   10  C   UNL     1      30.484  47.568  40.303  1.00  0.00     0.142 C 
BRANCH  10  11
HETATM   11  C   UNL     1      29.218  47.092  39.636  1.00  0.00    -0.032 A 
HETATM   12  C   UNL     1      28.687  47.729  38.515  1.00  0.00     0.126 A 
HETATM   13  N   UNL     1      27.527  47.371  37.916  1.00  0.00    -0.248 NA
HETATM   14  C   UNL     1      26.857  46.344  38.469  1.00  0.00     0.125 A 
HETATM   15 CL   UNL     1      25.387  45.938  37.685  1.00  0.00    -0.063 Cl
HETATM   16  C   UNL     1      27.279  45.650  39.589  1.00  0.00     0.045 A 
HETATM   17  C   UNL     1      28.479  46.036  40.182  1.00  0.00     0.012 A 
ENDBRANCH  10  11
ENDBRANCH   7  10
ENDBRANCH   1   6
BRANCH   1  18
HETATM   18  C   UNL     1      31.900  51.379  42.305  1.00  0.00    -0.001 A 
HETATM   19  C   UNL     1      33.114  51.208  41.601  1.00  0.00     0.076 A 
HETATM   20  C   UNL     1      34.337  51.411  42.255  1.00  0.00     0.037 A 
HETATM   21  C   UNL     1      34.372  51.769  43.602  1.00  0.00     0.003 A 
HETATM   22  C   UNL     1      33.187  51.928  44.310  1.00  0.00     0.001 A 
HETATM   23  C   UNL     1      31.964  51.736  43.668  1.00  0.00     0.012 A 
BRANCH  19  24
HETATM   24  O   UNL     1      33.004  50.843  40.285  1.00  0.00    -0.355 OA
HETATM   25  C   UNL     1      33.683  51.633  39.319  1.00  0.00     0.210 C 
ENDBRANCH  19  24
ENDBRANCH   1  18
TORSDOF 6
ENDMDL
MODEL 7
REMARK VINA RESULT:      -6.6     11.151     13.280
REMARK  6 active torsions:
REMARK  status: ('A' for Active; 'I' for Inactive)
REMARK    1  A    between atoms: C_2  and  C_3 
REMARK    2  A    between atoms: C_3  and  N_4 
REMARK    3  A    between atoms: C_3  and  C_15 
REMARK       I    between atoms: N_4  and  C_5 
REMARK    4  A    between atoms: C_5  and  C_6 
REMARK    5  A    between atoms: C_6  and  C_7 
REMARK    6  A    between atoms: C_16  and  O_17 
ROOT
HETATM    1  C   UNL     1      29.721  51.049  40.659  1.00  0.00     0.128 C 
ENDROOT
BRANCH   1   2
HETATM    2  C   UNL     1      28.729  52.208  40.265  1.00  0.00    -0.026 C 
HETATM    3  C   UNL     1      28.083  51.882  38.898  1.00  0.00     0.016 C 
HETATM    4  C   UNL     1      29.416  53.583  40.153  1.00  0.00     0.016 C 
HETATM    5  C   UNL     1      27.583  52.325  41.293  1.00  0.00     0.016 C 
ENDBRANCH   1   2
BRANCH   1   6
HETATM    6  N   UNL     1      29.207  49.740  40.230  1.00  0.00    -0.351 N 
HETATM    7  C   UNL     1      28.985  48.704  41.109  1.00  0.00     0.222 C 
HETATM    8  O   UNL     1      29.090  48.804  42.328  1.00  0.00    -0.273 OA
HETATM    9  H   UNL     1      29.125  49.568  39.239  1.00  0.00     0.163 HD
BRANCH   7  10
HETATM   10  C   UNL     1      28.553  47.405  40.451  1.00  0.00     0.142 C 
BRANCH  10  11
HETATM   11  C   UNL     1      27.143  46.980  40.781  1.00  0.00    -0.032 A 
HETATM   12  C   UNL     1      26.046  47.806  40.539  1.00  0.00     0.126 A 
HETATM   13  N   UNL     1      24.771  47.490  40.868  1.00  0.00    -0.248 NA
HETATM   14  C   UNL     1      24.584  46.307  41.481  1.00  0.00     0.125 A 
HETATM   15 CL   UNL     1      22.956  45.958  41.891  1.00  0.00    -0.063 Cl
HETATM   16  C   UNL     1      25.598  45.416  41.785  1.00  0.00     0.045 A 
HETATM   17  C   UNL     1      26.899  45.764  41.431  1.00  0.00     0.012 A 
ENDBRANCH  10  11
ENDBRANCH   7  10
ENDBRANCH   1   6
BRANCH   1  18
HETATM   18  C   UNL     1      31.163  51.233  40.173  1.00  0.00    -0.001 A 
HETATM   19  C   UNL     1      32.202  51.540  41.082  1.00  0.00     0.076 A 
HETATM   20  C   UNL     1      33.515  51.696  40.618  1.00  0.00     0.037 A 
HETATM   21  C   UNL     1      33.810  51.564  39.262  1.00  0.00     0.003 A 
HETATM   22  C   UNL     1      32.798  51.276  38.355  1.00  0.00     0.001 A 
HETATM   23  C   UNL     1      31.489  51.111  38.806  1.00  0.00     0.012 A 
BRANCH  19  24
HETATM   24  O   UNL     1      31.837  51.668  42.397  1.00  0.00    -0.355 OA
HETATM   25  C   UNL     1      32.248  50.651  43.300  1.00  0.00     0.210 C 
ENDBRANCH  19  24
ENDBRANCH   1  18
TORSDOF 6
ENDMDL
MODEL 8
REMARK VINA RESULT:      -6.5     11.639     13.474
REMARK  6 active torsions:
REMARK  status: ('A' for Active; 'I' for Inactive)
REMARK    1  A    between atoms: C_2  and  C_3 
REMARK    2  A    between atoms: C_3  and  N_4 
REMARK    3  A    between atoms: C_3  and  C_15 
REMARK       I    between atoms: N_4  and  C_5 
REMARK    4  A    between atoms: C_5  and  C_6 
REMARK    5  A    between atoms: C_6  and  C_7 
REMARK    6  A    between atoms: C_16  and  O_17 
ROOT
HETATM    1  C   UNL     1      30.934  49.608  40.795  1.00  0.00     0.128 C 
ENDROOT
BRANCH   1   2
HETATM    2  C   UNL     1      31.933  49.579  42.013  1.00  0.00    -0.026 C 
HETATM    3  C   UNL     1      31.518  48.449  42.985  1.00  0.00     0.016 C 
HETATM    4  C   UNL     1      31.965  50.901  42.803  1.00  0.00     0.016 C 
HETATM    5  C   UNL     1      33.370  49.267  41.541  1.00  0.00     0.016 C 
ENDBRANCH   1   2
BRANCH   1   6
HETATM    6  N   UNL     1      30.065  48.422  40.791  1.00  0.00    -0.351 N 
HETATM    7  C   UNL     1      29.976  47.569  39.714  1.00  0.00     0.222 C 
HETATM    8  O   UNL     1      30.678  47.653  38.711  1.00  0.00    -0.273 OA
HETATM    9  H   UNL     1      29.432  48.300  41.567  1.00  0.00     0.163 HD
BRANCH   7  10
HETATM   10  C   UNL     1      28.944  46.465  39.873  1.00  0.00     0.142 C 
BRANCH  10  11
HETATM   11  C   UNL     1      27.523  46.956  39.992  1.00  0.00    -0.032 A 
HETATM   12  C   UNL     1      26.636  46.435  40.935  1.00  0.00     0.126 A 
HETATM   13  N   UNL     1      25.339  46.807  41.043  1.00  0.00    -0.248 NA
HETATM   14  C   UNL     1      24.900  47.724  40.162  1.00  0.00     0.125 A 
HETATM   15 CL   UNL     1      23.248  48.149  40.329  1.00  0.00    -0.063 Cl
HETATM   16  C   UNL     1      25.684  48.296  39.176  1.00  0.00     0.045 A 
HETATM   17  C   UNL     1      27.017  47.899  39.090  1.00  0.00     0.012 A 
ENDBRANCH  10  11
ENDBRANCH   7  10
ENDBRANCH   1   6
BRANCH   1  18
HETATM   18  C   UNL     1      30.088  50.881  40.676  1.00  0.00    -0.001 A 
HETATM   19  C   UNL     1      30.524  51.970  39.886  1.00  0.00     0.076 A 
HETATM   20  C   UNL     1      29.731  53.121  39.784  1.00  0.00     0.037 A 
HETATM   21  C   UNL     1      28.518  53.212  40.465  1.00  0.00     0.003 A 
HETATM   22  C   UNL     1      28.083  52.155  41.255  1.00  0.00     0.001 A 
HETATM   23  C   UNL     1      28.860  51.001  41.358  1.00  0.00     0.012 A 
BRANCH  19  24
HETATM   24  O   UNL     1      31.731  51.817  39.256  1.00  0.00    -0.355 OA
HETATM   25  C   UNL     1      32.804  52.652  39.668  1.00  0.00     0.210 C 
ENDBRANCH  19  24
ENDBRANCH   1  18
TORSDOF 6
ENDMDL
MODEL 9
REMARK VINA RESULT:      -6.5      5.485      8.977
REMARK  6 active torsions:
REMARK  status: ('A' for Active; 'I' for Inactive)
REMARK    1  A    between atoms: C_2  and  C_3 
REMARK    2  A    between atoms: C_3  and  N_4 
REMARK    3  A    between atoms: C_3  and  C_15 
REMARK       I    between atoms: N_4  and  C_5 
REMARK    4  A    between atoms: C_5  and  C_6 
REMARK    5  A    between atoms: C_6  and  C_7 
REMARK    6  A    between atoms: C_16  and  O_17 
ROOT
HETATM    1  C   UNL     1      22.870  47.443  48.635  1.00  0.00     0.128 C 
ENDROOT
BRANCH   1   2
HETATM    2  C   UNL     1      21.809  46.536  47.906  1.00  0.00    -0.026 C 
HETATM    3  C   UNL     1      20.774  46.032  48.940  1.00  0.00     0.016 C 
HETATM    4  C   UNL     1      22.431  45.306  47.217  1.00  0.00     0.016 C 
HETATM    5  C   UNL     1      21.033  47.342  46.842  1.00  0.00     0.016 C 
ENDBRANCH   1   2
BRANCH   1   6
HETATM    6  N   UNL     1      22.218  48.514  49.402  1.00  0.00    -0.351 N 
HETATM    7  C   UNL     1      22.265  49.836  49.020  1.00  0.00     0.222 C 
HETATM    8  O   UNL     1      22.755  50.229  47.966  1.00  0.00    -0.273 OA
HETATM    9  H   UNL     1      21.821  48.277  50.298  1.00  0.00     0.163 HD
BRANCH   7  10
HETATM   10  C   UNL     1      21.618  50.796  50.004  1.00  0.00     0.142 C 
BRANCH  10  11
HETATM   11  C   UNL     1      20.169  51.099  49.714  1.00  0.00    -0.032 A 
HETATM   12  C   UNL     1      19.129  50.448  50.376  1.00  0.00     0.126 A 
HETATM   13  N   UNL     1      17.817  50.648  50.111  1.00  0.00    -0.248 NA
HETATM   14  C   UNL     1      17.528  51.523  49.131  1.00  0.00     0.125 A 
HETATM   15 CL   UNL     1      15.854  51.730  48.821  1.00  0.00    -0.063 Cl
HETATM   16  C   UNL     1      18.476  52.213  48.396  1.00  0.00     0.045 A 
HETATM   17  C   UNL     1      19.819  51.992  48.694  1.00  0.00     0.012 A 
ENDBRANCH  10  11
ENDBRANCH   7  10
ENDBRANCH   1   6
BRANCH   1  18
HETATM   18  C   UNL     1      23.869  46.691  49.524  1.00  0.00    -0.001 A 
HETATM   19  C   UNL     1      25.042  47.325  49.993  1.00  0.00     0.076 A 
HETATM   20  C   UNL     1      25.937  46.623  50.812  1.00  0.00     0.037 A 
HETATM   21  C   UNL     1      25.690  45.296  51.160  1.00  0.00     0.003 A 
HETATM   22  C   UNL     1      24.548  44.656  50.696  1.00  0.00     0.001 A 
HETATM   23  C   UNL     1      23.646  45.347  49.887  1.00  0.00     0.012 A 
BRANCH  19  24
HETATM   24  O   UNL     1      25.226  48.625  49.600  1.00  0.00    -0.355 OA
HETATM   25  C   UNL     1      26.449  48.956  48.956  1.00  0.00     0.210 C 
ENDBRANCH  19  24
ENDBRANCH   1  18
TORSDOF 6
ENDMDL
MODEL 10
REMARK VINA RESULT:      -6.5      4.129      6.356
REMARK  6 active torsions:
REMARK  status: ('A' for Active; 'I' for Inactive)
REMARK    1  A    between atoms: C_2  and  C_3 
REMARK    2  A    between atoms: C_3  and  N_4 
REMARK    3  A    between atoms: C_3  and  C_15 
REMARK       I    between atoms: N_4  and  C_5 
REMARK    4  A    between atoms: C_5  and  C_6 
REMARK    5  A    between atoms: C_6  and  C_7 
REMARK    6  A    between atoms: C_16  and  O_17 
ROOT
HETATM    1  C   UNL     1      22.007  49.004  48.761  1.00  0.00     0.128 C 
ENDROOT
BRANCH   1   2
HETATM    2  C   UNL     1      21.904  50.564  48.950  1.00  0.00    -0.026 C 
HETATM    3  C   UNL     1      23.167  51.232  48.355  1.00  0.00     0.016 C 
HETATM    4  C   UNL     1      21.788  50.991  50.425  1.00  0.00     0.016 C 
HETATM    5  C   UNL     1      20.688  51.133  48.187  1.00  0.00     0.016 C 
ENDBRANCH   1   2
BRANCH   1   6
HETATM    6  N   UNL     1      22.820  48.391  49.823  1.00  0.00    -0.351 N 
HETATM    7  C   UNL     1      24.142  48.051  49.644  1.00  0.00     0.222 C 
HETATM    8  O   UNL     1      24.789  48.318  48.636  1.00  0.00    -0.273 OA
HETATM    9  H   UNL     1      22.352  48.111  50.671  1.00  0.00     0.163 HD
BRANCH   7  10
HETATM   10  C   UNL     1      24.771  47.336  50.828  1.00  0.00     0.142 C 
BRANCH  10  11
HETATM   11  C   UNL     1      25.353  45.984  50.498  1.00  0.00    -0.032 A 
HETATM   12  C   UNL     1      26.631  45.839  49.959  1.00  0.00     0.126 A 
HETATM   13  N   UNL     1      27.173  44.653  49.598  1.00  0.00    -0.248 NA
HETATM   14  C   UNL     1      26.401  43.564  49.765  1.00  0.00     0.125 A 
HETATM   15 CL   UNL     1      27.125  42.087  49.279  1.00  0.00    -0.063 Cl
HETATM   16  C   UNL     1      25.115  43.589  50.274  1.00  0.00     0.045 A 
HETATM   17  C   UNL     1      24.584  44.823  50.642  1.00  0.00     0.012 A 
ENDBRANCH  10  11
ENDBRANCH   7  10
ENDBRANCH   1   6
BRANCH   1  18
HETATM   18  C   UNL     1      20.664  48.273  48.638  1.00  0.00    -0.001 A 
HETATM   19  C   UNL     1      20.436  47.347  47.594  1.00  0.00     0.076 A 
HETATM   20  C   UNL     1      19.205  46.683  47.504  1.00  0.00     0.037 A 
HETATM   21  C   UNL     1      18.192  46.935  48.430  1.00  0.00     0.003 A 
HETATM   22  C   UNL     1      18.398  47.851  49.453  1.00  0.00     0.001 A 
HETATM   23  C   UNL     1      19.622  48.512  49.557  1.00  0.00     0.012 A 
BRANCH  19  24
HETATM   24  O   UNL     1      21.469  47.159  46.714  1.00  0.00    -0.355 OA
HETATM   25  C   UNL     1      21.939  45.833  46.516  1.00  0.00     0.210 C 
ENDBRANCH  19  24
ENDBRANCH   1  18
TORSDOF 6
ENDMDL
