MODEL 1
REMARK VINA RESULT:     -10.5      0.000      0.000
REMARK  8 active torsions:
REMARK  status: ('A' for Active; 'I' for Inactive)
REMARK    1  A    between atoms: C_8  and  C_9 
REMARK    2  A    between atoms: N_10  and  C_11 
REMARK    3  A    between atoms: C_11  and  C_12 
REMARK    4  A    between atoms: C_17  and  S_18 
REMARK    5  A    between atoms: S_18  and  C_19 
REMARK    6  A    between atoms: C_19  and  C_20 
REMARK       I    between atoms: C_20  and  N_21 
REMARK    7  A    between atoms: N_21  and  C_22 
REMARK    8  A    between atoms: C_30  and  O_31 
ROOT
HETATM    1  C   UNL     1      25.777  44.288  52.009  1.00  0.00     0.167 A 
HETATM    2  N   UNL     1      25.762  44.485  50.636  1.00  0.00    -0.301 N 
HETATM    3  C   UNL     1      24.504  44.109  50.233  1.00  0.00     0.192 A 
HETATM    4  N   UNL     1      23.803  43.704  51.260  1.00  0.00    -0.122 NA
HETATM    5  N   UNL     1      24.586  43.826  52.364  1.00  0.00    -0.128 NA
ENDROOT
BRANCH   1   6
HETATM    6  C   UNL     1      26.821  44.590  53.003  1.00  0.00     0.046 A 
HETATM    7  C   UNL     1      27.868  43.711  53.312  1.00  0.00     0.030 A 
HETATM    8  C   UNL     1      28.837  44.024  54.289  1.00  0.00    -0.025 A 
HETATM    9  C   UNL     1      29.892  43.144  54.584  1.00  0.00     0.012 A 
HETATM   10  C   UNL     1      28.746  45.243  54.995  1.00  0.00    -0.023 A 
HETATM   11  C   UNL     1      30.835  43.461  55.564  1.00  0.00     0.001 A 
HETATM   12  C   UNL     1      30.737  44.660  56.264  1.00  0.00     0.001 A 
HETATM   13  C   UNL     1      29.699  45.547  55.981  1.00  0.00     0.012 A 
HETATM   14  C   UNL     1      27.696  46.120  54.706  1.00  0.00     0.049 A 
HETATM   15  C   UNL     1      26.751  45.790  53.736  1.00  0.00     0.080 A 
BRANCH  15  16
HETATM   16  O   UNL     1      25.747  46.713  53.560  1.00  0.00    -0.360 OA
HETATM   17  H   UNL     1      25.807  47.058  52.645  1.00  0.00     0.217 HD
ENDBRANCH  15  16
ENDBRANCH   1   6
BRANCH   2  18
HETATM   18  C   UNL     1      26.838  44.931  49.771  1.00  0.00     0.198 C 
BRANCH  18  19
HETATM   19  C   UNL     1      26.916  46.404  49.649  1.00  0.00     0.070 A 
HETATM   20  O   UNL     1      27.989  46.879  48.952  1.00  0.00    -0.325 OA
HETATM   21  C   UNL     1      27.877  48.230  48.917  1.00  0.00     0.142 A 
HETATM   22  C   UNL     1      26.741  48.635  49.577  1.00  0.00     0.027 A 
HETATM   23  C   UNL     1      26.116  47.455  50.049  1.00  0.00     0.036 A 
ENDBRANCH  18  19
ENDBRANCH   2  18
BRANCH   3  24
HETATM   24  S   UNL     1      23.907  44.157  48.612  1.00  0.00    -0.081 SA
BRANCH  24  25
HETATM   25  C   UNL     1      22.368  45.093  48.849  1.00  0.00     0.185 C 
BRANCH  25  26
HETATM   26  C   UNL     1      22.357  46.432  48.128  1.00  0.00     0.227 C 
HETATM   27  N   UNL     1      22.446  47.543  48.935  1.00  0.00    -0.356 N 
HETATM   28  H   UNL     1      22.508  47.401  49.943  1.00  0.00     0.162 HD
HETATM   29  O   UNL     1      22.188  46.500  46.913  1.00  0.00    -0.273 OA
BRANCH  27  30
HETATM   30  C   UNL     1      22.215  48.884  48.452  1.00  0.00     0.084 C 
HETATM   31  C   UNL     1      21.112  49.593  49.230  1.00  0.00     0.025 C 
HETATM   32  C   UNL     1      21.299  51.062  48.874  1.00  0.00     0.002 C 
HETATM   33  C   UNL     1      22.781  51.225  48.535  1.00  0.00     0.002 C 
HETATM   34  C   UNL     1      23.398  49.832  48.634  1.00  0.00     0.025 C 
ENDBRANCH  27  30
ENDBRANCH  25  26
ENDBRANCH  24  25
ENDBRANCH   3  24
TORSDOF 8
ENDMDL
MODEL 2
REMARK VINA RESULT:      -9.7      1.646      2.532
REMARK  8 active torsions:
REMARK  status: ('A' for Active; 'I' for Inactive)
REMARK    1  A    between atoms: C_8  and  C_9 
REMARK    2  A    between atoms: N_10  and  C_11 
REMARK    3  A    between atoms: C_11  and  C_12 
REMARK    4  A    between atoms: C_17  and  S_18 
REMARK    5  A    between atoms: S_18  and  C_19 
REMARK    6  A    between atoms: C_19  and  C_20 
REMARK       I    between atoms: C_20  and  N_21 
REMARK    7  A    between atoms: N_21  and  C_22 
REMARK    8  A    between atoms: C_30  and  O_31 
ROOT
HETATM    1  C   UNL     1      25.750  44.439  52.168  1.00  0.00     0.167 A 
HETATM    2  N   UNL     1      25.792  44.202  50.802  1.00  0.00    -0.301 N 
HETATM    3  C   UNL     1      24.478  44.154  50.405  1.00  0.00     0.192 A 
HETATM    4  N   UNL     1      23.689  44.336  51.432  1.00  0.00    -0.122 NA
HETATM    5  N   UNL     1      24.475  44.525  52.525  1.00  0.00    -0.128 NA
ENDROOT
BRANCH   1   6
HETATM    6  C   UNL     1      26.842  44.670  53.128  1.00  0.00     0.046 A 
HETATM    7  C   UNL     1      27.808  43.704  53.444  1.00  0.00     0.030 A 
HETATM    8  C   UNL     1      28.826  43.954  54.388  1.00  0.00    -0.025 A 
HETATM    9  C   UNL     1      29.800  42.986  54.689  1.00  0.00     0.012 A 
HETATM   10  C   UNL     1      28.870  45.197  55.055  1.00  0.00    -0.023 A 
HETATM   11  C   UNL     1      30.793  43.241  55.638  1.00  0.00     0.001 A 
HETATM   12  C   UNL     1      30.827  44.465  56.299  1.00  0.00     0.001 A 
HETATM   13  C   UNL     1      29.871  45.439  56.010  1.00  0.00     0.012 A 
HETATM   14  C   UNL     1      27.900  46.161  54.761  1.00  0.00     0.049 A 
HETATM   15  C   UNL     1      26.904  45.894  53.823  1.00  0.00     0.080 A 
BRANCH  15  16
HETATM   16  O   UNL     1      25.989  46.902  53.638  1.00  0.00    -0.360 OA
HETATM   17  H   UNL     1      25.165  46.655  54.106  1.00  0.00     0.217 HD
ENDBRANCH  15  16
ENDBRANCH   1   6
BRANCH   2  18
HETATM   18  C   UNL     1      26.949  43.983  49.954  1.00  0.00     0.198 C 
BRANCH  18  19
HETATM   19  C   UNL     1      27.280  42.551  49.776  1.00  0.00     0.070 A 
HETATM   20  O   UNL     1      27.347  42.121  48.483  1.00  0.00    -0.325 OA
HETATM   21  C   UNL     1      27.688  40.809  48.515  1.00  0.00     0.142 A 
HETATM   22  C   UNL     1      27.848  40.387  49.814  1.00  0.00     0.027 A 
HETATM   23  C   UNL     1      27.587  41.513  50.631  1.00  0.00     0.036 A 
ENDBRANCH  18  19
ENDBRANCH   2  18
BRANCH   3  24
HETATM   24  S   UNL     1      23.920  43.898  48.790  1.00  0.00    -0.081 SA
BRANCH  24  25
HETATM   25  C   UNL     1      22.362  44.831  48.821  1.00  0.00     0.185 C 
BRANCH  25  26
HETATM   26  C   UNL     1      22.429  46.148  48.065  1.00  0.00     0.227 C 
HETATM   27  N   UNL     1      22.569  47.274  48.843  1.00  0.00    -0.356 N 
HETATM   28  H   UNL     1      22.614  47.157  49.855  1.00  0.00     0.162 HD
HETATM   29  O   UNL     1      22.276  46.192  46.846  1.00  0.00    -0.273 OA
BRANCH  27  30
HETATM   30  C   UNL     1      22.415  48.613  48.322  1.00  0.00     0.084 C 
HETATM   31  C   UNL     1      21.526  49.476  49.209  1.00  0.00     0.025 C 
HETATM   32  C   UNL     1      21.815  50.898  48.746  1.00  0.00     0.002 C 
HETATM   33  C   UNL     1      23.238  50.873  48.187  1.00  0.00     0.002 C 
HETATM   34  C   UNL     1      23.709  49.423  48.276  1.00  0.00     0.025 C 
ENDBRANCH  27  30
ENDBRANCH  25  26
ENDBRANCH  24  25
ENDBRANCH   3  24
TORSDOF 8
ENDMDL
MODEL 3
REMARK VINA RESULT:      -9.6      2.507      5.067
REMARK  8 active torsions:
REMARK  status: ('A' for Active; 'I' for Inactive)
REMARK    1  A    between atoms: C_8  and  C_9 
REMARK    2  A    between atoms: N_10  and  C_11 
REMARK    3  A    between atoms: C_11  and  C_12 
REMARK    4  A    between atoms: C_17  and  S_18 
REMARK    5  A    between atoms: S_18  and  C_19 
REMARK    6  A    between atoms: C_19  and  C_20 
REMARK       I    between atoms: C_20  and  N_21 
REMARK    7  A    between atoms: N_21  and  C_22 
REMARK    8  A    between atoms: C_30  and  O_31 
ROOT
HETATM    1  C   UNL     1      25.881  44.278  52.104  1.00  0.00     0.167 A 
HETATM    2  N   UNL     1      25.872  44.516  50.738  1.00  0.00    -0.301 N 
HETATM    3  C   UNL     1      24.634  44.106  50.309  1.00  0.00     0.192 A 
HETATM    4  N   UNL     1      23.937  43.646  51.316  1.00  0.00    -0.122 NA
HETATM    5  N   UNL     1      24.704  43.763  52.432  1.00  0.00    -0.128 NA
ENDROOT
BRANCH   1   6
HETATM    6  C   UNL     1      26.903  44.588  53.118  1.00  0.00     0.046 A 
HETATM    7  C   UNL     1      27.969  43.731  53.425  1.00  0.00     0.030 A 
HETATM    8  C   UNL     1      28.915  44.051  54.421  1.00  0.00    -0.025 A 
HETATM    9  C   UNL     1      29.990  43.194  54.715  1.00  0.00     0.012 A 
HETATM   10  C   UNL     1      28.783  45.253  55.149  1.00  0.00    -0.023 A 
HETATM   11  C   UNL     1      30.910  43.517  55.714  1.00  0.00     0.001 A 
HETATM   12  C   UNL     1      30.771  44.699  56.435  1.00  0.00     0.001 A 
HETATM   13  C   UNL     1      29.713  45.564  56.154  1.00  0.00     0.012 A 
HETATM   14  C   UNL     1      27.713  46.108  54.862  1.00  0.00     0.049 A 
HETATM   15  C   UNL     1      26.790  45.772  53.873  1.00  0.00     0.080 A 
BRANCH  15  16
HETATM   16  O   UNL     1      25.765  46.671  53.700  1.00  0.00    -0.360 OA
HETATM   17  H   UNL     1      25.919  47.151  52.860  1.00  0.00     0.217 HD
ENDBRANCH  15  16
ENDBRANCH   1   6
BRANCH   2  18
HETATM   18  C   UNL     1      26.941  45.026  49.898  1.00  0.00     0.198 C 
BRANCH  18  19
HETATM   19  C   UNL     1      26.901  46.496  49.733  1.00  0.00     0.070 A 
HETATM   20  O   UNL     1      27.893  47.026  48.959  1.00  0.00    -0.325 OA
HETATM   21  C   UNL     1      27.678  48.364  48.895  1.00  0.00     0.142 A 
HETATM   22  C   UNL     1      26.556  48.705  49.614  1.00  0.00     0.027 A 
HETATM   23  C   UNL     1      26.050  47.497  50.154  1.00  0.00     0.036 A 
ENDBRANCH  18  19
ENDBRANCH   2  18
BRANCH   3  24
HETATM   24  S   UNL     1      24.052  44.181  48.684  1.00  0.00    -0.081 SA
BRANCH  24  25
HETATM   25  C   UNL     1      24.006  42.414  48.262  1.00  0.00     0.185 C 
BRANCH  25  26
HETATM   26  C   UNL     1      25.270  41.665  48.654  1.00  0.00     0.227 C 
HETATM   27  N   UNL     1      25.138  40.784  49.702  1.00  0.00    -0.356 N 
HETATM   28  H   UNL     1      24.223  40.694  50.143  1.00  0.00     0.162 HD
HETATM   29  O   UNL     1      26.349  41.911  48.118  1.00  0.00    -0.273 OA
BRANCH  27  30
HETATM   30  C   UNL     1      26.269  40.169  50.358  1.00  0.00     0.084 C 
HETATM   31  C   UNL     1      27.114  39.346  49.392  1.00  0.00     0.025 C 
HETATM   32  C   UNL     1      28.425  39.138  50.139  1.00  0.00     0.002 C 
HETATM   33  C   UNL     1      28.560  40.330  51.086  1.00  0.00     0.002 C 
HETATM   34  C   UNL     1      27.289  41.159  50.915  1.00  0.00     0.025 C 
ENDBRANCH  27  30
ENDBRANCH  25  26
ENDBRANCH  24  25
ENDBRANCH   3  24
TORSDOF 8
ENDMDL
MODEL 4
REMARK VINA RESULT:      -9.4      2.013      8.406
REMARK  8 active torsions:
REMARK  status: ('A' for Active; 'I' for Inactive)
REMARK    1  A    between atoms: C_8  and  C_9 
REMARK    2  A    between atoms: N_10  and  C_11 
REMARK    3  A    between atoms: C_11  and  C_12 
REMARK    4  A    between atoms: C_17  and  S_18 
REMARK    5  A    between atoms: S_18  and  C_19 
REMARK    6  A    between atoms: C_19  and  C_20 
REMARK       I    between atoms: C_20  and  N_21 
REMARK    7  A    between atoms: N_21  and  C_22 
REMARK    8  A    between atoms: C_30  and  O_31 
ROOT
HETATM    1  C   UNL     1      22.334  47.204  48.644  1.00  0.00     0.167 A 
HETATM    2  N   UNL     1      23.504  46.812  49.278  1.00  0.00    -0.301 N 
HETATM    3  C   UNL     1      23.753  45.541  48.820  1.00  0.00     0.192 A 
HETATM    4  N   UNL     1      22.817  45.171  47.984  1.00  0.00    -0.122 NA
HETATM    5  N   UNL     1      21.943  46.204  47.864  1.00  0.00    -0.128 NA
ENDROOT
BRANCH   1   6
HETATM    6  C   UNL     1      21.620  48.491  48.674  1.00  0.00     0.046 A 
HETATM    7  C   UNL     1      20.379  48.670  49.301  1.00  0.00     0.030 A 
HETATM    8  C   UNL     1      19.713  49.914  49.287  1.00  0.00    -0.025 A 
HETATM    9  C   UNL     1      18.476  50.090  49.930  1.00  0.00     0.012 A 
HETATM   10  C   UNL     1      20.292  51.008  48.608  1.00  0.00    -0.023 A 
HETATM   11  C   UNL     1      17.821  51.323  49.895  1.00  0.00     0.001 A 
HETATM   12  C   UNL     1      18.391  52.396  49.217  1.00  0.00     0.001 A 
HETATM   13  C   UNL     1      19.621  52.241  48.577  1.00  0.00     0.012 A 
HETATM   14  C   UNL     1      21.522  50.835  47.965  1.00  0.00     0.049 A 
HETATM   15  C   UNL     1      22.163  49.598  47.992  1.00  0.00     0.080 A 
BRANCH  15  16
HETATM   16  O   UNL     1      23.348  49.538  47.300  1.00  0.00    -0.360 OA
HETATM   17  H   UNL     1      24.056  49.895  47.876  1.00  0.00     0.217 HD
ENDBRANCH  15  16
ENDBRANCH   1   6
BRANCH   2  18
HETATM   18  C   UNL     1      24.288  47.534  50.262  1.00  0.00     0.198 C 
BRANCH  18  19
HETATM   19  C   UNL     1      25.535  48.107  49.708  1.00  0.00     0.070 A 
HETATM   20  O   UNL     1      25.394  49.299  49.058  1.00  0.00    -0.325 OA
HETATM   21  C   UNL     1      26.631  49.682  48.652  1.00  0.00     0.142 A 
HETATM   22  C   UNL     1      27.570  48.753  49.035  1.00  0.00     0.027 A 
HETATM   23  C   UNL     1      26.864  47.736  49.721  1.00  0.00     0.036 A 
ENDBRANCH  18  19
ENDBRANCH   2  18
BRANCH   3  24
HETATM   24  S   UNL     1      25.101  44.555  49.263  1.00  0.00    -0.081 SA
BRANCH  24  25
HETATM   25  C   UNL     1      24.652  44.118  50.968  1.00  0.00     0.185 C 
BRANCH  25  26
HETATM   26  C   UNL     1      25.810  44.228  51.946  1.00  0.00     0.227 C 
HETATM   27  N   UNL     1      25.854  45.385  52.689  1.00  0.00    -0.356 N 
HETATM   28  H   UNL     1      25.126  46.082  52.536  1.00  0.00     0.162 HD
HETATM   29  O   UNL     1      26.690  43.371  51.991  1.00  0.00    -0.273 OA
BRANCH  27  30
HETATM   30  C   UNL     1      26.998  45.764  53.486  1.00  0.00     0.084 C 
HETATM   31  C   UNL     1      26.910  47.207  53.968  1.00  0.00     0.025 C 
HETATM   32  C   UNL     1      27.941  47.283  55.087  1.00  0.00     0.002 C 
HETATM   33  C   UNL     1      28.050  45.867  55.651  1.00  0.00     0.002 C 
HETATM   34  C   UNL     1      27.132  44.994  54.798  1.00  0.00     0.025 C 
ENDBRANCH  27  30
ENDBRANCH  25  26
ENDBRANCH  24  25
ENDBRANCH   3  24
TORSDOF 8
ENDMDL
MODEL 5
REMARK VINA RESULT:      -9.3      1.943      3.508
REMARK  8 active torsions:
REMARK  status: ('A' for Active; 'I' for Inactive)
REMARK    1  A    between atoms: C_8  and  C_9 
REMARK    2  A    between atoms: N_10  and  C_11 
REMARK    3  A    between atoms: C_11  and  C_12 
REMARK    4  A    between atoms: C_17  and  S_18 
REMARK    5  A    between atoms: S_18  and  C_19 
REMARK    6  A    between atoms: C_19  and  C_20 
REMARK       I    between atoms: C_20  and  N_21 
REMARK    7  A    between atoms: N_21  and  C_22 
REMARK    8  A    between atoms: C_30  and  O_31 
ROOT
HETATM    1  C   UNL     1      27.692  44.083  52.671  1.00  0.00     0.167 A 
HETATM    2  N   UNL     1      26.360  44.471  52.689  1.00  0.00    -0.301 N 
HETATM    3  C   UNL     1      25.917  44.297  51.401  1.00  0.00     0.192 A 
HETATM    4  N   UNL     1      26.887  43.848  50.647  1.00  0.00    -0.122 NA
HETATM    5  N   UNL     1      27.985  43.704  51.434  1.00  0.00    -0.128 NA
ENDROOT
BRANCH   1   6
HETATM    6  C   UNL     1      28.667  43.974  53.769  1.00  0.00     0.046 A 
HETATM    7  C   UNL     1      28.725  44.876  54.840  1.00  0.00     0.030 A 
HETATM    8  C   UNL     1      29.690  44.753  55.862  1.00  0.00    -0.025 A 
HETATM    9  C   UNL     1      29.735  45.653  56.941  1.00  0.00     0.012 A 
HETATM   10  C   UNL     1      30.641  43.711  55.802  1.00  0.00    -0.023 A 
HETATM   11  C   UNL     1      30.706  45.527  57.937  1.00  0.00     0.001 A 
HETATM   12  C   UNL     1      31.646  44.504  57.869  1.00  0.00     0.001 A 
HETATM   13  C   UNL     1      31.614  43.600  56.808  1.00  0.00     0.012 A 
HETATM   14  C   UNL     1      30.602  42.816  54.728  1.00  0.00     0.049 A 
HETATM   15  C   UNL     1      29.639  42.955  53.730  1.00  0.00     0.080 A 
BRANCH  15  16
HETATM   16  O   UNL     1      29.717  42.038  52.710  1.00  0.00    -0.360 OA
HETATM   17  H   UNL     1      30.655  41.963  52.439  1.00  0.00     0.217 HD
ENDBRANCH  15  16
ENDBRANCH   1   6
BRANCH   2  18
HETATM   18  C   UNL     1      25.586  45.010  53.793  1.00  0.00     0.198 C 
BRANCH  18  19
HETATM   19  C   UNL     1      26.009  46.371  54.192  1.00  0.00     0.070 A 
HETATM   20  O   UNL     1      25.945  46.636  55.529  1.00  0.00    -0.325 OA
HETATM   21  C   UNL     1      26.395  47.903  55.707  1.00  0.00     0.142 A 
HETATM   22  C   UNL     1      26.755  48.458  54.502  1.00  0.00     0.027 A 
HETATM   23  C   UNL     1      26.509  47.468  53.521  1.00  0.00     0.036 A 
ENDBRANCH  18  19
ENDBRANCH   2  18
BRANCH   3  24
HETATM   24  S   UNL     1      24.315  44.609  50.833  1.00  0.00    -0.081 SA
BRANCH  24  25
HETATM   25  C   UNL     1      24.659  45.767  49.477  1.00  0.00     0.185 C 
BRANCH  25  26
HETATM   26  C   UNL     1      24.389  47.219  49.838  1.00  0.00     0.227 C 
HETATM   27  N   UNL     1      23.207  47.740  49.365  1.00  0.00    -0.356 N 
HETATM   28  H   UNL     1      22.602  47.134  48.811  1.00  0.00     0.162 HD
HETATM   29  O   UNL     1      25.225  47.894  50.436  1.00  0.00    -0.273 OA
BRANCH  27  30
HETATM   30  C   UNL     1      22.897  49.150  49.407  1.00  0.00     0.084 C 
HETATM   31  C   UNL     1      23.599  49.926  48.298  1.00  0.00     0.025 C 
HETATM   32  C   UNL     1      22.852  51.252  48.249  1.00  0.00     0.002 C 
HETATM   33  C   UNL     1      21.440  50.955  48.756  1.00  0.00     0.002 C 
HETATM   34  C   UNL     1      21.428  49.480  49.152  1.00  0.00     0.025 C 
ENDBRANCH  27  30
ENDBRANCH  25  26
ENDBRANCH  24  25
ENDBRANCH   3  24
TORSDOF 8
ENDMDL
MODEL 6
REMARK VINA RESULT:      -9.3      3.450      5.858
REMARK  8 active torsions:
REMARK  status: ('A' for Active; 'I' for Inactive)
REMARK    1  A    between atoms: C_8  and  C_9 
REMARK    2  A    between atoms: N_10  and  C_11 
REMARK    3  A    between atoms: C_11  and  C_12 
REMARK    4  A    between atoms: C_17  and  S_18 
REMARK    5  A    between atoms: S_18  and  C_19 
REMARK    6  A    between atoms: C_19  and  C_20 
REMARK       I    between atoms: C_20  and  N_21 
REMARK    7  A    between atoms: N_21  and  C_22 
REMARK    8  A    between atoms: C_30  and  O_31 
ROOT
HETATM    1  C   UNL     1      26.937  46.251  53.622  1.00  0.00     0.167 A 
HETATM    2  N   UNL     1      26.145  45.350  52.926  1.00  0.00    -0.301 N 
HETATM    3  C   UNL     1      25.556  46.086  51.927  1.00  0.00     0.192 A 
HETATM    4  N   UNL     1      25.940  47.335  52.000  1.00  0.00    -0.122 NA
HETATM    5  N   UNL     1      26.806  47.437  53.043  1.00  0.00    -0.128 NA
ENDROOT
BRANCH   1   6
HETATM    6  C   UNL     1      27.867  46.032  54.743  1.00  0.00     0.046 A 
HETATM    7  C   UNL     1      28.867  45.051  54.735  1.00  0.00     0.030 A 
HETATM    8  C   UNL     1      29.724  44.855  55.839  1.00  0.00    -0.025 A 
HETATM    9  C   UNL     1      30.735  43.878  55.818  1.00  0.00     0.012 A 
HETATM   10  C   UNL     1      29.564  45.648  56.995  1.00  0.00    -0.023 A 
HETATM   11  C   UNL     1      31.565  43.686  56.924  1.00  0.00     0.001 A 
HETATM   12  C   UNL     1      31.398  44.463  58.066  1.00  0.00     0.001 A 
HETATM   13  C   UNL     1      30.403  45.440  58.102  1.00  0.00     0.012 A 
HETATM   14  C   UNL     1      28.557  46.619  57.021  1.00  0.00     0.049 A 
HETATM   15  C   UNL     1      27.723  46.796  55.918  1.00  0.00     0.080 A 
BRANCH  15  16
HETATM   16  O   UNL     1      26.751  47.756  56.068  1.00  0.00    -0.360 OA
HETATM   17  H   UNL     1      26.866  48.171  56.949  1.00  0.00     0.217 HD
ENDBRANCH  15  16
ENDBRANCH   1   6
BRANCH   2  18
HETATM   18  C   UNL     1      25.913  43.944  53.200  1.00  0.00     0.198 C 
BRANCH  18  19
HETATM   19  C   UNL     1      27.109  43.102  52.977  1.00  0.00     0.070 A 
HETATM   20  O   UNL     1      27.919  43.494  51.950  1.00  0.00    -0.325 OA
HETATM   21  C   UNL     1      28.968  42.634  51.917  1.00  0.00     0.142 A 
HETATM   22  C   UNL     1      28.848  41.694  52.913  1.00  0.00     0.027 A 
HETATM   23  C   UNL     1      27.649  41.996  53.602  1.00  0.00     0.036 A 
ENDBRANCH  18  19
ENDBRANCH   2  18
BRANCH   3  24
HETATM   24  S   UNL     1      24.468  45.477  50.731  1.00  0.00    -0.081 SA
BRANCH  24  25
HETATM   25  C   UNL     1      25.643  44.783  49.531  1.00  0.00     0.185 C 
BRANCH  25  26
HETATM   26  C   UNL     1      25.517  43.277  49.363  1.00  0.00     0.227 C 
HETATM   27  N   UNL     1      26.701  42.577  49.359  1.00  0.00    -0.356 N 
HETATM   28  H   UNL     1      27.569  43.101  49.462  1.00  0.00     0.162 HD
HETATM   29  O   UNL     1      24.427  42.748  49.154  1.00  0.00    -0.273 OA
BRANCH  27  30
HETATM   30  C   UNL     1      26.790  41.187  48.978  1.00  0.00     0.084 C 
HETATM   31  C   UNL     1      28.177  40.820  48.462  1.00  0.00     0.025 C 
HETATM   32  C   UNL     1      28.195  39.298  48.512  1.00  0.00     0.002 C 
HETATM   33  C   UNL     1      27.217  38.904  49.618  1.00  0.00     0.002 C 
HETATM   34  C   UNL     1      26.605  40.205  50.132  1.00  0.00     0.025 C 
ENDBRANCH  27  30
ENDBRANCH  25  26
ENDBRANCH  24  25
ENDBRANCH   3  24
TORSDOF 8
ENDMDL
MODEL 7
REMARK VINA RESULT:      -9.1      2.195      3.273
REMARK  8 active torsions:
REMARK  status: ('A' for Active; 'I' for Inactive)
REMARK    1  A    between atoms: C_8  and  C_9 
REMARK    2  A    between atoms: N_10  and  C_11 
REMARK    3  A    between atoms: C_11  and  C_12 
REMARK    4  A    between atoms: C_17  and  S_18 
REMARK    5  A    between atoms: S_18  and  C_19 
REMARK    6  A    between atoms: C_19  and  C_20 
REMARK       I    between atoms: C_20  and  N_21 
REMARK    7  A    between atoms: N_21  and  C_22 
REMARK    8  A    between atoms: C_30  and  O_31 
ROOT
HETATM    1  C   UNL     1      25.972  44.103  52.375  1.00  0.00     0.167 A 
HETATM    2  N   UNL     1      25.880  44.235  50.997  1.00  0.00    -0.301 N 
HETATM    3  C   UNL     1      24.568  44.561  50.754  1.00  0.00     0.192 A 
HETATM    4  N   UNL     1      23.901  44.618  51.878  1.00  0.00    -0.122 NA
HETATM    5  N   UNL     1      24.772  44.346  52.885  1.00  0.00    -0.128 NA
ENDROOT
BRANCH   1   6
HETATM    6  C   UNL     1      27.142  43.845  53.231  1.00  0.00     0.046 A 
HETATM    7  C   UNL     1      27.787  44.841  53.977  1.00  0.00     0.030 A 
HETATM    8  C   UNL     1      28.921  44.560  54.767  1.00  0.00    -0.025 A 
HETATM    9  C   UNL     1      29.554  45.561  55.524  1.00  0.00     0.012 A 
HETATM   10  C   UNL     1      29.442  43.249  54.797  1.00  0.00    -0.023 A 
HETATM   11  C   UNL     1      30.686  45.271  56.289  1.00  0.00     0.001 A 
HETATM   12  C   UNL     1      31.201  43.979  56.309  1.00  0.00     0.001 A 
HETATM   13  C   UNL     1      30.583  42.972  55.568  1.00  0.00     0.012 A 
HETATM   14  C   UNL     1      28.817  42.250  54.043  1.00  0.00     0.049 A 
HETATM   15  C   UNL     1      27.696  42.550  53.271  1.00  0.00     0.080 A 
BRANCH  15  16
HETATM   16  O   UNL     1      27.185  41.499  52.548  1.00  0.00    -0.360 OA
HETATM   17  H   UNL     1      26.829  40.840  53.179  1.00  0.00     0.217 HD
ENDBRANCH  15  16
ENDBRANCH   1   6
BRANCH   2  18
HETATM   18  C   UNL     1      26.907  44.022  49.995  1.00  0.00     0.198 C 
BRANCH  18  19
HETATM   19  C   UNL     1      26.906  42.650  49.441  1.00  0.00     0.070 A 
HETATM   20  O   UNL     1      27.952  41.861  49.825  1.00  0.00    -0.325 OA
HETATM   21  C   UNL     1      27.767  40.645  49.253  1.00  0.00     0.142 A 
HETATM   22  C   UNL     1      26.612  40.636  48.508  1.00  0.00     0.027 A 
HETATM   23  C   UNL     1      26.051  41.931  48.631  1.00  0.00     0.036 A 
ENDBRANCH  18  19
ENDBRANCH   2  18
BRANCH   3  24
HETATM   24  S   UNL     1      23.875  44.863  49.200  1.00  0.00    -0.081 SA
BRANCH  24  25
HETATM   25  C   UNL     1      23.711  46.671  49.252  1.00  0.00     0.185 C 
BRANCH  25  26
HETATM   26  C   UNL     1      22.496  47.190  48.500  1.00  0.00     0.227 C 
HETATM   27  N   UNL     1      21.595  47.911  49.250  1.00  0.00    -0.356 N 
HETATM   28  H   UNL     1      21.793  48.045  50.241  1.00  0.00     0.162 HD
HETATM   29  O   UNL     1      22.303  46.899  47.321  1.00  0.00    -0.273 OA
BRANCH  27  30
HETATM   30  C   UNL     1      20.284  48.275  48.765  1.00  0.00     0.084 C 
HETATM   31  C   UNL     1      19.273  48.419  49.897  1.00  0.00     0.025 C 
HETATM   32  C   UNL     1      18.118  49.183  49.263  1.00  0.00     0.002 C 
HETATM   33  C   UNL     1      18.735  50.009  48.134  1.00  0.00     0.002 C 
HETATM   34  C   UNL     1      20.218  49.647  48.098  1.00  0.00     0.025 C 
ENDBRANCH  27  30
ENDBRANCH  25  26
ENDBRANCH  24  25
ENDBRANCH   3  24
TORSDOF 8
ENDMDL
MODEL 8
REMARK VINA RESULT:      -9.1      2.295      3.363
REMARK  8 active torsions:
REMARK  status: ('A' for Active; 'I' for Inactive)
REMARK    1  A    between atoms: C_8  and  C_9 
REMARK    2  A    between atoms: N_10  and  C_11 
REMARK    3  A    between atoms: C_11  and  C_12 
REMARK    4  A    between atoms: C_17  and  S_18 
REMARK    5  A    between atoms: S_18  and  C_19 
REMARK    6  A    between atoms: C_19  and  C_20 
REMARK       I    between atoms: C_20  and  N_21 
REMARK    7  A    between atoms: N_21  and  C_22 
REMARK    8  A    between atoms: C_30  and  O_31 
ROOT
HETATM    1  C   UNL     1      24.717  45.106  49.710  1.00  0.00     0.167 A 
HETATM    2  N   UNL     1      24.036  46.287  49.455  1.00  0.00    -0.301 N 
HETATM    3  C   UNL     1      23.136  45.977  48.466  1.00  0.00     0.192 A 
HETATM    4  N   UNL     1      23.251  44.718  48.129  1.00  0.00    -0.122 NA
HETATM    5  N   UNL     1      24.223  44.173  48.907  1.00  0.00    -0.128 NA
ENDROOT
BRANCH   1   6
HETATM    6  C   UNL     1      25.742  44.797  50.722  1.00  0.00     0.046 A 
HETATM    7  C   UNL     1      25.728  45.324  52.020  1.00  0.00     0.030 A 
HETATM    8  C   UNL     1      26.741  45.024  52.954  1.00  0.00    -0.025 A 
HETATM    9  C   UNL     1      26.713  45.546  54.259  1.00  0.00     0.012 A 
HETATM   10  C   UNL     1      27.814  44.189  52.575  1.00  0.00    -0.023 A 
HETATM   11  C   UNL     1      27.732  45.252  55.168  1.00  0.00     0.001 A 
HETATM   12  C   UNL     1      28.792  44.436  54.788  1.00  0.00     0.001 A 
HETATM   13  C   UNL     1      28.834  43.906  53.498  1.00  0.00     0.012 A 
HETATM   14  C   UNL     1      27.848  43.671  51.277  1.00  0.00     0.049 A 
HETATM   15  C   UNL     1      26.835  43.980  50.370  1.00  0.00     0.080 A 
BRANCH  15  16
HETATM   16  O   UNL     1      26.988  43.440  49.116  1.00  0.00    -0.360 OA
HETATM   17  H   UNL     1      26.651  44.088  48.462  1.00  0.00     0.217 HD
ENDBRANCH  15  16
ENDBRANCH   1   6
BRANCH   2  18
HETATM   18  C   UNL     1      24.244  47.599  50.040  1.00  0.00     0.198 C 
BRANCH  18  19
HETATM   19  C   UNL     1      25.444  48.288  49.515  1.00  0.00     0.070 A 
HETATM   20  O   UNL     1      25.202  49.270  48.598  1.00  0.00    -0.325 OA
HETATM   21  C   UNL     1      26.402  49.804  48.258  1.00  0.00     0.142 A 
HETATM   22  C   UNL     1      27.416  49.182  48.948  1.00  0.00     0.027 A 
HETATM   23  C   UNL     1      26.799  48.204  49.764  1.00  0.00     0.036 A 
ENDBRANCH  18  19
ENDBRANCH   2  18
BRANCH   3  24
HETATM   24  S   UNL     1      22.000  47.069  47.757  1.00  0.00    -0.081 SA
BRANCH  24  25
HETATM   25  C   UNL     1      20.496  46.636  48.680  1.00  0.00     0.185 C 
BRANCH  25  26
HETATM   26  C   UNL     1      19.439  47.728  48.662  1.00  0.00     0.227 C 
HETATM   27  N   UNL     1      19.869  48.965  48.241  1.00  0.00    -0.356 N 
HETATM   28  H   UNL     1      20.849  49.070  47.978  1.00  0.00     0.162 HD
HETATM   29  O   UNL     1      18.303  47.523  49.085  1.00  0.00    -0.273 OA
BRANCH  27  30
HETATM   30  C   UNL     1      19.074  50.163  48.382  1.00  0.00     0.084 C 
HETATM   31  C   UNL     1      19.920  51.375  48.755  1.00  0.00     0.025 C 
HETATM   32  C   UNL     1      19.014  52.561  48.455  1.00  0.00     0.002 C 
HETATM   33  C   UNL     1      18.065  52.093  47.352  1.00  0.00     0.002 C 
HETATM   34  C   UNL     1      18.399  50.626  47.093  1.00  0.00     0.025 C 
ENDBRANCH  27  30
ENDBRANCH  25  26
ENDBRANCH  24  25
ENDBRANCH   3  24
TORSDOF 8
ENDMDL
MODEL 9
REMARK VINA RESULT:      -9.0      1.703      2.508
REMARK  8 active torsions:
REMARK  status: ('A' for Active; 'I' for Inactive)
REMARK    1  A    between atoms: C_8  and  C_9 
REMARK    2  A    between atoms: N_10  and  C_11 
REMARK    3  A    between atoms: C_11  and  C_12 
REMARK    4  A    between atoms: C_17  and  S_18 
REMARK    5  A    between atoms: S_18  and  C_19 
REMARK    6  A    between atoms: C_19  and  C_20 
REMARK       I    between atoms: C_20  and  N_21 
REMARK    7  A    between atoms: N_21  and  C_22 
REMARK    8  A    between atoms: C_30  and  O_31 
ROOT
HETATM    1  C   UNL     1      25.852  44.517  52.175  1.00  0.00     0.167 A 
HETATM    2  N   UNL     1      25.825  44.760  50.810  1.00  0.00    -0.301 N 
HETATM    3  C   UNL     1      24.560  44.407  50.407  1.00  0.00     0.192 A 
HETATM    4  N   UNL     1      23.865  43.976  51.428  1.00  0.00    -0.122 NA
HETATM    5  N   UNL     1      24.660  44.054  52.527  1.00  0.00    -0.128 NA
ENDROOT
BRANCH   1   6
HETATM    6  C   UNL     1      26.908  44.777  53.167  1.00  0.00     0.046 A 
HETATM    7  C   UNL     1      27.922  43.858  53.473  1.00  0.00     0.030 A 
HETATM    8  C   UNL     1      28.903  44.133  54.448  1.00  0.00    -0.025 A 
HETATM    9  C   UNL     1      29.925  43.213  54.740  1.00  0.00     0.012 A 
HETATM   10  C   UNL     1      28.861  45.353  55.157  1.00  0.00    -0.023 A 
HETATM   11  C   UNL     1      30.881  43.492  55.719  1.00  0.00     0.001 A 
HETATM   12  C   UNL     1      30.830  44.692  56.421  1.00  0.00     0.001 A 
HETATM   13  C   UNL     1      29.825  45.619  56.142  1.00  0.00     0.012 A 
HETATM   14  C   UNL     1      27.844  46.270  54.872  1.00  0.00     0.049 A 
HETATM   15  C   UNL     1      26.885  45.978  53.903  1.00  0.00     0.080 A 
BRANCH  15  16
HETATM   16  O   UNL     1      25.917  46.938  53.730  1.00  0.00    -0.360 OA
HETATM   17  H   UNL     1      26.340  47.731  53.338  1.00  0.00     0.217 HD
ENDBRANCH  15  16
ENDBRANCH   1   6
BRANCH   2  18
HETATM   18  C   UNL     1      26.896  45.225  49.949  1.00  0.00     0.198 C 
BRANCH  18  19
HETATM   19  C   UNL     1      26.885  46.690  49.743  1.00  0.00     0.070 A 
HETATM   20  O   UNL     1      27.858  47.174  48.918  1.00  0.00    -0.325 OA
HETATM   21  C   UNL     1      27.673  48.515  48.824  1.00  0.00     0.142 A 
HETATM   22  C   UNL     1      26.589  48.903  49.575  1.00  0.00     0.027 A 
HETATM   23  C   UNL     1      26.076  47.724  50.168  1.00  0.00     0.036 A 
ENDBRANCH  18  19
ENDBRANCH   2  18
BRANCH   3  24
HETATM   24  S   UNL     1      23.947  44.514  48.795  1.00  0.00    -0.081 SA
BRANCH  24  25
HETATM   25  C   UNL     1      23.147  46.144  48.847  1.00  0.00     0.185 C 
BRANCH  25  26
HETATM   26  C   UNL     1      21.761  46.158  48.222  1.00  0.00     0.227 C 
HETATM   27  N   UNL     1      20.762  45.586  48.975  1.00  0.00    -0.356 N 
HETATM   28  H   UNL     1      21.009  45.194  49.883  1.00  0.00     0.162 HD
HETATM   29  O   UNL     1      21.581  46.576  47.080  1.00  0.00    -0.273 OA
BRANCH  27  30
HETATM   30  C   UNL     1      19.447  45.301  48.449  1.00  0.00     0.084 C 
HETATM   31  C   UNL     1      18.649  46.571  48.178  1.00  0.00     0.025 C 
HETATM   32  C   UNL     1      17.515  46.105  47.275  1.00  0.00     0.002 C 
HETATM   33  C   UNL     1      18.047  44.878  46.535  1.00  0.00     0.002 C 
HETATM   34  C   UNL     1      19.450  44.624  47.081  1.00  0.00     0.025 C 
ENDBRANCH  27  30
ENDBRANCH  25  26
ENDBRANCH  24  25
ENDBRANCH   3  24
TORSDOF 8
ENDMDL
MODEL 10
REMARK VINA RESULT:      -9.0      2.125      3.132
REMARK  8 active torsions:
REMARK  status: ('A' for Active; 'I' for Inactive)
REMARK    1  A    between atoms: C_8  and  C_9 
REMARK    2  A    between atoms: N_10  and  C_11 
REMARK    3  A    between atoms: C_11  and  C_12 
REMARK    4  A    between atoms: C_17  and  S_18 
REMARK    5  A    between atoms: S_18  and  C_19 
REMARK    6  A    between atoms: C_19  and  C_20 
REMARK       I    between atoms: C_20  and  N_21 
REMARK    7  A    between atoms: N_21  and  C_22 
REMARK    8  A    between atoms: C_30  and  O_31 
ROOT
HETATM    1  C   UNL     1      25.529  46.462  51.801  1.00  0.00     0.167 A 
HETATM    2  N   UNL     1      24.677  45.652  51.064  1.00  0.00    -0.301 N 
HETATM    3  C   UNL     1      24.053  46.496  50.179  1.00  0.00     0.192 A 
HETATM    4  N   UNL     1      24.472  47.724  50.355  1.00  0.00    -0.122 NA
HETATM    5  N   UNL     1      25.395  47.703  51.352  1.00  0.00    -0.128 NA
ENDROOT
BRANCH   1   6
HETATM    6  C   UNL     1      26.512  46.113  52.840  1.00  0.00     0.046 A 
HETATM    7  C   UNL     1      27.389  45.024  52.737  1.00  0.00     0.030 A 
HETATM    8  C   UNL     1      28.302  44.707  53.765  1.00  0.00    -0.025 A 
HETATM    9  C   UNL     1      29.187  43.621  53.649  1.00  0.00     0.012 A 
HETATM   10  C   UNL     1      28.327  45.486  54.941  1.00  0.00    -0.023 A 
HETATM   11  C   UNL     1      30.075  43.310  54.681  1.00  0.00     0.001 A 
HETATM   12  C   UNL     1      30.090  44.076  55.843  1.00  0.00     0.001 A 
HETATM   13  C   UNL     1      29.221  45.159  55.973  1.00  0.00     0.012 A 
HETATM   14  C   UNL     1      27.445  46.565  55.061  1.00  0.00     0.049 A 
HETATM   15  C   UNL     1      26.552  46.862  54.033  1.00  0.00     0.080 A 
BRANCH  15  16
HETATM   16  O   UNL     1      25.713  47.923  54.274  1.00  0.00    -0.360 OA
HETATM   17  H   UNL     1      24.860  47.569  54.603  1.00  0.00     0.217 HD
ENDBRANCH  15  16
ENDBRANCH   1   6
BRANCH   2  18
HETATM   18  C   UNL     1      24.426  44.230  51.208  1.00  0.00     0.198 C 
BRANCH  18  19
HETATM   19  C   UNL     1      25.393  43.389  50.467  1.00  0.00     0.070 A 
HETATM   20  O   UNL     1      25.888  42.320  51.156  1.00  0.00    -0.325 OA
HETATM   21  C   UNL     1      26.722  41.656  50.316  1.00  0.00     0.142 A 
HETATM   22  C   UNL     1      26.768  42.280  49.093  1.00  0.00     0.027 A 
HETATM   23  C   UNL     1      25.906  43.399  49.187  1.00  0.00     0.036 A 
ENDBRANCH  18  19
ENDBRANCH   2  18
BRANCH   3  24
HETATM   24  S   UNL     1      22.887  46.033  48.992  1.00  0.00    -0.081 SA
BRANCH  24  25
HETATM   25  C   UNL     1      22.643  47.611  48.126  1.00  0.00     0.185 C 
BRANCH  25  26
HETATM   26  C   UNL     1      21.264  48.213  48.341  1.00  0.00     0.227 C 
HETATM   27  N   UNL     1      21.061  49.452  47.780  1.00  0.00    -0.356 N 
HETATM   28  H   UNL     1      21.833  49.881  47.270  1.00  0.00     0.162 HD
HETATM   29  O   UNL     1      20.428  47.654  49.049  1.00  0.00    -0.273 OA
BRANCH  27  30
HETATM   30  C   UNL     1      19.907  50.269  48.077  1.00  0.00     0.084 C 
HETATM   31  C   UNL     1      20.299  51.658  48.569  1.00  0.00     0.025 C 
HETATM   32  C   UNL     1      19.019  52.471  48.430  1.00  0.00     0.002 C 
HETATM   33  C   UNL     1      18.226  51.811  47.302  1.00  0.00     0.002 C 
HETATM   34  C   UNL     1      19.035  50.591  46.866  1.00  0.00     0.025 C 
ENDBRANCH  27  30
ENDBRANCH  25  26
ENDBRANCH  24  25
ENDBRANCH   3  24
TORSDOF 8
ENDMDL
