MODEL 1
REMARK VINA RESULT:      -8.9      0.000      0.000
REMARK  5 active torsions:
REMARK  status: ('A' for Active; 'I' for Inactive)
REMARK    1  A    between atoms: C_8  and  C_9 
REMARK    2  A    between atoms: N_10  and  N_11 
REMARK       I    between atoms: N_11  and  C_12 
REMARK    3  A    between atoms: C_12  and  C_13 
REMARK    4  A    between atoms: C_13  and  N_14 
REMARK    5  A    between atoms: N_14  and  C_15 
ROOT
HETATM    1  N   UNL     1      26.160  46.341  52.520  1.00  0.00    -0.246 N 
HETATM    2  C   UNL     1      25.430  45.158  52.668  1.00  0.00     0.255 C 
HETATM    3  O   UNL     1      24.351  44.915  52.133  1.00  0.00    -0.270 OA
HETATM    4  H   UNL     1      27.158  46.301  52.706  1.00  0.00     0.192 HD
ENDROOT
BRANCH   1   5
HETATM    5  N   UNL     1      25.804  47.366  51.671  1.00  0.00    -0.184 NA
HETATM    6  C   UNL     1      26.197  47.282  50.438  1.00  0.00     0.152 C 
BRANCH   6   7
HETATM    7  C   UNL     1      25.907  48.359  49.513  1.00  0.00     0.011 A 
HETATM    8  C   UNL     1      24.610  48.823  49.117  1.00  0.00     0.004 A 
HETATM    9  C   UNL     1      23.289  48.454  49.449  1.00  0.00     0.014 A 
HETATM   10  C   UNL     1      24.798  49.863  48.204  1.00  0.00     0.043 A 
HETATM   11  C   UNL     1      22.213  49.132  48.864  1.00  0.00     0.001 A 
HETATM   12  C   UNL     1      22.436  50.165  47.957  1.00  0.00     0.002 A 
HETATM   13  C   UNL     1      23.734  50.550  47.609  1.00  0.00     0.030 A 
HETATM   14  N   UNL     1      26.156  50.025  48.050  1.00  0.00    -0.364 N 
HETATM   15  H   UNL     1      26.585  50.707  47.440  1.00  0.00     0.165 HD
HETATM   16  C   UNL     1      26.831  49.129  48.832  1.00  0.00     0.102 A 
ENDBRANCH   6   7
ENDBRANCH   1   5
BRANCH   2  17
HETATM   17  C   UNL     1      26.133  44.142  53.571  1.00  0.00     0.224 C 
BRANCH  17  18
HETATM   18  N   UNL     1      27.545  44.008  53.206  1.00  0.00    -0.381 N 
HETATM   19  H   UNL     1      27.738  43.378  52.432  1.00  0.00     0.160 HD
BRANCH  18  20
HETATM   20  C   UNL     1      28.547  44.057  54.171  1.00  0.00     0.028 A 
HETATM   21  C   UNL     1      29.503  43.028  54.196  1.00  0.00     0.032 A 
HETATM   22  C   UNL     1      30.582  43.058  55.083  1.00  0.00     0.044 A 
HETATM   23  C   UNL     1      30.729  44.137  55.941  1.00  0.00     0.116 A 
HETATM   24  F   UNL     1      31.767  44.176  56.786  1.00  0.00    -0.206 F 
HETATM   25  C   UNL     1      29.820  45.184  55.922  1.00  0.00     0.044 A 
HETATM   26  C   UNL     1      28.740  45.147  55.033  1.00  0.00     0.032 A 
ENDBRANCH  18  20
ENDBRANCH  17  18
ENDBRANCH   2  17
TORSDOF 5
ENDMDL
MODEL 2
REMARK VINA RESULT:      -8.7      3.008      8.846
REMARK  5 active torsions:
REMARK  status: ('A' for Active; 'I' for Inactive)
REMARK    1  A    between atoms: C_8  and  C_9 
REMARK    2  A    between atoms: N_10  and  N_11 
REMARK       I    between atoms: N_11  and  C_12 
REMARK    3  A    between atoms: C_12  and  C_13 
REMARK    4  A    between atoms: C_13  and  N_14 
REMARK    5  A    between atoms: N_14  and  C_15 
ROOT
HETATM    1  N   UNL     1      26.866  44.835  52.661  1.00  0.00    -0.246 N 
HETATM    2  C   UNL     1      25.481  44.720  52.510  1.00  0.00     0.255 C 
HETATM    3  O   UNL     1      24.689  44.427  53.403  1.00  0.00    -0.270 OA
HETATM    4  H   UNL     1      27.364  45.404  51.983  1.00  0.00     0.192 HD
ENDROOT
BRANCH   1   5
HETATM    5  N   UNL     1      27.522  44.721  53.866  1.00  0.00    -0.184 NA
HETATM    6  C   UNL     1      27.855  45.820  54.470  1.00  0.00     0.152 C 
BRANCH   6   7
HETATM    7  C   UNL     1      28.602  45.766  55.709  1.00  0.00     0.011 A 
HETATM    8  C   UNL     1      29.698  44.893  56.012  1.00  0.00     0.004 A 
HETATM    9  C   UNL     1      30.381  43.886  55.298  1.00  0.00     0.014 A 
HETATM   10  C   UNL     1      30.107  45.172  57.318  1.00  0.00     0.043 A 
HETATM   11  C   UNL     1      31.439  43.202  55.907  1.00  0.00     0.001 A 
HETATM   12  C   UNL     1      31.822  43.505  57.211  1.00  0.00     0.002 A 
HETATM   13  C   UNL     1      31.162  44.497  57.943  1.00  0.00     0.030 A 
HETATM   14  N   UNL     1      29.292  46.175  57.791  1.00  0.00    -0.364 N 
HETATM   15  H   UNL     1      29.357  46.576  58.717  1.00  0.00     0.165 HD
HETATM   16  C   UNL     1      28.387  46.541  56.833  1.00  0.00     0.102 A 
ENDBRANCH   6   7
ENDBRANCH   1   5
BRANCH   2  17
HETATM   17  C   UNL     1      25.016  45.029  51.086  1.00  0.00     0.224 C 
BRANCH  17  18
HETATM   18  N   UNL     1      24.480  46.390  50.994  1.00  0.00    -0.381 N 
HETATM   19  H   UNL     1      23.469  46.465  51.056  1.00  0.00     0.160 HD
BRANCH  18  20
HETATM   20  C   UNL     1      25.080  47.347  50.182  1.00  0.00     0.028 A 
HETATM   21  C   UNL     1      24.254  48.246  49.486  1.00  0.00     0.032 A 
HETATM   22  C   UNL     1      24.791  49.284  48.719  1.00  0.00     0.044 A 
HETATM   23  C   UNL     1      26.166  49.447  48.662  1.00  0.00     0.116 A 
HETATM   24  F   UNL     1      26.686  50.446  47.937  1.00  0.00    -0.206 F 
HETATM   25  C   UNL     1      27.009  48.596  49.360  1.00  0.00     0.044 A 
HETATM   26  C   UNL     1      26.465  47.558  50.124  1.00  0.00     0.032 A 
ENDBRANCH  18  20
ENDBRANCH  17  18
ENDBRANCH   2  17
TORSDOF 5
ENDMDL
MODEL 3
REMARK VINA RESULT:      -8.7      4.292      9.584
REMARK  5 active torsions:
REMARK  status: ('A' for Active; 'I' for Inactive)
REMARK    1  A    between atoms: C_8  and  C_9 
REMARK    2  A    between atoms: N_10  and  N_11 
REMARK       I    between atoms: N_11  and  C_12 
REMARK    3  A    between atoms: C_12  and  C_13 
REMARK    4  A    between atoms: C_13  and  N_14 
REMARK    5  A    between atoms: N_14  and  C_15 
ROOT
HETATM    1  N   UNL     1      24.267  47.295  50.788  1.00  0.00    -0.246 N 
HETATM    2  C   UNL     1      24.170  48.115  49.660  1.00  0.00     0.255 C 
HETATM    3  O   UNL     1      24.926  49.045  49.388  1.00  0.00    -0.270 OA
HETATM    4  H   UNL     1      23.834  46.377  50.737  1.00  0.00     0.192 HD
ENDROOT
BRANCH   1   5
HETATM    5  N   UNL     1      25.288  47.367  51.708  1.00  0.00    -0.184 NA
HETATM    6  C   UNL     1      25.382  46.403  52.571  1.00  0.00     0.152 C 
BRANCH   6   7
HETATM    7  C   UNL     1      26.397  46.453  53.603  1.00  0.00     0.011 A 
HETATM    8  C   UNL     1      27.409  45.471  53.859  1.00  0.00     0.004 A 
HETATM    9  C   UNL     1      27.756  44.238  53.267  1.00  0.00     0.014 A 
HETATM   10  C   UNL     1      28.159  45.917  54.949  1.00  0.00     0.043 A 
HETATM   11  C   UNL     1      28.832  43.503  53.778  1.00  0.00     0.001 A 
HETATM   12  C   UNL     1      29.560  43.977  54.866  1.00  0.00     0.002 A 
HETATM   13  C   UNL     1      29.237  45.194  55.474  1.00  0.00     0.030 A 
HETATM   14  N   UNL     1      27.626  47.123  55.341  1.00  0.00    -0.364 N 
HETATM   15  H   UNL     1      27.968  47.676  56.115  1.00  0.00     0.165 HD
HETATM   16  C   UNL     1      26.569  47.456  54.539  1.00  0.00     0.102 A 
ENDBRANCH   6   7
ENDBRANCH   1   5
BRANCH   2  17
HETATM   17  C   UNL     1      23.011  47.720  48.742  1.00  0.00     0.224 C 
BRANCH  17  18
HETATM   18  N   UNL     1      21.722  47.969  49.393  1.00  0.00    -0.381 N 
HETATM   19  H   UNL     1      21.129  47.153  49.514  1.00  0.00     0.160 HD
BRANCH  18  20
HETATM   20  C   UNL     1      21.028  49.158  49.185  1.00  0.00     0.028 A 
HETATM   21  C   UNL     1      19.764  49.307  49.779  1.00  0.00     0.032 A 
HETATM   22  C   UNL     1      19.050  50.504  49.680  1.00  0.00     0.044 A 
HETATM   23  C   UNL     1      19.610  51.578  49.004  1.00  0.00     0.116 A 
HETATM   24  F   UNL     1      18.935  52.731  48.916  1.00  0.00    -0.206 F 
HETATM   25  C   UNL     1      20.869  51.474  48.433  1.00  0.00     0.044 A 
HETATM   26  C   UNL     1      21.577  50.272  48.532  1.00  0.00     0.032 A 
ENDBRANCH  18  20
ENDBRANCH  17  18
ENDBRANCH   2  17
TORSDOF 5
ENDMDL
MODEL 4
REMARK VINA RESULT:      -8.6      3.781      9.528
REMARK  5 active torsions:
REMARK  status: ('A' for Active; 'I' for Inactive)
REMARK    1  A    between atoms: C_8  and  C_9 
REMARK    2  A    between atoms: N_10  and  N_11 
REMARK       I    between atoms: N_11  and  C_12 
REMARK    3  A    between atoms: C_12  and  C_13 
REMARK    4  A    between atoms: C_13  and  N_14 
REMARK    5  A    between atoms: N_14  and  C_15 
ROOT
HETATM    1  N   UNL     1      25.303  46.658  51.958  1.00  0.00    -0.246 N 
HETATM    2  C   UNL     1      25.270  47.307  50.720  1.00  0.00     0.255 C 
HETATM    3  O   UNL     1      26.121  48.089  50.304  1.00  0.00    -0.270 OA
HETATM    4  H   UNL     1      24.764  45.801  52.051  1.00  0.00     0.192 HD
ENDROOT
BRANCH   1   5
HETATM    5  N   UNL     1      26.352  46.741  52.845  1.00  0.00    -0.184 NA
HETATM    6  C   UNL     1      26.563  45.720  53.617  1.00  0.00     0.152 C 
BRANCH   6   7
HETATM    7  C   UNL     1      27.613  45.772  54.614  1.00  0.00     0.011 A 
HETATM    8  C   UNL     1      28.700  44.850  54.762  1.00  0.00     0.004 A 
HETATM    9  C   UNL     1      29.109  43.690  54.070  1.00  0.00     0.014 A 
HETATM   10  C   UNL     1      29.461  45.272  55.855  1.00  0.00     0.043 A 
HETATM   11  C   UNL     1      30.253  43.001  54.489  1.00  0.00     0.001 A 
HETATM   12  C   UNL     1      30.989  43.450  55.582  1.00  0.00     0.002 A 
HETATM   13  C   UNL     1      30.607  44.595  56.287  1.00  0.00     0.030 A 
HETATM   14  N   UNL     1      28.861  46.406  56.351  1.00  0.00    -0.364 N 
HETATM   15  H   UNL     1      29.195  46.927  57.150  1.00  0.00     0.165 HD
HETATM   16  C   UNL     1      27.752  46.717  55.613  1.00  0.00     0.102 A 
ENDBRANCH   6   7
ENDBRANCH   1   5
BRANCH   2  17
HETATM   17  C   UNL     1      24.045  46.924  49.887  1.00  0.00     0.224 C 
BRANCH  17  18
HETATM   18  N   UNL     1      23.879  47.835  48.752  1.00  0.00    -0.381 N 
HETATM   19  H   UNL     1      24.725  48.032  48.224  1.00  0.00     0.160 HD
BRANCH  18  20
HETATM   20  C   UNL     1      22.973  48.891  48.803  1.00  0.00     0.028 A 
HETATM   21  C   UNL     1      23.419  50.173  48.441  1.00  0.00     0.032 A 
HETATM   22  C   UNL     1      22.543  51.261  48.389  1.00  0.00     0.044 A 
HETATM   23  C   UNL     1      21.201  51.068  48.676  1.00  0.00     0.116 A 
HETATM   24  F   UNL     1      20.355  52.105  48.617  1.00  0.00    -0.206 F 
HETATM   25  C   UNL     1      20.722  49.810  49.007  1.00  0.00     0.044 A 
HETATM   26  C   UNL     1      21.605  48.726  49.060  1.00  0.00     0.032 A 
ENDBRANCH  18  20
ENDBRANCH  17  18
ENDBRANCH   2  17
TORSDOF 5
ENDMDL
MODEL 5
REMARK VINA RESULT:      -8.5      1.273      1.306
REMARK  5 active torsions:
REMARK  status: ('A' for Active; 'I' for Inactive)
REMARK    1  A    between atoms: C_8  and  C_9 
REMARK    2  A    between atoms: N_10  and  N_11 
REMARK       I    between atoms: N_11  and  C_12 
REMARK    3  A    between atoms: C_12  and  C_13 
REMARK    4  A    between atoms: C_13  and  N_14 
REMARK    5  A    between atoms: N_14  and  C_15 
ROOT
HETATM    1  N   UNL     1      27.097  44.898  50.249  1.00  0.00    -0.246 N 
HETATM    2  C   UNL     1      26.178  44.112  50.949  1.00  0.00     0.255 C 
HETATM    3  O   UNL     1      24.973  44.335  51.041  1.00  0.00    -0.270 OA
HETATM    4  H   UNL     1      27.961  44.454  49.950  1.00  0.00     0.192 HD
ENDROOT
BRANCH   1   5
HETATM    5  N   UNL     1      26.753  45.991  49.485  1.00  0.00    -0.184 NA
HETATM    6  C   UNL     1      26.633  47.130  50.094  1.00  0.00     0.152 C 
BRANCH   6   7
HETATM    7  C   UNL     1      26.213  48.303  49.356  1.00  0.00     0.011 A 
HETATM    8  C   UNL     1      24.865  48.709  49.085  1.00  0.00     0.004 A 
HETATM    9  C   UNL     1      23.595  48.183  49.405  1.00  0.00     0.014 A 
HETATM   10  C   UNL     1      24.925  49.885  48.334  1.00  0.00     0.043 A 
HETATM   11  C   UNL     1      22.442  48.846  48.970  1.00  0.00     0.001 A 
HETATM   12  C   UNL     1      22.537  50.017  48.224  1.00  0.00     0.002 A 
HETATM   13  C   UNL     1      23.781  50.560  47.890  1.00  0.00     0.030 A 
HETATM   14  N   UNL     1      26.256  50.184  48.156  1.00  0.00    -0.364 N 
HETATM   15  H   UNL     1      26.599  50.984  47.642  1.00  0.00     0.165 HD
HETATM   16  C   UNL     1      27.038  49.243  48.767  1.00  0.00     0.102 A 
ENDBRANCH   6   7
ENDBRANCH   1   5
BRANCH   2  17
HETATM   17  C   UNL     1      26.825  42.885  51.596  1.00  0.00     0.224 C 
BRANCH  17  18
HETATM   18  N   UNL     1      26.695  42.933  53.054  1.00  0.00    -0.381 N 
HETATM   19  H   UNL     1      25.764  43.147  53.402  1.00  0.00     0.160 HD
BRANCH  18  20
HETATM   20  C   UNL     1      27.731  43.405  53.855  1.00  0.00     0.028 A 
HETATM   21  C   UNL     1      28.897  42.630  53.966  1.00  0.00     0.032 A 
HETATM   22  C   UNL     1      30.006  43.082  54.685  1.00  0.00     0.044 A 
HETATM   23  C   UNL     1      29.967  44.333  55.282  1.00  0.00     0.116 A 
HETATM   24  F   UNL     1      31.032  44.776  55.964  1.00  0.00    -0.206 F 
HETATM   25  C   UNL     1      28.843  45.136  55.167  1.00  0.00     0.044 A 
HETATM   26  C   UNL     1      27.735  44.676  54.448  1.00  0.00     0.032 A 
ENDBRANCH  18  20
ENDBRANCH  17  18
ENDBRANCH   2  17
TORSDOF 5
ENDMDL
MODEL 6
REMARK VINA RESULT:      -8.3      4.433      9.555
REMARK  5 active torsions:
REMARK  status: ('A' for Active; 'I' for Inactive)
REMARK    1  A    between atoms: C_8  and  C_9 
REMARK    2  A    between atoms: N_10  and  N_11 
REMARK       I    between atoms: N_11  and  C_12 
REMARK    3  A    between atoms: C_12  and  C_13 
REMARK    4  A    between atoms: C_13  and  N_14 
REMARK    5  A    between atoms: N_14  and  C_15 
ROOT
HETATM    1  N   UNL     1      23.822  46.355  49.821  1.00  0.00    -0.246 N 
HETATM    2  C   UNL     1      23.611  47.695  49.484  1.00  0.00     0.255 C 
HETATM    3  O   UNL     1      24.324  48.636  49.825  1.00  0.00    -0.270 OA
HETATM    4  H   UNL     1      23.401  45.650  49.222  1.00  0.00     0.192 HD
ENDROOT
BRANCH   1   5
HETATM    5  N   UNL     1      24.920  45.897  50.514  1.00  0.00    -0.184 NA
HETATM    6  C   UNL     1      24.709  45.338  51.665  1.00  0.00     0.152 C 
BRANCH   6   7
HETATM    7  C   UNL     1      25.830  44.892  52.468  1.00  0.00     0.011 A 
HETATM    8  C   UNL     1      26.616  45.692  53.360  1.00  0.00     0.004 A 
HETATM    9  C   UNL     1      26.590  47.048  53.750  1.00  0.00     0.014 A 
HETATM   10  C   UNL     1      27.594  44.862  53.913  1.00  0.00     0.043 A 
HETATM   11  C   UNL     1      27.532  47.522  54.670  1.00  0.00     0.001 A 
HETATM   12  C   UNL     1      28.495  46.668  55.202  1.00  0.00     0.002 A 
HETATM   13  C   UNL     1      28.545  45.321  54.833  1.00  0.00     0.030 A 
HETATM   14  N   UNL     1      27.411  43.608  53.378  1.00  0.00    -0.364 N 
HETATM   15  H   UNL     1      27.983  42.804  53.596  1.00  0.00     0.165 HD
HETATM   16  C   UNL     1      26.353  43.614  52.511  1.00  0.00     0.102 A 
ENDBRANCH   6   7
ENDBRANCH   1   5
BRANCH   2  17
HETATM   17  C   UNL     1      22.380  47.892  48.596  1.00  0.00     0.224 C 
BRANCH  17  18
HETATM   18  N   UNL     1      21.192  48.173  49.405  1.00  0.00    -0.381 N 
HETATM   19  H   UNL     1      20.563  47.387  49.544  1.00  0.00     0.160 HD
BRANCH  18  20
HETATM   20  C   UNL     1      20.561  49.412  49.353  1.00  0.00     0.028 A 
HETATM   21  C   UNL     1      20.834  50.256  48.263  1.00  0.00     0.032 A 
HETATM   22  C   UNL     1      20.173  51.477  48.104  1.00  0.00     0.044 A 
HETATM   23  C   UNL     1      19.210  51.855  49.027  1.00  0.00     0.116 A 
HETATM   24  F   UNL     1      18.566  53.020  48.874  1.00  0.00    -0.206 F 
HETATM   25  C   UNL     1      18.895  51.032  50.097  1.00  0.00     0.044 A 
HETATM   26  C   UNL     1      19.562  49.813  50.252  1.00  0.00     0.032 A 
ENDBRANCH  18  20
ENDBRANCH  17  18
ENDBRANCH   2  17
TORSDOF 5
ENDMDL
MODEL 7
REMARK VINA RESULT:      -8.3      1.679      2.640
REMARK  5 active torsions:
REMARK  status: ('A' for Active; 'I' for Inactive)
REMARK    1  A    between atoms: C_8  and  C_9 
REMARK    2  A    between atoms: N_10  and  N_11 
REMARK       I    between atoms: N_11  and  C_12 
REMARK    3  A    between atoms: C_12  and  C_13 
REMARK    4  A    between atoms: C_13  and  N_14 
REMARK    5  A    between atoms: N_14  and  C_15 
ROOT
HETATM    1  N   UNL     1      26.219  45.051  52.731  1.00  0.00    -0.246 N 
HETATM    2  C   UNL     1      27.219  44.146  52.361  1.00  0.00     0.255 C 
HETATM    3  O   UNL     1      27.829  44.158  51.295  1.00  0.00    -0.270 OA
HETATM    4  H   UNL     1      26.040  45.168  53.725  1.00  0.00     0.192 HD
ENDROOT
BRANCH   1   5
HETATM    5  N   UNL     1      25.847  46.141  51.977  1.00  0.00    -0.184 NA
HETATM    6  C   UNL     1      25.092  45.922  50.946  1.00  0.00     0.152 C 
BRANCH   6   7
HETATM    7  C   UNL     1      24.718  47.021  50.078  1.00  0.00     0.011 A 
HETATM    8  C   UNL     1      25.587  48.031  49.551  1.00  0.00     0.004 A 
HETATM    9  C   UNL     1      26.969  48.296  49.661  1.00  0.00     0.014 A 
HETATM   10  C   UNL     1      24.807  48.894  48.778  1.00  0.00     0.043 A 
HETATM   11  C   UNL     1      27.517  49.402  49.001  1.00  0.00     0.001 A 
HETATM   12  C   UNL     1      26.710  50.242  48.238  1.00  0.00     0.002 A 
HETATM   13  C   UNL     1      25.338  50.004  48.112  1.00  0.00     0.030 A 
HETATM   14  N   UNL     1      23.514  48.427  48.833  1.00  0.00    -0.364 N 
HETATM   15  H   UNL     1      22.729  48.861  48.367  1.00  0.00     0.165 HD
HETATM   16  C   UNL     1      23.449  47.302  49.608  1.00  0.00     0.102 A 
ENDBRANCH   6   7
ENDBRANCH   1   5
BRANCH   2  17
HETATM   17  C   UNL     1      27.515  43.116  53.453  1.00  0.00     0.224 C 
BRANCH  17  18
HETATM   18  N   UNL     1      28.953  43.043  53.726  1.00  0.00    -0.381 N 
HETATM   19  H   UNL     1      29.381  42.135  53.567  1.00  0.00     0.160 HD
BRANCH  18  20
HETATM   20  C   UNL     1      29.528  43.779  54.757  1.00  0.00     0.028 A 
HETATM   21  C   UNL     1      28.904  44.972  55.158  1.00  0.00     0.032 A 
HETATM   22  C   UNL     1      29.381  45.715  56.241  1.00  0.00     0.044 A 
HETATM   23  C   UNL     1      30.478  45.256  56.952  1.00  0.00     0.116 A 
HETATM   24  F   UNL     1      30.933  45.959  57.997  1.00  0.00    -0.206 F 
HETATM   25  C   UNL     1      31.100  44.067  56.602  1.00  0.00     0.044 A 
HETATM   26  C   UNL     1      30.619  43.328  55.516  1.00  0.00     0.032 A 
ENDBRANCH  18  20
ENDBRANCH  17  18
ENDBRANCH   2  17
TORSDOF 5
ENDMDL
MODEL 8
REMARK VINA RESULT:      -8.2      3.735      9.443
REMARK  5 active torsions:
REMARK  status: ('A' for Active; 'I' for Inactive)
REMARK    1  A    between atoms: C_8  and  C_9 
REMARK    2  A    between atoms: N_10  and  N_11 
REMARK       I    between atoms: N_11  and  C_12 
REMARK    3  A    between atoms: C_12  and  C_13 
REMARK    4  A    between atoms: C_13  and  N_14 
REMARK    5  A    between atoms: N_14  and  C_15 
ROOT
HETATM    1  N   UNL     1      25.130  45.212  51.352  1.00  0.00    -0.246 N 
HETATM    2  C   UNL     1      25.258  45.731  50.060  1.00  0.00     0.255 C 
HETATM    3  O   UNL     1      26.222  45.560  49.317  1.00  0.00    -0.270 OA
HETATM    4  H   UNL     1      24.190  45.116  51.726  1.00  0.00     0.192 HD
ENDROOT
BRANCH   1   5
HETATM    5  N   UNL     1      26.039  44.356  51.934  1.00  0.00    -0.184 NA
HETATM    6  C   UNL     1      26.943  44.880  52.703  1.00  0.00     0.152 C 
BRANCH   6   7
HETATM    7  C   UNL     1      27.964  44.039  53.294  1.00  0.00     0.011 A 
HETATM    8  C   UNL     1      28.850  44.390  54.363  1.00  0.00     0.004 A 
HETATM    9  C   UNL     1      29.032  45.546  55.152  1.00  0.00     0.014 A 
HETATM   10  C   UNL     1      29.675  43.288  54.603  1.00  0.00     0.043 A 
HETATM   11  C   UNL     1      30.020  45.559  56.143  1.00  0.00     0.001 A 
HETATM   12  C   UNL     1      30.825  44.443  56.356  1.00  0.00     0.002 A 
HETATM   13  C   UNL     1      30.668  43.285  55.588  1.00  0.00     0.030 A 
HETATM   14  N   UNL     1      29.305  42.306  53.713  1.00  0.00    -0.364 N 
HETATM   15  H   UNL     1      29.738  41.394  53.654  1.00  0.00     0.165 HD
HETATM   16  C   UNL     1      28.277  42.744  52.924  1.00  0.00     0.102 A 
ENDBRANCH   6   7
ENDBRANCH   1   5
BRANCH   2  17
HETATM   17  C   UNL     1      24.034  46.540  49.627  1.00  0.00     0.224 C 
BRANCH  17  18
HETATM   18  N   UNL     1      24.405  47.922  49.314  1.00  0.00    -0.381 N 
HETATM   19  H   UNL     1      25.265  48.251  49.746  1.00  0.00     0.160 HD
BRANCH  18  20
HETATM   20  C   UNL     1      23.437  48.906  49.138  1.00  0.00     0.028 A 
HETATM   21  C   UNL     1      23.856  50.203  48.799  1.00  0.00     0.032 A 
HETATM   22  C   UNL     1      22.934  51.218  48.526  1.00  0.00     0.044 A 
HETATM   23  C   UNL     1      21.577  50.934  48.565  1.00  0.00     0.116 A 
HETATM   24  F   UNL     1      20.690  51.900  48.294  1.00  0.00    -0.206 F 
HETATM   25  C   UNL     1      21.131  49.657  48.866  1.00  0.00     0.044 A 
HETATM   26  C   UNL     1      22.059  48.646  49.141  1.00  0.00     0.032 A 
ENDBRANCH  18  20
ENDBRANCH  17  18
ENDBRANCH   2  17
TORSDOF 5
ENDMDL
MODEL 9
REMARK VINA RESULT:      -8.1      5.889      8.802
REMARK  5 active torsions:
REMARK  status: ('A' for Active; 'I' for Inactive)
REMARK    1  A    between atoms: C_8  and  C_9 
REMARK    2  A    between atoms: N_10  and  N_11 
REMARK       I    between atoms: N_11  and  C_12 
REMARK    3  A    between atoms: C_12  and  C_13 
REMARK    4  A    between atoms: C_13  and  N_14 
REMARK    5  A    between atoms: N_14  and  C_15 
ROOT
HETATM    1  N   UNL     1      26.304  42.546  52.240  1.00  0.00    -0.246 N 
HETATM    2  C   UNL     1      26.939  41.469  51.614  1.00  0.00     0.255 C 
HETATM    3  O   UNL     1      28.048  41.028  51.906  1.00  0.00    -0.270 OA
HETATM    4  H   UNL     1      25.292  42.598  52.167  1.00  0.00     0.192 HD
ENDROOT
BRANCH   1   5
HETATM    5  N   UNL     1      26.807  43.204  53.340  1.00  0.00    -0.184 NA
HETATM    6  C   UNL     1      27.479  44.293  53.128  1.00  0.00     0.152 C 
BRANCH   6   7
HETATM    7  C   UNL     1      28.085  44.996  54.239  1.00  0.00     0.011 A 
HETATM    8  C   UNL     1      29.181  44.545  55.044  1.00  0.00     0.004 A 
HETATM    9  C   UNL     1      29.989  43.387  55.048  1.00  0.00     0.014 A 
HETATM   10  C   UNL     1      29.428  45.527  56.006  1.00  0.00     0.043 A 
HETATM   11  C   UNL     1      31.004  43.255  56.002  1.00  0.00     0.001 A 
HETATM   12  C   UNL     1      31.224  44.254  56.946  1.00  0.00     0.002 A 
HETATM   13  C   UNL     1      30.438  45.410  56.967  1.00  0.00     0.030 A 
HETATM   14  N   UNL     1      28.517  46.537  55.794  1.00  0.00    -0.364 N 
HETATM   15  H   UNL     1      28.459  47.380  56.349  1.00  0.00     0.165 HD
HETATM   16  C   UNL     1      27.708  46.231  54.735  1.00  0.00     0.102 A 
ENDBRANCH   6   7
ENDBRANCH   1   5
BRANCH   2  17
HETATM   17  C   UNL     1      26.087  40.847  50.505  1.00  0.00     0.224 C 
BRANCH  17  18
HETATM   18  N   UNL     1      26.331  39.406  50.405  1.00  0.00    -0.381 N 
HETATM   19  H   UNL     1      26.435  38.919  51.291  1.00  0.00     0.160 HD
BRANCH  18  20
HETATM   20  C   UNL     1      27.085  38.873  49.364  1.00  0.00     0.028 A 
HETATM   21  C   UNL     1      28.428  38.543  49.611  1.00  0.00     0.032 A 
HETATM   22  C   UNL     1      29.218  37.929  48.636  1.00  0.00     0.044 A 
HETATM   23  C   UNL     1      28.661  37.615  47.406  1.00  0.00     0.116 A 
HETATM   24  F   UNL     1      29.411  37.016  46.472  1.00  0.00    -0.206 F 
HETATM   25  C   UNL     1      27.330  37.900  47.140  1.00  0.00     0.044 A 
HETATM   26  C   UNL     1      26.546  38.517  48.119  1.00  0.00     0.032 A 
ENDBRANCH  18  20
ENDBRANCH  17  18
ENDBRANCH   2  17
TORSDOF 5
ENDMDL
MODEL 10
REMARK VINA RESULT:      -8.0      1.040      1.701
REMARK  5 active torsions:
REMARK  status: ('A' for Active; 'I' for Inactive)
REMARK    1  A    between atoms: C_8  and  C_9 
REMARK    2  A    between atoms: N_10  and  N_11 
REMARK       I    between atoms: N_11  and  C_12 
REMARK    3  A    between atoms: C_12  and  C_13 
REMARK    4  A    between atoms: C_13  and  N_14 
REMARK    5  A    between atoms: N_14  and  C_15 
ROOT
HETATM    1  N   UNL     1      25.861  46.646  51.581  1.00  0.00    -0.246 N 
HETATM    2  C   UNL     1      25.438  45.377  51.987  1.00  0.00     0.255 C 
HETATM    3  O   UNL     1      24.287  44.954  51.917  1.00  0.00    -0.270 OA
HETATM    4  H   UNL     1      26.845  46.762  51.358  1.00  0.00     0.192 HD
ENDROOT
BRANCH   1   5
HETATM    5  N   UNL     1      25.048  47.567  50.958  1.00  0.00    -0.184 NA
HETATM    6  C   UNL     1      25.262  47.794  49.698  1.00  0.00     0.152 C 
BRANCH   6   7
HETATM    7  C   UNL     1      24.481  48.796  49.002  1.00  0.00     0.011 A 
HETATM    8  C   UNL     1      23.076  48.745  48.721  1.00  0.00     0.004 A 
HETATM    9  C   UNL     1      22.051  47.815  48.992  1.00  0.00     0.014 A 
HETATM   10  C   UNL     1      22.747  49.910  48.024  1.00  0.00     0.043 A 
HETATM   11  C   UNL     1      20.745  48.079  48.562  1.00  0.00     0.001 A 
HETATM   12  C   UNL     1      20.451  49.250  47.869  1.00  0.00     0.002 A 
HETATM   13  C   UNL     1      21.447  50.189  47.586  1.00  0.00     0.030 A 
HETATM   14  N   UNL     1      23.905  50.640  47.886  1.00  0.00    -0.364 N 
HETATM   15  H   UNL     1      23.966  51.532  47.414  1.00  0.00     0.165 HD
HETATM   16  C   UNL     1      24.952  49.982  48.471  1.00  0.00     0.102 A 
ENDBRANCH   6   7
ENDBRANCH   1   5
BRANCH   2  17
HETATM   17  C   UNL     1      26.586  44.519  52.524  1.00  0.00     0.224 C 
BRANCH  17  18
HETATM   18  N   UNL     1      26.921  44.896  53.899  1.00  0.00    -0.381 N 
HETATM   19  H   UNL     1      26.502  45.761  54.229  1.00  0.00     0.160 HD
BRANCH  18  20
HETATM   20  C   UNL     1      28.176  44.625  54.435  1.00  0.00     0.028 A 
HETATM   21  C   UNL     1      28.709  45.519  55.378  1.00  0.00     0.032 A 
HETATM   22  C   UNL     1      29.926  45.265  56.017  1.00  0.00     0.044 A 
HETATM   23  C   UNL     1      30.612  44.094  55.735  1.00  0.00     0.116 A 
HETATM   24  F   UNL     1      31.773  43.840  56.352  1.00  0.00    -0.206 F 
HETATM   25  C   UNL     1      30.099  43.175  54.832  1.00  0.00     0.044 A 
HETATM   26  C   UNL     1      28.882  43.437  54.194  1.00  0.00     0.032 A 
ENDBRANCH  18  20
ENDBRANCH  17  18
ENDBRANCH   2  17
TORSDOF 5
ENDMDL
