MODEL 1
REMARK VINA RESULT:      -9.3      0.000      0.000
REMARK  8 active torsions:
REMARK  status: ('A' for Active; 'I' for Inactive)
REMARK    1  A    between atoms: N_4  and  C_5 
REMARK    2  A    between atoms: C_14  and  C_15 
REMARK    3  A    between atoms: C_15  and  C_16 
REMARK    4  A    between atoms: C_16  and  C_17 
REMARK       I    between atoms: C_17  and  N_18 
REMARK    5  A    between atoms: N_18  and  C_19 
REMARK    6  A    between atoms: C_22  and  S_23 
REMARK    7  A    between atoms: S_23  and  N_24 
REMARK    8  A    between atoms: N_24  and  C_25 
ROOT
HETATM    1  C   UNL     1      24.480  44.593  50.517  1.00  0.00     0.222 C 
HETATM    2  N   UNL     1      24.355  45.039  51.821  1.00  0.00    -0.327 N 
HETATM    3  O   UNL     1      25.508  44.202  49.974  1.00  0.00    -0.273 OA
HETATM    4  H   UNL     1      23.433  45.326  52.123  1.00  0.00     0.169 HD
ENDROOT
BRANCH   1   5
HETATM    5  C   UNL     1      23.173  44.615  49.742  1.00  0.00     0.108 C 
BRANCH   5   6
HETATM    6  C   UNL     1      23.217  45.628  48.601  1.00  0.00     0.055 C 
BRANCH   6   7
HETATM    7  C   UNL     1      23.016  47.064  48.952  1.00  0.00     0.030 A 
HETATM    8  C   UNL     1      23.770  48.066  49.439  1.00  0.00     0.014 A 
HETATM    9  C   UNL     1      25.209  48.038  49.832  1.00  0.00     0.064 C 
HETATM   10  N   UNL     1      23.054  49.247  49.599  1.00  0.00    -0.199 NA
HETATM   11  N   UNL     1      21.728  48.969  49.246  1.00  0.00    -0.238 N 
HETATM   12  H   UNL     1      23.143  49.612  50.551  1.00  0.00     0.153 HD
HETATM   13  C   UNL     1      21.642  47.650  48.809  1.00  0.00     0.270 A 
HETATM   14  O   UNL     1      20.693  47.014  48.382  1.00  0.00    -0.266 OA
BRANCH  11  15
HETATM   15  C   UNL     1      20.741  49.977  49.279  1.00  0.00     0.055 A 
HETATM   16  C   UNL     1      20.834  51.112  48.460  1.00  0.00     0.034 A 
HETATM   17  C   UNL     1      19.848  52.104  48.488  1.00  0.00     0.044 A 
HETATM   18  C   UNL     1      18.762  51.966  49.339  1.00  0.00     0.116 A 
HETATM   19  F   UNL     1      17.816  52.915  49.366  1.00  0.00    -0.206 F 
HETATM   20  C   UNL     1      18.643  50.857  50.164  1.00  0.00     0.044 A 
HETATM   21  C   UNL     1      19.631  49.868  50.136  1.00  0.00     0.034 A 
ENDBRANCH  11  15
ENDBRANCH   6   7
ENDBRANCH   5   6
ENDBRANCH   1   5
BRANCH   2  22
HETATM   22  C   UNL     1      25.384  45.194  52.774  1.00  0.00     0.034 A 
HETATM   23  C   UNL     1      26.001  44.130  53.437  1.00  0.00     0.031 A 
HETATM   24  C   UNL     1      27.033  44.362  54.350  1.00  0.00     0.027 A 
HETATM   25  C   UNL     1      27.460  45.668  54.594  1.00  0.00     0.074 A 
HETATM   26  C   UNL     1      26.839  46.745  53.961  1.00  0.00     0.027 A 
HETATM   27  C   UNL     1      25.804  46.503  53.052  1.00  0.00     0.031 A 
BRANCH  25  28
HETATM   28  S   UNL     1      28.781  45.959  55.743  1.00  0.00     0.241 S 
HETATM   29  O   UNL     1      29.653  46.964  55.174  1.00  0.00    -0.206 OA
HETATM   30  O   UNL     1      28.216  46.106  57.066  1.00  0.00    -0.206 OA
BRANCH  28  31
HETATM   31  N   UNL     1      29.622  44.493  55.642  1.00  0.00    -0.211 NA
HETATM   32  H   UNL     1      29.515  44.090  54.710  1.00  0.00     0.140 HD
BRANCH  31  33
HETATM   33  C   UNL     1      30.962  44.463  56.222  1.00  0.00     0.071 A 
HETATM   34  C   UNL     1      31.140  44.333  57.709  1.00  0.00     0.022 A 
HETATM   35  C   UNL     1      31.542  43.206  56.800  1.00  0.00     0.022 A 
ENDBRANCH  31  33
ENDBRANCH  28  31
ENDBRANCH  25  28
ENDBRANCH   2  22
TORSDOF 8
ENDMDL
MODEL 2
REMARK VINA RESULT:      -9.3      4.197     10.102
REMARK  8 active torsions:
REMARK  status: ('A' for Active; 'I' for Inactive)
REMARK    1  A    between atoms: N_4  and  C_5 
REMARK    2  A    between atoms: C_14  and  C_15 
REMARK    3  A    between atoms: C_15  and  C_16 
REMARK    4  A    between atoms: C_16  and  C_17 
REMARK       I    between atoms: C_17  and  N_18 
REMARK    5  A    between atoms: N_18  and  C_19 
REMARK    6  A    between atoms: C_22  and  S_23 
REMARK    7  A    between atoms: S_23  and  N_24 
REMARK    8  A    between atoms: N_24  and  C_25 
ROOT
HETATM    1  C   UNL     1      24.056  43.497  50.403  1.00  0.00     0.222 C 
HETATM    2  N   UNL     1      24.766  44.523  49.803  1.00  0.00    -0.327 N 
HETATM    3  O   UNL     1      22.864  43.505  50.690  1.00  0.00    -0.273 OA
HETATM    4  H   UNL     1      25.749  44.360  49.627  1.00  0.00     0.169 HD
ENDROOT
BRANCH   1   5
HETATM    5  C   UNL     1      24.902  42.271  50.705  1.00  0.00     0.108 C 
BRANCH   5   6
HETATM    6  C   UNL     1      26.352  42.472  50.276  1.00  0.00     0.055 C 
BRANCH   6   7
HETATM    7  C   UNL     1      27.399  42.380  51.336  1.00  0.00     0.030 A 
HETATM    8  C   UNL     1      28.302  41.469  51.740  1.00  0.00     0.014 A 
HETATM    9  C   UNL     1      28.555  40.106  51.191  1.00  0.00     0.064 C 
HETATM   10  N   UNL     1      29.047  41.902  52.832  1.00  0.00    -0.199 NA
HETATM   11  N   UNL     1      28.547  43.158  53.194  1.00  0.00    -0.238 N 
HETATM   12  H   UNL     1      29.014  41.225  53.598  1.00  0.00     0.153 HD
HETATM   13  C   UNL     1      27.550  43.525  52.294  1.00  0.00     0.270 A 
HETATM   14  O   UNL     1      26.881  44.542  52.219  1.00  0.00    -0.266 OA
BRANCH  11  15
HETATM   15  C   UNL     1      29.110  43.884  54.264  1.00  0.00     0.055 A 
HETATM   16  C   UNL     1      30.296  43.461  54.884  1.00  0.00     0.034 A 
HETATM   17  C   UNL     1      30.857  44.190  55.939  1.00  0.00     0.044 A 
HETATM   18  C   UNL     1      30.233  45.346  56.381  1.00  0.00     0.116 A 
HETATM   19  F   UNL     1      30.769  46.045  57.390  1.00  0.00    -0.206 F 
HETATM   20  C   UNL     1      29.057  45.787  55.791  1.00  0.00     0.044 A 
HETATM   21  C   UNL     1      28.497  45.057  54.739  1.00  0.00     0.034 A 
ENDBRANCH  11  15
ENDBRANCH   6   7
ENDBRANCH   5   6
ENDBRANCH   1   5
BRANCH   2  22
HETATM   22  C   UNL     1      24.288  45.803  49.453  1.00  0.00     0.034 A 
HETATM   23  C   UNL     1      23.106  46.027  48.742  1.00  0.00     0.031 A 
HETATM   24  C   UNL     1      22.684  47.329  48.456  1.00  0.00     0.027 A 
HETATM   25  C   UNL     1      23.444  48.415  48.893  1.00  0.00     0.074 A 
HETATM   26  C   UNL     1      24.640  48.210  49.582  1.00  0.00     0.027 A 
HETATM   27  C   UNL     1      25.056  46.904  49.861  1.00  0.00     0.031 A 
BRANCH  25  28
HETATM   28  S   UNL     1      22.898  50.066  48.540  1.00  0.00     0.241 S 
HETATM   29  O   UNL     1      23.302  50.914  49.641  1.00  0.00    -0.206 OA
HETATM   30  O   UNL     1      23.244  50.383  47.172  1.00  0.00    -0.206 OA
BRANCH  28  31
HETATM   31  N   UNL     1      21.220  49.884  48.675  1.00  0.00    -0.211 NA
HETATM   32  H   UNL     1      20.941  48.951  48.369  1.00  0.00     0.140 HD
BRANCH  31  33
HETATM   33  C   UNL     1      20.602  50.385  49.900  1.00  0.00     0.071 A 
HETATM   34  C   UNL     1      19.594  51.499  49.837  1.00  0.00     0.022 A 
HETATM   35  C   UNL     1      19.162  50.113  50.224  1.00  0.00     0.022 A 
ENDBRANCH  31  33
ENDBRANCH  28  31
ENDBRANCH  25  28
ENDBRANCH   2  22
TORSDOF 8
ENDMDL
MODEL 3
REMARK VINA RESULT:      -9.0      5.785      9.816
REMARK  8 active torsions:
REMARK  status: ('A' for Active; 'I' for Inactive)
REMARK    1  A    between atoms: N_4  and  C_5 
REMARK    2  A    between atoms: C_14  and  C_15 
REMARK    3  A    between atoms: C_15  and  C_16 
REMARK    4  A    between atoms: C_16  and  C_17 
REMARK       I    between atoms: C_17  and  N_18 
REMARK    5  A    between atoms: N_18  and  C_19 
REMARK    6  A    between atoms: C_22  and  S_23 
REMARK    7  A    between atoms: S_23  and  N_24 
REMARK    8  A    between atoms: N_24  and  C_25 
ROOT
HETATM    1  C   UNL     1      26.194  46.228  50.471  1.00  0.00     0.222 C 
HETATM    2  N   UNL     1      25.808  44.947  50.825  1.00  0.00    -0.327 N 
HETATM    3  O   UNL     1      26.680  46.575  49.399  1.00  0.00    -0.273 OA
HETATM    4  H   UNL     1      25.418  44.823  51.750  1.00  0.00     0.169 HD
ENDROOT
BRANCH   1   5
HETATM    5  C   UNL     1      25.964  47.254  51.567  1.00  0.00     0.108 C 
BRANCH   5   6
HETATM    6  C   UNL     1      25.541  46.592  52.874  1.00  0.00     0.055 C 
BRANCH   6   7
HETATM    7  C   UNL     1      26.522  46.607  53.999  1.00  0.00     0.030 A 
HETATM    8  C   UNL     1      26.829  47.431  55.017  1.00  0.00     0.014 A 
HETATM    9  C   UNL     1      26.212  48.743  55.367  1.00  0.00     0.064 C 
HETATM   10  N   UNL     1      27.882  46.956  55.791  1.00  0.00    -0.199 NA
HETATM   11  N   UNL     1      28.324  45.770  55.194  1.00  0.00    -0.238 N 
HETATM   12  H   UNL     1      28.623  47.655  55.882  1.00  0.00     0.153 HD
HETATM   13  C   UNL     1      27.509  45.482  54.102  1.00  0.00     0.270 A 
HETATM   14  O   UNL     1      27.518  44.538  53.330  1.00  0.00    -0.266 OA
BRANCH  11  15
HETATM   15  C   UNL     1      29.379  45.022  55.756  1.00  0.00     0.055 A 
HETATM   16  C   UNL     1      29.883  43.880  55.114  1.00  0.00     0.034 A 
HETATM   17  C   UNL     1      30.937  43.147  55.671  1.00  0.00     0.044 A 
HETATM   18  C   UNL     1      31.492  43.551  56.875  1.00  0.00     0.116 A 
HETATM   19  F   UNL     1      32.501  42.850  57.408  1.00  0.00    -0.206 F 
HETATM   20  C   UNL     1      31.013  44.673  57.536  1.00  0.00     0.044 A 
HETATM   21  C   UNL     1      29.959  45.404  56.979  1.00  0.00     0.034 A 
ENDBRANCH  11  15
ENDBRANCH   6   7
ENDBRANCH   5   6
ENDBRANCH   1   5
BRANCH   2  22
HETATM   22  C   UNL     1      25.944  43.770  50.058  1.00  0.00     0.034 A 
HETATM   23  C   UNL     1      24.950  43.271  49.212  1.00  0.00     0.031 A 
HETATM   24  C   UNL     1      25.170  42.111  48.463  1.00  0.00     0.027 A 
HETATM   25  C   UNL     1      26.397  41.452  48.553  1.00  0.00     0.074 A 
HETATM   26  C   UNL     1      27.391  41.921  49.411  1.00  0.00     0.027 A 
HETATM   27  C   UNL     1      27.161  43.080  50.160  1.00  0.00     0.031 A 
BRANCH  25  28
HETATM   28  S   UNL     1      26.678  39.987  47.590  1.00  0.00     0.241 S 
HETATM   29  O   UNL     1      25.925  38.908  48.190  1.00  0.00    -0.206 OA
HETATM   30  O   UNL     1      26.538  40.323  46.190  1.00  0.00    -0.206 OA
BRANCH  28  31
HETATM   31  N   UNL     1      28.305  39.680  47.942  1.00  0.00    -0.211 NA
HETATM   32  H   UNL     1      28.773  40.542  48.227  1.00  0.00     0.140 HD
BRANCH  31  33
HETATM   33  C   UNL     1      28.593  38.486  48.732  1.00  0.00     0.071 A 
HETATM   34  C   UNL     1      30.000  38.187  49.167  1.00  0.00     0.022 A 
HETATM   35  C   UNL     1      28.963  38.571  50.183  1.00  0.00     0.022 A 
ENDBRANCH  31  33
ENDBRANCH  28  31
ENDBRANCH  25  28
ENDBRANCH   2  22
TORSDOF 8
ENDMDL
MODEL 4
REMARK VINA RESULT:      -8.8      4.901     11.451
REMARK  8 active torsions:
REMARK  status: ('A' for Active; 'I' for Inactive)
REMARK    1  A    between atoms: N_4  and  C_5 
REMARK    2  A    between atoms: C_14  and  C_15 
REMARK    3  A    between atoms: C_15  and  C_16 
REMARK    4  A    between atoms: C_16  and  C_17 
REMARK       I    between atoms: C_17  and  N_18 
REMARK    5  A    between atoms: N_18  and  C_19 
REMARK    6  A    between atoms: C_22  and  S_23 
REMARK    7  A    between atoms: S_23  and  N_24 
REMARK    8  A    between atoms: N_24  and  C_25 
ROOT
HETATM    1  C   UNL     1      23.165  48.318  48.664  1.00  0.00     0.222 C 
HETATM    2  N   UNL     1      22.482  49.141  49.542  1.00  0.00    -0.327 N 
HETATM    3  O   UNL     1      22.805  47.995  47.536  1.00  0.00    -0.273 OA
HETATM    4  H   UNL     1      22.916  49.316  50.440  1.00  0.00     0.169 HD
ENDROOT
BRANCH   1   5
HETATM    5  C   UNL     1      24.482  47.802  49.216  1.00  0.00     0.108 C 
BRANCH   5   6
HETATM    6  C   UNL     1      24.320  47.254  50.631  1.00  0.00     0.055 C 
BRANCH   6   7
HETATM    7  C   UNL     1      25.077  46.016  50.978  1.00  0.00     0.030 A 
HETATM    8  C   UNL     1      25.005  44.708  50.670  1.00  0.00     0.014 A 
HETATM    9  C   UNL     1      24.021  44.015  49.789  1.00  0.00     0.064 C 
HETATM   10  N   UNL     1      25.984  43.953  51.307  1.00  0.00    -0.199 NA
HETATM   11  N   UNL     1      26.701  44.829  52.131  1.00  0.00    -0.238 N 
HETATM   12  H   UNL     1      25.575  43.170  51.822  1.00  0.00     0.153 HD
HETATM   13  C   UNL     1      26.213  46.121  51.953  1.00  0.00     0.270 A 
HETATM   14  O   UNL     1      26.567  47.180  52.442  1.00  0.00    -0.266 OA
BRANCH  11  15
HETATM   15  C   UNL     1      27.789  44.373  52.904  1.00  0.00     0.055 A 
HETATM   16  C   UNL     1      27.937  44.756  54.247  1.00  0.00     0.034 A 
HETATM   17  C   UNL     1      29.012  44.293  55.013  1.00  0.00     0.044 A 
HETATM   18  C   UNL     1      29.948  43.446  54.440  1.00  0.00     0.116 A 
HETATM   19  F   UNL     1      30.977  43.002  55.173  1.00  0.00    -0.206 F 
HETATM   20  C   UNL     1      29.831  43.053  53.114  1.00  0.00     0.044 A 
HETATM   21  C   UNL     1      28.757  43.518  52.349  1.00  0.00     0.034 A 
ENDBRANCH  11  15
ENDBRANCH   6   7
ENDBRANCH   5   6
ENDBRANCH   1   5
BRANCH   2  22
HETATM   22  C   UNL     1      21.214  49.729  49.353  1.00  0.00     0.034 A 
HETATM   23  C   UNL     1      20.006  49.043  49.502  1.00  0.00     0.031 A 
HETATM   24  C   UNL     1      18.786  49.703  49.323  1.00  0.00     0.027 A 
HETATM   25  C   UNL     1      18.775  51.062  49.004  1.00  0.00     0.074 A 
HETATM   26  C   UNL     1      19.971  51.757  48.826  1.00  0.00     0.027 A 
HETATM   27  C   UNL     1      21.187  51.087  49.003  1.00  0.00     0.031 A 
BRANCH  25  28
HETATM   28  S   UNL     1      17.225  51.900  48.792  1.00  0.00     0.241 S 
HETATM   29  O   UNL     1      16.182  50.899  48.729  1.00  0.00    -0.206 OA
HETATM   30  O   UNL     1      17.165  53.000  49.729  1.00  0.00    -0.206 OA
BRANCH  28  31
HETATM   31  N   UNL     1      17.399  52.501  47.218  1.00  0.00    -0.211 NA
HETATM   32  H   UNL     1      18.247  53.064  47.148  1.00  0.00     0.140 HD
BRANCH  31  33
HETATM   33  C   UNL     1      17.139  51.566  46.126  1.00  0.00     0.071 A 
HETATM   34  C   UNL     1      17.414  51.969  44.705  1.00  0.00     0.022 A 
HETATM   35  C   UNL     1      18.255  50.914  45.365  1.00  0.00     0.022 A 
ENDBRANCH  31  33
ENDBRANCH  28  31
ENDBRANCH  25  28
ENDBRANCH   2  22
TORSDOF 8
ENDMDL
MODEL 5
REMARK VINA RESULT:      -8.6      4.738     11.510
REMARK  8 active torsions:
REMARK  status: ('A' for Active; 'I' for Inactive)
REMARK    1  A    between atoms: N_4  and  C_5 
REMARK    2  A    between atoms: C_14  and  C_15 
REMARK    3  A    between atoms: C_15  and  C_16 
REMARK    4  A    between atoms: C_16  and  C_17 
REMARK       I    between atoms: C_17  and  N_18 
REMARK    5  A    between atoms: N_18  and  C_19 
REMARK    6  A    between atoms: C_22  and  S_23 
REMARK    7  A    between atoms: S_23  and  N_24 
REMARK    8  A    between atoms: N_24  and  C_25 
ROOT
HETATM    1  C   UNL     1      23.951  47.445  49.644  1.00  0.00     0.222 C 
HETATM    2  N   UNL     1      23.315  48.656  49.857  1.00  0.00    -0.327 N 
HETATM    3  O   UNL     1      23.645  46.595  48.814  1.00  0.00    -0.273 OA
HETATM    4  H   UNL     1      23.694  49.253  50.581  1.00  0.00     0.169 HD
ENDROOT
BRANCH   1   5
HETATM    5  C   UNL     1      25.136  47.213  50.565  1.00  0.00     0.108 C 
BRANCH   5   6
HETATM    6  C   UNL     1      24.961  45.946  51.396  1.00  0.00     0.055 C 
BRANCH   6   7
HETATM    7  C   UNL     1      26.195  45.196  51.771  1.00  0.00     0.030 A 
HETATM    8  C   UNL     1      26.964  44.240  51.219  1.00  0.00     0.014 A 
HETATM    9  C   UNL     1      26.787  43.550  49.907  1.00  0.00     0.064 C 
HETATM   10  N   UNL     1      28.028  43.870  52.034  1.00  0.00    -0.199 NA
HETATM   11  N   UNL     1      27.901  44.598  53.222  1.00  0.00    -0.238 N 
HETATM   12  H   UNL     1      28.047  42.859  52.187  1.00  0.00     0.153 HD
HETATM   13  C   UNL     1      26.811  45.456  53.115  1.00  0.00     0.270 A 
HETATM   14  O   UNL     1      26.367  46.282  53.895  1.00  0.00    -0.266 OA
BRANCH  11  15
HETATM   15  C   UNL     1      28.849  44.467  54.259  1.00  0.00     0.055 A 
HETATM   16  C   UNL     1      29.622  43.303  54.394  1.00  0.00     0.034 A 
HETATM   17  C   UNL     1      30.567  43.181  55.418  1.00  0.00     0.044 A 
HETATM   18  C   UNL     1      30.744  44.222  56.315  1.00  0.00     0.116 A 
HETATM   19  F   UNL     1      31.650  44.106  57.296  1.00  0.00    -0.206 F 
HETATM   20  C   UNL     1      29.992  45.384  56.211  1.00  0.00     0.044 A 
HETATM   21  C   UNL     1      29.046  45.503  55.188  1.00  0.00     0.034 A 
ENDBRANCH  11  15
ENDBRANCH   6   7
ENDBRANCH   5   6
ENDBRANCH   1   5
BRANCH   2  22
HETATM   22  C   UNL     1      22.158  49.139  49.211  1.00  0.00     0.034 A 
HETATM   23  C   UNL     1      22.057  50.408  48.635  1.00  0.00     0.031 A 
HETATM   24  C   UNL     1      20.883  50.805  47.989  1.00  0.00     0.027 A 
HETATM   25  C   UNL     1      19.805  49.922  47.908  1.00  0.00     0.074 A 
HETATM   26  C   UNL     1      19.878  48.661  48.499  1.00  0.00     0.027 A 
HETATM   27  C   UNL     1      21.055  48.274  49.147  1.00  0.00     0.031 A 
BRANCH  25  28
HETATM   28  S   UNL     1      18.321  50.425  47.074  1.00  0.00     0.241 S 
HETATM   29  O   UNL     1      18.680  50.832  45.733  1.00  0.00    -0.206 OA
HETATM   30  O   UNL     1      17.298  49.431  47.317  1.00  0.00    -0.206 OA
BRANCH  28  31
HETATM   31  N   UNL     1      17.946  51.845  47.915  1.00  0.00    -0.211 NA
HETATM   32  H   UNL     1      17.652  52.574  47.263  1.00  0.00     0.140 HD
BRANCH  31  33
HETATM   33  C   UNL     1      17.155  51.698  49.134  1.00  0.00     0.071 A 
HETATM   34  C   UNL     1      16.612  52.912  49.835  1.00  0.00     0.022 A 
HETATM   35  C   UNL     1      15.677  51.955  49.150  1.00  0.00     0.022 A 
ENDBRANCH  31  33
ENDBRANCH  28  31
ENDBRANCH  25  28
ENDBRANCH   2  22
TORSDOF 8
ENDMDL
MODEL 6
REMARK VINA RESULT:      -8.5      6.141     10.147
REMARK  8 active torsions:
REMARK  status: ('A' for Active; 'I' for Inactive)
REMARK    1  A    between atoms: N_4  and  C_5 
REMARK    2  A    between atoms: C_14  and  C_15 
REMARK    3  A    between atoms: C_15  and  C_16 
REMARK    4  A    between atoms: C_16  and  C_17 
REMARK       I    between atoms: C_17  and  N_18 
REMARK    5  A    between atoms: N_18  and  C_19 
REMARK    6  A    between atoms: C_22  and  S_23 
REMARK    7  A    between atoms: S_23  and  N_24 
REMARK    8  A    between atoms: N_24  and  C_25 
ROOT
HETATM    1  C   UNL     1      26.617  44.467  50.271  1.00  0.00     0.222 C 
HETATM    2  N   UNL     1      26.242  43.159  50.528  1.00  0.00    -0.327 N 
HETATM    3  O   UNL     1      27.556  44.834  49.573  1.00  0.00    -0.273 OA
HETATM    4  H   UNL     1      25.437  43.020  51.125  1.00  0.00     0.169 HD
ENDROOT
BRANCH   1   5
HETATM    5  C   UNL     1      25.731  45.495  50.954  1.00  0.00     0.108 C 
BRANCH   5   6
HETATM    6  C   UNL     1      25.407  45.091  52.388  1.00  0.00     0.055 C 
BRANCH   6   7
HETATM    7  C   UNL     1      26.356  45.528  53.454  1.00  0.00     0.030 A 
HETATM    8  C   UNL     1      26.562  46.639  54.184  1.00  0.00     0.014 A 
HETATM    9  C   UNL     1      25.818  47.932  54.136  1.00  0.00     0.064 C 
HETATM   10  N   UNL     1      27.636  46.515  55.059  1.00  0.00    -0.199 NA
HETATM   11  N   UNL     1      28.199  45.254  54.833  1.00  0.00    -0.238 N 
HETATM   12  H   UNL     1      28.307  47.277  54.936  1.00  0.00     0.153 HD
HETATM   13  C   UNL     1      27.441  44.582  53.879  1.00  0.00     0.270 A 
HETATM   14  O   UNL     1      27.555  43.459  53.417  1.00  0.00    -0.266 OA
BRANCH  11  15
HETATM   15  C   UNL     1      29.306  44.807  55.586  1.00  0.00     0.055 A 
HETATM   16  C   UNL     1      30.077  43.712  55.164  1.00  0.00     0.034 A 
HETATM   17  C   UNL     1      31.179  43.279  55.908  1.00  0.00     0.044 A 
HETATM   18  C   UNL     1      31.517  43.938  57.080  1.00  0.00     0.116 A 
HETATM   19  F   UNL     1      32.574  43.524  57.793  1.00  0.00    -0.206 F 
HETATM   20  C   UNL     1      30.773  45.021  57.525  1.00  0.00     0.044 A 
HETATM   21  C   UNL     1      29.670  45.451  56.781  1.00  0.00     0.034 A 
ENDBRANCH  11  15
ENDBRANCH   6   7
ENDBRANCH   5   6
ENDBRANCH   1   5
BRANCH   2  22
HETATM   22  C   UNL     1      26.890  41.984  50.094  1.00  0.00     0.034 A 
HETATM   23  C   UNL     1      27.049  41.630  48.751  1.00  0.00     0.031 A 
HETATM   24  C   UNL     1      27.727  40.459  48.399  1.00  0.00     0.027 A 
HETATM   25  C   UNL     1      28.260  39.641  49.397  1.00  0.00     0.074 A 
HETATM   26  C   UNL     1      28.089  39.965  50.743  1.00  0.00     0.027 A 
HETATM   27  C   UNL     1      27.405  41.136  51.086  1.00  0.00     0.031 A 
BRANCH  25  28
HETATM   28  S   UNL     1      29.133  38.163  48.946  1.00  0.00     0.241 S 
HETATM   29  O   UNL     1      29.453  38.248  47.537  1.00  0.00    -0.206 OA
HETATM   30  O   UNL     1      30.150  37.907  49.942  1.00  0.00    -0.206 OA
BRANCH  28  31
HETATM   31  N   UNL     1      27.900  37.010  49.081  1.00  0.00    -0.211 NA
HETATM   32  H   UNL     1      27.323  37.206  49.900  1.00  0.00     0.140 HD
BRANCH  31  33
HETATM   33  C   UNL     1      27.196  36.654  47.852  1.00  0.00     0.071 A 
HETATM   34  C   UNL     1      25.848  35.992  47.918  1.00  0.00     0.022 A 
HETATM   35  C   UNL     1      25.974  37.397  47.400  1.00  0.00     0.022 A 
ENDBRANCH  31  33
ENDBRANCH  28  31
ENDBRANCH  25  28
ENDBRANCH   2  22
TORSDOF 8
ENDMDL
MODEL 7
REMARK VINA RESULT:      -8.4      1.898      2.443
REMARK  8 active torsions:
REMARK  status: ('A' for Active; 'I' for Inactive)
REMARK    1  A    between atoms: N_4  and  C_5 
REMARK    2  A    between atoms: C_14  and  C_15 
REMARK    3  A    between atoms: C_15  and  C_16 
REMARK    4  A    between atoms: C_16  and  C_17 
REMARK       I    between atoms: C_17  and  N_18 
REMARK    5  A    between atoms: N_18  and  C_19 
REMARK    6  A    between atoms: C_22  and  S_23 
REMARK    7  A    between atoms: S_23  and  N_24 
REMARK    8  A    between atoms: N_24  and  C_25 
ROOT
HETATM    1  C   UNL     1      23.631  43.976  49.892  1.00  0.00     0.222 C 
HETATM    2  N   UNL     1      24.768  44.759  49.996  1.00  0.00    -0.327 N 
HETATM    3  O   UNL     1      22.889  43.640  50.809  1.00  0.00    -0.273 OA
HETATM    4  H   UNL     1      25.273  44.952  49.141  1.00  0.00     0.169 HD
ENDROOT
BRANCH   1   5
HETATM    5  C   UNL     1      23.334  43.527  48.472  1.00  0.00     0.108 C 
BRANCH   5   6
HETATM    6  C   UNL     1      23.142  44.716  47.536  1.00  0.00     0.055 C 
BRANCH   6   7
HETATM    7  C   UNL     1      21.905  45.533  47.711  1.00  0.00     0.030 A 
HETATM    8  C   UNL     1      20.598  45.403  47.418  1.00  0.00     0.014 A 
HETATM    9  C   UNL     1      19.909  44.268  46.738  1.00  0.00     0.064 C 
HETATM   10  N   UNL     1      19.851  46.512  47.798  1.00  0.00    -0.199 NA
HETATM   11  N   UNL     1      20.750  47.449  48.320  1.00  0.00    -0.238 N 
HETATM   12  H   UNL     1      19.304  46.880  47.016  1.00  0.00     0.153 HD
HETATM   13  C   UNL     1      22.028  46.897  48.324  1.00  0.00     0.270 A 
HETATM   14  O   UNL     1      23.090  47.350  48.719  1.00  0.00    -0.266 OA
BRANCH  11  15
HETATM   15  C   UNL     1      20.300  48.689  48.820  1.00  0.00     0.055 A 
HETATM   16  C   UNL     1      20.713  49.899  48.242  1.00  0.00     0.034 A 
HETATM   17  C   UNL     1      20.256  51.126  48.735  1.00  0.00     0.044 A 
HETATM   18  C   UNL     1      19.383  51.150  49.811  1.00  0.00     0.116 A 
HETATM   19  F   UNL     1      18.944  52.324  50.283  1.00  0.00    -0.206 F 
HETATM   20  C   UNL     1      18.959  49.970  50.407  1.00  0.00     0.044 A 
HETATM   21  C   UNL     1      19.419  48.745  49.914  1.00  0.00     0.034 A 
ENDBRANCH  11  15
ENDBRANCH   6   7
ENDBRANCH   5   6
ENDBRANCH   1   5
BRANCH   2  22
HETATM   22  C   UNL     1      25.341  45.281  51.175  1.00  0.00     0.034 A 
HETATM   23  C   UNL     1      26.155  44.544  52.040  1.00  0.00     0.031 A 
HETATM   24  C   UNL     1      26.708  45.141  53.177  1.00  0.00     0.027 A 
HETATM   25  C   UNL     1      26.456  46.487  53.445  1.00  0.00     0.074 A 
HETATM   26  C   UNL     1      25.626  47.231  52.606  1.00  0.00     0.027 A 
HETATM   27  C   UNL     1      25.073  46.625  51.474  1.00  0.00     0.031 A 
BRANCH  25  28
HETATM   28  S   UNL     1      27.173  47.245  54.881  1.00  0.00     0.241 S 
HETATM   29  O   UNL     1      28.258  48.095  54.441  1.00  0.00    -0.206 OA
HETATM   30  O   UNL     1      26.105  47.748  55.716  1.00  0.00    -0.206 OA
BRANCH  28  31
HETATM   31  N   UNL     1      27.893  45.905  55.624  1.00  0.00    -0.211 NA
HETATM   32  H   UNL     1      27.445  45.043  55.307  1.00  0.00     0.140 HD
BRANCH  31  33
HETATM   33  C   UNL     1      29.352  45.898  55.694  1.00  0.00     0.071 A 
HETATM   34  C   UNL     1      30.045  45.590  56.991  1.00  0.00     0.022 A 
HETATM   35  C   UNL     1      30.128  44.623  55.845  1.00  0.00     0.022 A 
ENDBRANCH  31  33
ENDBRANCH  28  31
ENDBRANCH  25  28
ENDBRANCH   2  22
TORSDOF 8
ENDMDL
MODEL 8
REMARK VINA RESULT:      -8.3      4.083      9.143
REMARK  8 active torsions:
REMARK  status: ('A' for Active; 'I' for Inactive)
REMARK    1  A    between atoms: N_4  and  C_5 
REMARK    2  A    between atoms: C_14  and  C_15 
REMARK    3  A    between atoms: C_15  and  C_16 
REMARK    4  A    between atoms: C_16  and  C_17 
REMARK       I    between atoms: C_17  and  N_18 
REMARK    5  A    between atoms: N_18  and  C_19 
REMARK    6  A    between atoms: C_22  and  S_23 
REMARK    7  A    between atoms: S_23  and  N_24 
REMARK    8  A    between atoms: N_24  and  C_25 
ROOT
HETATM    1  C   UNL     1      22.668  43.813  48.248  1.00  0.00     0.222 C 
HETATM    2  N   UNL     1      23.483  44.930  48.308  1.00  0.00    -0.327 N 
HETATM    3  O   UNL     1      21.442  43.799  48.301  1.00  0.00    -0.273 OA
HETATM    4  H   UNL     1      24.482  44.774  48.246  1.00  0.00     0.169 HD
ENDROOT
BRANCH   1   5
HETATM    5  C   UNL     1      23.436  42.510  48.101  1.00  0.00     0.108 C 
BRANCH   5   6
HETATM    6  C   UNL     1      23.917  41.988  49.451  1.00  0.00     0.055 C 
BRANCH   6   7
HETATM    7  C   UNL     1      25.112  42.646  50.054  1.00  0.00     0.030 A 
HETATM    8  C   UNL     1      26.448  42.560  49.918  1.00  0.00     0.014 A 
HETATM    9  C   UNL     1      27.233  41.664  49.020  1.00  0.00     0.064 C 
HETATM   10  N   UNL     1      27.130  43.422  50.770  1.00  0.00    -0.199 NA
HETATM   11  N   UNL     1      26.166  44.067  51.553  1.00  0.00    -0.238 N 
HETATM   12  H   UNL     1      27.826  42.922  51.328  1.00  0.00     0.153 HD
HETATM   13  C   UNL     1      24.900  43.657  51.142  1.00  0.00     0.270 A 
HETATM   14  O   UNL     1      23.792  43.992  51.527  1.00  0.00    -0.266 OA
BRANCH  11  15
HETATM   15  C   UNL     1      26.536  45.033  52.512  1.00  0.00     0.055 A 
HETATM   16  C   UNL     1      26.026  46.340  52.461  1.00  0.00     0.034 A 
HETATM   17  C   UNL     1      26.389  47.292  53.420  1.00  0.00     0.044 A 
HETATM   18  C   UNL     1      27.265  46.942  54.436  1.00  0.00     0.116 A 
HETATM   19  F   UNL     1      27.611  47.853  55.356  1.00  0.00    -0.206 F 
HETATM   20  C   UNL     1      27.789  45.660  54.511  1.00  0.00     0.044 A 
HETATM   21  C   UNL     1      27.427  44.710  53.550  1.00  0.00     0.034 A 
ENDBRANCH  11  15
ENDBRANCH   6   7
ENDBRANCH   5   6
ENDBRANCH   1   5
BRANCH   2  22
HETATM   22  C   UNL     1      23.085  46.269  48.500  1.00  0.00     0.034 A 
HETATM   23  C   UNL     1      22.004  46.865  47.845  1.00  0.00     0.031 A 
HETATM   24  C   UNL     1      21.656  48.192  48.108  1.00  0.00     0.027 A 
HETATM   25  C   UNL     1      22.386  48.927  49.043  1.00  0.00     0.074 A 
HETATM   26  C   UNL     1      23.484  48.358  49.689  1.00  0.00     0.027 A 
HETATM   27  C   UNL     1      23.828  47.030  49.416  1.00  0.00     0.031 A 
BRANCH  25  28
HETATM   28  S   UNL     1      21.931  50.608  49.387  1.00  0.00     0.241 S 
HETATM   29  O   UNL     1      22.415  50.939  50.709  1.00  0.00    -0.206 OA
HETATM   30  O   UNL     1      22.259  51.418  48.234  1.00  0.00    -0.206 OA
BRANCH  28  31
HETATM   31  N   UNL     1      20.250  50.463  49.521  1.00  0.00    -0.211 NA
HETATM   32  H   UNL     1      20.011  49.650  50.090  1.00  0.00     0.140 HD
BRANCH  31  33
HETATM   33  C   UNL     1      19.504  51.691  49.786  1.00  0.00     0.071 A 
HETATM   34  C   UNL     1      18.793  52.400  48.667  1.00  0.00     0.022 A 
HETATM   35  C   UNL     1      18.004  51.725  49.752  1.00  0.00     0.022 A 
ENDBRANCH  31  33
ENDBRANCH  28  31
ENDBRANCH  25  28
ENDBRANCH   2  22
TORSDOF 8
ENDMDL
MODEL 9
REMARK VINA RESULT:      -8.1      4.910     11.198
REMARK  8 active torsions:
REMARK  status: ('A' for Active; 'I' for Inactive)
REMARK    1  A    between atoms: N_4  and  C_5 
REMARK    2  A    between atoms: C_14  and  C_15 
REMARK    3  A    between atoms: C_15  and  C_16 
REMARK    4  A    between atoms: C_16  and  C_17 
REMARK       I    between atoms: C_17  and  N_18 
REMARK    5  A    between atoms: N_18  and  C_19 
REMARK    6  A    between atoms: C_22  and  S_23 
REMARK    7  A    between atoms: S_23  and  N_24 
REMARK    8  A    between atoms: N_24  and  C_25 
ROOT
HETATM    1  C   UNL     1      21.924  45.144  48.418  1.00  0.00     0.222 C 
HETATM    2  N   UNL     1      21.745  46.506  48.251  1.00  0.00    -0.327 N 
HETATM    3  O   UNL     1      21.053  44.281  48.365  1.00  0.00    -0.273 OA
HETATM    4  H   UNL     1      22.569  47.090  48.320  1.00  0.00     0.169 HD
ENDROOT
BRANCH   1   5
HETATM    5  C   UNL     1      23.366  44.751  48.690  1.00  0.00     0.108 C 
BRANCH   5   6
HETATM    6  C   UNL     1      23.551  44.256  50.121  1.00  0.00     0.055 C 
BRANCH   6   7
HETATM    7  C   UNL     1      24.704  44.806  50.893  1.00  0.00     0.030 A 
HETATM    8  C   UNL     1      25.183  46.026  51.197  1.00  0.00     0.014 A 
HETATM    9  C   UNL     1      24.648  47.360  50.797  1.00  0.00     0.064 C 
HETATM   10  N   UNL     1      26.344  45.970  51.960  1.00  0.00    -0.199 NA
HETATM   11  N   UNL     1      26.668  44.617  52.109  1.00  0.00    -0.238 N 
HETATM   12  H   UNL     1      27.098  46.514  51.534  1.00  0.00     0.153 HD
HETATM   13  C   UNL     1      25.682  43.845  51.501  1.00  0.00     0.270 A 
HETATM   14  O   UNL     1      25.553  42.634  51.425  1.00  0.00    -0.266 OA
BRANCH  11  15
HETATM   15  C   UNL     1      27.793  44.217  52.860  1.00  0.00     0.055 A 
HETATM   16  C   UNL     1      28.042  44.749  54.135  1.00  0.00     0.034 A 
HETATM   17  C   UNL     1      29.154  44.342  54.881  1.00  0.00     0.044 A 
HETATM   18  C   UNL     1      30.025  43.401  54.355  1.00  0.00     0.116 A 
HETATM   19  F   UNL     1      31.089  43.011  55.069  1.00  0.00    -0.206 F 
HETATM   20  C   UNL     1      29.808  42.859  53.096  1.00  0.00     0.044 A 
HETATM   21  C   UNL     1      28.698  43.269  52.351  1.00  0.00     0.034 A 
ENDBRANCH  11  15
ENDBRANCH   6   7
ENDBRANCH   5   6
ENDBRANCH   1   5
BRANCH   2  22
HETATM   22  C   UNL     1      20.529  47.191  48.045  1.00  0.00     0.034 A 
HETATM   23  C   UNL     1      19.979  47.443  46.785  1.00  0.00     0.031 A 
HETATM   24  C   UNL     1      18.754  48.106  46.664  1.00  0.00     0.027 A 
HETATM   25  C   UNL     1      18.068  48.509  47.810  1.00  0.00     0.074 A 
HETATM   26  C   UNL     1      18.614  48.288  49.075  1.00  0.00     0.027 A 
HETATM   27  C   UNL     1      19.842  47.628  49.187  1.00  0.00     0.031 A 
BRANCH  25  28
HETATM   28  S   UNL     1      16.506  49.336  47.652  1.00  0.00     0.241 S 
HETATM   29  O   UNL     1      16.513  50.066  46.403  1.00  0.00    -0.206 OA
HETATM   30  O   UNL     1      15.453  48.399  47.977  1.00  0.00    -0.206 OA
BRANCH  28  31
HETATM   31  N   UNL     1      16.634  50.497  48.879  1.00  0.00    -0.211 NA
HETATM   32  H   UNL     1      17.004  50.071  49.730  1.00  0.00     0.140 HD
BRANCH  31  33
HETATM   33  C   UNL     1      17.187  51.794  48.500  1.00  0.00     0.071 A 
HETATM   34  C   UNL     1      17.680  52.743  49.556  1.00  0.00     0.022 A 
HETATM   35  C   UNL     1      18.653  52.090  48.616  1.00  0.00     0.022 A 
ENDBRANCH  31  33
ENDBRANCH  28  31
ENDBRANCH  25  28
ENDBRANCH   2  22
TORSDOF 8
ENDMDL
MODEL 10
REMARK VINA RESULT:      -8.1      4.834     11.370
REMARK  8 active torsions:
REMARK  status: ('A' for Active; 'I' for Inactive)
REMARK    1  A    between atoms: N_4  and  C_5 
REMARK    2  A    between atoms: C_14  and  C_15 
REMARK    3  A    between atoms: C_15  and  C_16 
REMARK    4  A    between atoms: C_16  and  C_17 
REMARK       I    between atoms: C_17  and  N_18 
REMARK    5  A    between atoms: N_18  and  C_19 
REMARK    6  A    between atoms: C_22  and  S_23 
REMARK    7  A    between atoms: S_23  and  N_24 
REMARK    8  A    between atoms: N_24  and  C_25 
ROOT
HETATM    1  C   UNL     1      24.307  47.533  50.037  1.00  0.00     0.222 C 
HETATM    2  N   UNL     1      23.739  46.373  49.539  1.00  0.00    -0.327 N 
HETATM    3  O   UNL     1      23.839  48.665  49.963  1.00  0.00    -0.273 OA
HETATM    4  H   UNL     1      24.251  45.512  49.684  1.00  0.00     0.169 HD
ENDROOT
BRANCH   1   5
HETATM    5  C   UNL     1      25.639  47.306  50.731  1.00  0.00     0.108 C 
BRANCH   5   6
HETATM    6  C   UNL     1      25.454  46.660  52.100  1.00  0.00     0.055 C 
BRANCH   6   7
HETATM    7  C   UNL     1      26.474  45.659  52.529  1.00  0.00     0.030 A 
HETATM    8  C   UNL     1      26.882  44.443  52.121  1.00  0.00     0.014 A 
HETATM    9  C   UNL     1      26.368  43.625  50.985  1.00  0.00     0.064 C 
HETATM   10  N   UNL     1      27.896  43.923  52.918  1.00  0.00    -0.199 NA
HETATM   11  N   UNL     1      28.116  44.845  53.948  1.00  0.00    -0.238 N 
HETATM   12  H   UNL     1      27.658  42.991  53.264  1.00  0.00     0.153 HD
HETATM   13  C   UNL     1      27.295  45.951  53.750  1.00  0.00     0.270 A 
HETATM   14  O   UNL     1      27.190  46.988  54.384  1.00  0.00    -0.266 OA
BRANCH  11  15
HETATM   15  C   UNL     1      29.110  44.620  54.924  1.00  0.00     0.055 A 
HETATM   16  C   UNL     1      29.934  43.485  54.874  1.00  0.00     0.034 A 
HETATM   17  C   UNL     1      30.925  43.271  55.838  1.00  0.00     0.044 A 
HETATM   18  C   UNL     1      31.098  44.192  56.860  1.00  0.00     0.116 A 
HETATM   19  F   UNL     1      32.047  43.989  57.783  1.00  0.00    -0.206 F 
HETATM   20  C   UNL     1      30.296  45.323  56.938  1.00  0.00     0.044 A 
HETATM   21  C   UNL     1      29.305  45.533  55.975  1.00  0.00     0.034 A 
ENDBRANCH  11  15
ENDBRANCH   6   7
ENDBRANCH   5   6
ENDBRANCH   1   5
BRANCH   2  22
HETATM   22  C   UNL     1      22.545  46.255  48.798  1.00  0.00     0.034 A 
HETATM   23  C   UNL     1      21.954  47.309  48.096  1.00  0.00     0.031 A 
HETATM   24  C   UNL     1      20.782  47.107  47.362  1.00  0.00     0.027 A 
HETATM   25  C   UNL     1      20.202  45.838  47.320  1.00  0.00     0.074 A 
HETATM   26  C   UNL     1      20.763  44.780  48.035  1.00  0.00     0.027 A 
HETATM   27  C   UNL     1      21.934  44.993  48.770  1.00  0.00     0.031 A 
BRANCH  25  28
HETATM   28  S   UNL     1      18.721  45.582  46.375  1.00  0.00     0.241 S 
HETATM   29  O   UNL     1      19.088  45.536  44.976  1.00  0.00    -0.206 OA
HETATM   30  O   UNL     1      17.958  44.520  46.994  1.00  0.00    -0.206 OA
BRANCH  28  31
HETATM   31  N   UNL     1      17.932  47.061  46.609  1.00  0.00    -0.211 NA
HETATM   32  H   UNL     1      17.698  47.482  45.708  1.00  0.00     0.140 HD
BRANCH  31  33
HETATM   33  C   UNL     1      16.897  47.098  47.639  1.00  0.00     0.071 A 
HETATM   34  C   UNL     1      16.989  48.086  48.769  1.00  0.00     0.022 A 
HETATM   35  C   UNL     1      15.914  48.228  47.729  1.00  0.00     0.022 A 
ENDBRANCH  31  33
ENDBRANCH  28  31
ENDBRANCH  25  28
ENDBRANCH   2  22
TORSDOF 8
ENDMDL
