MODEL 1
REMARK VINA RESULT:     -10.5      0.000      0.000
REMARK  5 active torsions:
REMARK  status: ('A' for Active; 'I' for Inactive)
REMARK    1  A    between atoms: O_2  and  C_3 
REMARK    2  A    between atoms: C_4  and  O_5 
REMARK    3  A    between atoms: C_6  and  C_7 
REMARK    4  A    between atoms: N_8  and  N_9 
REMARK       I    between atoms: N_9  and  C_10 
REMARK    5  A    between atoms: C_10  and  C_11 
ROOT
HETATM    1  N   UNL     1      25.564  46.661  51.570  1.00  0.00    -0.242 N 
HETATM    2  C   UNL     1      25.929  46.843  52.895  1.00  0.00     0.292 C 
HETATM    3  O   UNL     1      25.500  47.729  53.630  1.00  0.00    -0.264 OA
HETATM    4  H   UNL     1      25.998  45.894  51.060  1.00  0.00     0.192 HD
ENDROOT
BRANCH   2   5
HETATM    5  C   UNL     1      26.915  45.850  53.356  1.00  0.00     0.154 A 
HETATM    6  N   UNL     1      27.125  44.681  52.706  1.00  0.00    -0.168 NA
HETATM    7  N   UNL     1      28.098  44.074  53.421  1.00  0.00    -0.276 N 
HETATM    8  H   UNL     1      28.421  43.162  53.119  1.00  0.00     0.189 HD
HETATM    9  C   UNL     1      28.522  44.800  54.491  1.00  0.00     0.069 A 
HETATM   10  C   UNL     1      27.768  45.952  54.484  1.00  0.00     0.007 A 
HETATM   11  C   UNL     1      29.541  44.495  55.482  1.00  0.00    -0.001 A 
HETATM   12  C   UNL     1      27.965  47.022  55.499  1.00  0.00     0.048 C 
HETATM   13  C   UNL     1      28.558  46.446  56.805  1.00  0.00     0.044 C 
HETATM   14  C   UNL     1      29.601  45.350  56.611  1.00  0.00    -0.045 A 
HETATM   15  C   UNL     1      30.565  45.121  57.601  1.00  0.00     0.008 A 
HETATM   16  C   UNL     1      31.474  44.072  57.460  1.00  0.00     0.001 A 
HETATM   17  C   UNL     1      31.419  43.240  56.343  1.00  0.00     0.001 A 
HETATM   18  C   UNL     1      30.455  43.446  55.354  1.00  0.00     0.014 A 
ENDBRANCH   2   5
BRANCH   1  19
HETATM   19  N   UNL     1      24.666  47.498  50.984  1.00  0.00    -0.183 NA
HETATM   20  C   UNL     1      24.892  47.807  49.747  1.00  0.00     0.153 C 
BRANCH  20  21
HETATM   21  C   UNL     1      23.973  48.711  49.022  1.00  0.00     0.019 A 
HETATM   22  C   UNL     1      22.647  48.346  48.788  1.00  0.00     0.110 A 
HETATM   23  C   UNL     1      21.779  49.201  48.092  1.00  0.00     0.102 A 
HETATM   24  C   UNL     1      22.250  50.434  47.637  1.00  0.00     0.040 A 
HETATM   25  C   UNL     1      23.577  50.806  47.871  1.00  0.00     0.004 A 
HETATM   26  C   UNL     1      24.437  49.948  48.560  1.00  0.00     0.016 A 
BRANCH  22  27
HETATM   27  O   UNL     1      22.169  47.137  49.230  1.00  0.00    -0.357 OA
HETATM   28  H   UNL     1      22.858  46.486  48.986  1.00  0.00     0.218 HD
ENDBRANCH  22  27
BRANCH  23  29
HETATM   29  O   UNL     1      20.504  48.720  47.925  1.00  0.00    -0.353 OA
HETATM   30  C   UNL     1      19.476  49.373  48.663  1.00  0.00     0.210 C 
ENDBRANCH  23  29
ENDBRANCH  20  21
ENDBRANCH   1  19
TORSDOF 5
ENDMDL
MODEL 2
REMARK VINA RESULT:      -9.6      2.343     10.004
REMARK  5 active torsions:
REMARK  status: ('A' for Active; 'I' for Inactive)
REMARK    1  A    between atoms: O_2  and  C_3 
REMARK    2  A    between atoms: C_4  and  O_5 
REMARK    3  A    between atoms: C_6  and  C_7 
REMARK    4  A    between atoms: N_8  and  N_9 
REMARK       I    between atoms: N_9  and  C_10 
REMARK    5  A    between atoms: C_10  and  C_11 
ROOT
HETATM    1  N   UNL     1      26.169  45.117  51.778  1.00  0.00    -0.242 N 
HETATM    2  C   UNL     1      26.159  45.210  50.394  1.00  0.00     0.292 C 
HETATM    3  O   UNL     1      27.088  44.882  49.659  1.00  0.00    -0.264 OA
HETATM    4  H   UNL     1      25.340  45.431  52.279  1.00  0.00     0.192 HD
ENDROOT
BRANCH   2   5
HETATM    5  C   UNL     1      24.899  45.762  49.868  1.00  0.00     0.154 A 
HETATM    6  N   UNL     1      23.803  44.994  49.658  1.00  0.00    -0.168 NA
HETATM    7  N   UNL     1      22.874  45.862  49.198  1.00  0.00    -0.276 N 
HETATM    8  H   UNL     1      21.956  45.504  48.962  1.00  0.00     0.189 HD
HETATM    9  C   UNL     1      23.321  47.144  49.110  1.00  0.00     0.069 A 
HETATM   10  C   UNL     1      24.633  47.112  49.527  1.00  0.00     0.007 A 
HETATM   11  C   UNL     1      22.630  48.345  48.673  1.00  0.00    -0.001 A 
HETATM   12  C   UNL     1      25.461  48.346  49.597  1.00  0.00     0.048 C 
HETATM   13  C   UNL     1      24.947  49.417  48.608  1.00  0.00     0.044 C 
HETATM   14  C   UNL     1      23.430  49.499  48.478  1.00  0.00    -0.045 A 
HETATM   15  C   UNL     1      22.828  50.695  48.067  1.00  0.00     0.008 A 
HETATM   16  C   UNL     1      21.448  50.753  47.876  1.00  0.00     0.001 A 
HETATM   17  C   UNL     1      20.662  49.619  48.080  1.00  0.00     0.001 A 
HETATM   18  C   UNL     1      21.249  48.415  48.477  1.00  0.00     0.014 A 
ENDBRANCH   2   5
BRANCH   1  19
HETATM   19  N   UNL     1      27.261  44.633  52.426  1.00  0.00    -0.183 NA
HETATM   20  C   UNL     1      27.508  45.138  53.592  1.00  0.00     0.153 C 
BRANCH  20  21
HETATM   21  C   UNL     1      28.674  44.678  54.376  1.00  0.00     0.019 A 
HETATM   22  C   UNL     1      29.148  45.422  55.457  1.00  0.00     0.110 A 
HETATM   23  C   UNL     1      30.261  44.988  56.195  1.00  0.00     0.102 A 
HETATM   24  C   UNL     1      30.892  43.793  55.843  1.00  0.00     0.040 A 
HETATM   25  C   UNL     1      30.420  43.044  54.762  1.00  0.00     0.004 A 
HETATM   26  C   UNL     1      29.316  43.484  54.030  1.00  0.00     0.016 A 
BRANCH  22  27
HETATM   27  O   UNL     1      28.536  46.598  55.815  1.00  0.00    -0.357 OA
HETATM   28  H   UNL     1      27.802  46.707  55.177  1.00  0.00     0.218 HD
ENDBRANCH  22  27
BRANCH  23  29
HETATM   29  O   UNL     1      30.627  45.814  57.229  1.00  0.00    -0.353 OA
HETATM   30  C   UNL     1      30.588  45.251  58.536  1.00  0.00     0.210 C 
ENDBRANCH  23  29
ENDBRANCH  20  21
ENDBRANCH   1  19
TORSDOF 5
ENDMDL
MODEL 3
REMARK VINA RESULT:      -9.6      1.631      2.442
REMARK  5 active torsions:
REMARK  status: ('A' for Active; 'I' for Inactive)
REMARK    1  A    between atoms: O_2  and  C_3 
REMARK    2  A    between atoms: C_4  and  O_5 
REMARK    3  A    between atoms: C_6  and  C_7 
REMARK    4  A    between atoms: N_8  and  N_9 
REMARK       I    between atoms: N_9  and  C_10 
REMARK    5  A    between atoms: C_10  and  C_11 
ROOT
HETATM    1  N   UNL     1      25.982  46.292  51.930  1.00  0.00    -0.242 N 
HETATM    2  C   UNL     1      25.815  45.484  53.045  1.00  0.00     0.292 C 
HETATM    3  O   UNL     1      24.927  44.646  53.182  1.00  0.00    -0.264 OA
HETATM    4  H   UNL     1      26.752  46.958  51.939  1.00  0.00     0.192 HD
ENDROOT
BRANCH   2   5
HETATM    5  C   UNL     1      26.826  45.735  54.087  1.00  0.00     0.154 A 
HETATM    6  N   UNL     1      26.853  46.880  54.810  1.00  0.00    -0.168 NA
HETATM    7  N   UNL     1      27.897  46.714  55.653  1.00  0.00    -0.276 N 
HETATM    8  H   UNL     1      28.117  47.462  56.300  1.00  0.00     0.189 HD
HETATM    9  C   UNL     1      28.531  45.519  55.507  1.00  0.00     0.069 A 
HETATM   10  C   UNL     1      27.868  44.865  54.493  1.00  0.00     0.007 A 
HETATM   11  C   UNL     1      29.675  44.976  56.222  1.00  0.00    -0.001 A 
HETATM   12  C   UNL     1      28.260  43.497  54.059  1.00  0.00     0.048 C 
HETATM   13  C   UNL     1      29.749  43.219  54.369  1.00  0.00     0.044 C 
HETATM   14  C   UNL     1      30.249  43.794  55.690  1.00  0.00    -0.045 A 
HETATM   15  C   UNL     1      31.347  43.210  56.334  1.00  0.00     0.008 A 
HETATM   16  C   UNL     1      31.853  43.776  57.504  1.00  0.00     0.001 A 
HETATM   17  C   UNL     1      31.278  44.932  58.031  1.00  0.00     0.001 A 
HETATM   18  C   UNL     1      30.192  45.535  57.393  1.00  0.00     0.014 A 
ENDBRANCH   2   5
BRANCH   1  19
HETATM   19  N   UNL     1      25.128  46.193  50.877  1.00  0.00    -0.183 NA
HETATM   20  C   UNL     1      24.441  47.253  50.592  1.00  0.00     0.153 C 
BRANCH  20  21
HETATM   21  C   UNL     1      23.485  47.246  49.464  1.00  0.00     0.019 A 
HETATM   22  C   UNL     1      22.785  48.399  49.112  1.00  0.00     0.110 A 
HETATM   23  C   UNL     1      21.872  48.388  48.046  1.00  0.00     0.102 A 
HETATM   24  C   UNL     1      21.671  47.207  47.329  1.00  0.00     0.040 A 
HETATM   25  C   UNL     1      22.371  46.049  47.677  1.00  0.00     0.004 A 
HETATM   26  C   UNL     1      23.274  46.066  48.741  1.00  0.00     0.016 A 
BRANCH  22  27
HETATM   27  O   UNL     1      22.974  49.568  49.807  1.00  0.00    -0.357 OA
HETATM   28  H   UNL     1      23.536  49.322  50.570  1.00  0.00     0.218 HD
ENDBRANCH  22  27
BRANCH  23  29
HETATM   29  O   UNL     1      21.247  49.587  47.807  1.00  0.00    -0.353 OA
HETATM   30  C   UNL     1      19.840  49.624  48.020  1.00  0.00     0.210 C 
ENDBRANCH  23  29
ENDBRANCH  20  21
ENDBRANCH   1  19
TORSDOF 5
ENDMDL
MODEL 4
REMARK VINA RESULT:      -9.2      2.034      2.639
REMARK  5 active torsions:
REMARK  status: ('A' for Active; 'I' for Inactive)
REMARK    1  A    between atoms: O_2  and  C_3 
REMARK    2  A    between atoms: C_4  and  O_5 
REMARK    3  A    between atoms: C_6  and  C_7 
REMARK    4  A    between atoms: N_8  and  N_9 
REMARK       I    between atoms: N_9  and  C_10 
REMARK    5  A    between atoms: C_10  and  C_11 
ROOT
HETATM    1  N   UNL     1      24.831  45.194  50.237  1.00  0.00    -0.242 N 
HETATM    2  C   UNL     1      24.604  44.041  50.973  1.00  0.00     0.292 C 
HETATM    3  O   UNL     1      23.525  43.460  51.060  1.00  0.00    -0.264 OA
HETATM    4  H   UNL     1      25.769  45.588  50.251  1.00  0.00     0.192 HD
ENDROOT
BRANCH   2   5
HETATM    5  C   UNL     1      25.811  43.564  51.671  1.00  0.00     0.154 A 
HETATM    6  N   UNL     1      26.372  42.359  51.408  1.00  0.00    -0.168 NA
HETATM    7  N   UNL     1      27.446  42.308  52.227  1.00  0.00    -0.276 N 
HETATM    8  H   UNL     1      28.027  41.479  52.208  1.00  0.00     0.189 HD
HETATM    9  C   UNL     1      27.600  43.422  52.994  1.00  0.00     0.069 A 
HETATM   10  C   UNL     1      26.551  44.251  52.666  1.00  0.00     0.007 A 
HETATM   11  C   UNL     1      28.621  43.743  53.978  1.00  0.00    -0.001 A 
HETATM   12  C   UNL     1      26.393  45.594  53.285  1.00  0.00     0.048 C 
HETATM   13  C   UNL     1      27.070  45.649  54.674  1.00  0.00     0.044 C 
HETATM   14  C   UNL     1      28.388  44.889  54.779  1.00  0.00    -0.045 A 
HETATM   15  C   UNL     1      29.335  45.263  55.741  1.00  0.00     0.008 A 
HETATM   16  C   UNL     1      30.509  44.526  55.889  1.00  0.00     0.001 A 
HETATM   17  C   UNL     1      30.740  43.405  55.091  1.00  0.00     0.001 A 
HETATM   18  C   UNL     1      29.800  43.010  54.137  1.00  0.00     0.014 A 
ENDBRANCH   2   5
BRANCH   1  19
HETATM   19  N   UNL     1      23.818  45.771  49.536  1.00  0.00    -0.183 NA
HETATM   20  C   UNL     1      23.746  47.062  49.590  1.00  0.00     0.153 C 
BRANCH  20  21
HETATM   21  C   UNL     1      22.680  47.783  48.862  1.00  0.00     0.019 A 
HETATM   22  C   UNL     1      22.418  49.128  49.124  1.00  0.00     0.110 A 
HETATM   23  C   UNL     1      21.399  49.808  48.438  1.00  0.00     0.102 A 
HETATM   24  C   UNL     1      20.647  49.128  47.478  1.00  0.00     0.040 A 
HETATM   25  C   UNL     1      20.908  47.781  47.210  1.00  0.00     0.004 A 
HETATM   26  C   UNL     1      21.919  47.110  47.900  1.00  0.00     0.016 A 
BRANCH  22  27
HETATM   27  O   UNL     1      23.149  49.809  50.065  1.00  0.00    -0.357 OA
HETATM   28  H   UNL     1      24.047  49.423  50.018  1.00  0.00     0.218 HD
ENDBRANCH  22  27
BRANCH  23  29
HETATM   29  O   UNL     1      21.242  51.125  48.794  1.00  0.00    -0.353 OA
HETATM   30  C   UNL     1      19.908  51.623  48.813  1.00  0.00     0.210 C 
ENDBRANCH  23  29
ENDBRANCH  20  21
ENDBRANCH   1  19
TORSDOF 5
ENDMDL
MODEL 5
REMARK VINA RESULT:      -9.2      5.554      7.343
REMARK  5 active torsions:
REMARK  status: ('A' for Active; 'I' for Inactive)
REMARK    1  A    between atoms: O_2  and  C_3 
REMARK    2  A    between atoms: C_4  and  O_5 
REMARK    3  A    between atoms: C_6  and  C_7 
REMARK    4  A    between atoms: N_8  and  N_9 
REMARK       I    between atoms: N_9  and  C_10 
REMARK    5  A    between atoms: C_10  and  C_11 
ROOT
HETATM    1  N   UNL     1      27.339  42.289  51.662  1.00  0.00    -0.242 N 
HETATM    2  C   UNL     1      27.445  43.656  51.457  1.00  0.00     0.292 C 
HETATM    3  O   UNL     1      27.360  44.214  50.366  1.00  0.00    -0.264 OA
HETATM    4  H   UNL     1      27.438  41.944  52.615  1.00  0.00     0.192 HD
ENDROOT
BRANCH   2   5
HETATM    5  C   UNL     1      27.682  44.403  52.705  1.00  0.00     0.154 A 
HETATM    6  N   UNL     1      26.964  45.502  53.039  1.00  0.00    -0.168 NA
HETATM    7  N   UNL     1      27.467  45.873  54.238  1.00  0.00    -0.276 N 
HETATM    8  H   UNL     1      27.080  46.693  54.690  1.00  0.00     0.189 HD
HETATM    9  C   UNL     1      28.465  45.063  54.685  1.00  0.00     0.069 A 
HETATM   10  C   UNL     1      28.636  44.106  53.710  1.00  0.00     0.007 A 
HETATM   11  C   UNL     1      29.240  45.129  55.914  1.00  0.00    -0.001 A 
HETATM   12  C   UNL     1      29.633  43.012  53.855  1.00  0.00     0.048 C 
HETATM   13  C   UNL     1      30.788  43.432  54.794  1.00  0.00     0.044 C 
HETATM   14  C   UNL     1      30.367  44.273  55.995  1.00  0.00    -0.045 A 
HETATM   15  C   UNL     1      31.154  44.276  57.154  1.00  0.00     0.008 A 
HETATM   16  C   UNL     1      30.813  45.099  58.227  1.00  0.00     0.001 A 
HETATM   17  C   UNL     1      29.697  45.931  58.148  1.00  0.00     0.001 A 
HETATM   18  C   UNL     1      28.910  45.950  56.994  1.00  0.00     0.014 A 
ENDBRANCH   2   5
BRANCH   1  19
HETATM   19  N   UNL     1      27.126  41.451  50.613  1.00  0.00    -0.183 NA
HETATM   20  C   UNL     1      28.161  40.814  50.166  1.00  0.00     0.153 C 
BRANCH  20  21
HETATM   21  C   UNL     1      28.031  39.880  49.027  1.00  0.00     0.019 A 
HETATM   22  C   UNL     1      27.772  40.353  47.741  1.00  0.00     0.110 A 
HETATM   23  C   UNL     1      27.640  39.464  46.661  1.00  0.00     0.102 A 
HETATM   24  C   UNL     1      27.778  38.093  46.883  1.00  0.00     0.040 A 
HETATM   25  C   UNL     1      28.040  37.614  48.170  1.00  0.00     0.004 A 
HETATM   26  C   UNL     1      28.164  38.504  49.239  1.00  0.00     0.016 A 
BRANCH  22  27
HETATM   27  O   UNL     1      27.634  41.699  47.507  1.00  0.00    -0.357 OA
HETATM   28  H   UNL     1      27.559  42.104  48.395  1.00  0.00     0.218 HD
ENDBRANCH  22  27
BRANCH  23  29
HETATM   29  O   UNL     1      27.381  40.059  45.451  1.00  0.00    -0.353 OA
HETATM   30  C   UNL     1      26.879  39.212  44.422  1.00  0.00     0.210 C 
ENDBRANCH  23  29
ENDBRANCH  20  21
ENDBRANCH   1  19
TORSDOF 5
ENDMDL
MODEL 6
REMARK VINA RESULT:      -9.1      1.977      2.748
REMARK  5 active torsions:
REMARK  status: ('A' for Active; 'I' for Inactive)
REMARK    1  A    between atoms: O_2  and  C_3 
REMARK    2  A    between atoms: C_4  and  O_5 
REMARK    3  A    between atoms: C_6  and  C_7 
REMARK    4  A    between atoms: N_8  and  N_9 
REMARK       I    between atoms: N_9  and  C_10 
REMARK    5  A    between atoms: C_10  and  C_11 
ROOT
HETATM    1  N   UNL     1      25.519  46.360  52.097  1.00  0.00    -0.242 N 
HETATM    2  C   UNL     1      25.562  45.421  53.117  1.00  0.00     0.292 C 
HETATM    3  O   UNL     1      24.804  44.460  53.223  1.00  0.00    -0.264 OA
HETATM    4  H   UNL     1      26.196  47.119  52.124  1.00  0.00     0.192 HD
ENDROOT
BRANCH   2   5
HETATM    5  C   UNL     1      26.627  45.693  54.097  1.00  0.00     0.154 A 
HETATM    6  N   UNL     1      26.700  46.858  54.784  1.00  0.00    -0.168 NA
HETATM    7  N   UNL     1      27.785  46.708  55.577  1.00  0.00    -0.276 N 
HETATM    8  H   UNL     1      28.044  47.473  56.188  1.00  0.00     0.189 HD
HETATM    9  C   UNL     1      28.402  45.504  55.433  1.00  0.00     0.069 A 
HETATM   10  C   UNL     1      27.683  44.826  54.474  1.00  0.00     0.007 A 
HETATM   11  C   UNL     1      29.576  44.972  56.105  1.00  0.00    -0.001 A 
HETATM   12  C   UNL     1      28.041  43.443  54.062  1.00  0.00     0.048 C 
HETATM   13  C   UNL     1      29.542  43.161  54.303  1.00  0.00     0.044 C 
HETATM   14  C   UNL     1      30.114  43.770  55.579  1.00  0.00    -0.045 A 
HETATM   15  C   UNL     1      31.240  43.195  56.183  1.00  0.00     0.008 A 
HETATM   16  C   UNL     1      31.810  43.791  57.307  1.00  0.00     0.001 A 
HETATM   17  C   UNL     1      31.271  44.967  57.829  1.00  0.00     0.001 A 
HETATM   18  C   UNL     1      30.157  45.561  57.230  1.00  0.00     0.014 A 
ENDBRANCH   2   5
BRANCH   1  19
HETATM   19  N   UNL     1      24.588  46.260  51.110  1.00  0.00    -0.183 NA
HETATM   20  C   UNL     1      24.415  47.311  50.375  1.00  0.00     0.153 C 
BRANCH  20  21
HETATM   21  C   UNL     1      23.426  47.302  49.277  1.00  0.00     0.019 A 
HETATM   22  C   UNL     1      23.137  46.127  48.584  1.00  0.00     0.110 A 
HETATM   23  C   UNL     1      22.203  46.121  47.536  1.00  0.00     0.102 A 
HETATM   24  C   UNL     1      21.553  47.309  47.191  1.00  0.00     0.040 A 
HETATM   25  C   UNL     1      21.839  48.489  47.883  1.00  0.00     0.004 A 
HETATM   26  C   UNL     1      22.772  48.487  48.921  1.00  0.00     0.016 A 
BRANCH  22  27
HETATM   27  O   UNL     1      23.766  44.952  48.913  1.00  0.00    -0.357 OA
HETATM   28  H   UNL     1      23.236  44.250  48.483  1.00  0.00     0.218 HD
ENDBRANCH  22  27
BRANCH  23  29
HETATM   29  O   UNL     1      22.015  44.901  46.935  1.00  0.00    -0.353 OA
HETATM   30  C   UNL     1      22.476  44.776  45.594  1.00  0.00     0.210 C 
ENDBRANCH  23  29
ENDBRANCH  20  21
ENDBRANCH   1  19
TORSDOF 5
ENDMDL
MODEL 7
REMARK VINA RESULT:      -9.0      2.622      3.953
REMARK  5 active torsions:
REMARK  status: ('A' for Active; 'I' for Inactive)
REMARK    1  A    between atoms: O_2  and  C_3 
REMARK    2  A    between atoms: C_4  and  O_5 
REMARK    3  A    between atoms: C_6  and  C_7 
REMARK    4  A    between atoms: N_8  and  N_9 
REMARK       I    between atoms: N_9  and  C_10 
REMARK    5  A    between atoms: C_10  and  C_11 
ROOT
HETATM    1  N   UNL     1      23.138  47.397  49.601  1.00  0.00    -0.242 N 
HETATM    2  C   UNL     1      24.473  47.731  49.775  1.00  0.00     0.292 C 
HETATM    3  O   UNL     1      24.938  48.862  49.656  1.00  0.00    -0.264 OA
HETATM    4  H   UNL     1      22.875  46.421  49.718  1.00  0.00     0.192 HD
ENDROOT
BRANCH   2   5
HETATM    5  C   UNL     1      25.311  46.570  50.120  1.00  0.00     0.154 A 
HETATM    6  N   UNL     1      25.614  45.602  49.222  1.00  0.00    -0.168 NA
HETATM    7  N   UNL     1      26.400  44.745  49.911  1.00  0.00    -0.276 N 
HETATM    8  H   UNL     1      26.749  43.922  49.434  1.00  0.00     0.189 HD
HETATM    9  C   UNL     1      26.617  45.121  51.201  1.00  0.00     0.069 A 
HETATM   10  C   UNL     1      25.917  46.294  51.371  1.00  0.00     0.007 A 
HETATM   11  C   UNL     1      27.401  44.476  52.241  1.00  0.00    -0.001 A 
HETATM   12  C   UNL     1      25.934  47.034  52.662  1.00  0.00     0.048 C 
HETATM   13  C   UNL     1      26.229  46.082  53.844  1.00  0.00     0.044 C 
HETATM   14  C   UNL     1      27.254  44.991  53.553  1.00  0.00    -0.045 A 
HETATM   15  C   UNL     1      27.986  44.424  54.604  1.00  0.00     0.008 A 
HETATM   16  C   UNL     1      28.871  43.376  54.352  1.00  0.00     0.001 A 
HETATM   17  C   UNL     1      29.022  42.879  53.058  1.00  0.00     0.001 A 
HETATM   18  C   UNL     1      28.288  43.424  52.001  1.00  0.00     0.014 A 
ENDBRANCH   2   5
BRANCH   1  19
HETATM   19  N   UNL     1      22.228  48.353  49.273  1.00  0.00    -0.183 NA
HETATM   20  C   UNL     1      21.073  47.931  48.870  1.00  0.00     0.153 C 
BRANCH  20  21
HETATM   21  C   UNL     1      20.016  48.893  48.489  1.00  0.00     0.019 A 
HETATM   22  C   UNL     1      19.315  49.607  49.461  1.00  0.00     0.110 A 
HETATM   23  C   UNL     1      18.306  50.514  49.098  1.00  0.00     0.102 A 
HETATM   24  C   UNL     1      18.010  50.704  47.746  1.00  0.00     0.040 A 
HETATM   25  C   UNL     1      18.711  49.992  46.769  1.00  0.00     0.004 A 
HETATM   26  C   UNL     1      19.710  49.089  47.138  1.00  0.00     0.016 A 
BRANCH  22  27
HETATM   27  O   UNL     1      19.596  49.431  50.793  1.00  0.00    -0.357 OA
HETATM   28  H   UNL     1      20.049  48.565  50.845  1.00  0.00     0.218 HD
ENDBRANCH  22  27
BRANCH  23  29
HETATM   29  O   UNL     1      17.692  51.147  50.150  1.00  0.00    -0.353 OA
HETATM   30  C   UNL     1      17.148  52.436  49.886  1.00  0.00     0.210 C 
ENDBRANCH  23  29
ENDBRANCH  20  21
ENDBRANCH   1  19
TORSDOF 5
ENDMDL
MODEL 8
REMARK VINA RESULT:      -9.0      3.451      4.334
REMARK  5 active torsions:
REMARK  status: ('A' for Active; 'I' for Inactive)
REMARK    1  A    between atoms: O_2  and  C_3 
REMARK    2  A    between atoms: C_4  and  O_5 
REMARK    3  A    between atoms: C_6  and  C_7 
REMARK    4  A    between atoms: N_8  and  N_9 
REMARK       I    between atoms: N_9  and  C_10 
REMARK    5  A    between atoms: C_10  and  C_11 
ROOT
HETATM    1  N   UNL     1      25.216  44.507  52.153  1.00  0.00    -0.242 N 
HETATM    2  C   UNL     1      26.600  44.489  52.070  1.00  0.00     0.292 C 
HETATM    3  O   UNL     1      27.244  44.065  51.112  1.00  0.00    -0.264 OA
HETATM    4  H   UNL     1      24.798  44.875  53.005  1.00  0.00     0.192 HD
ENDROOT
BRANCH   2   5
HETATM    5  C   UNL     1      27.251  45.036  53.273  1.00  0.00     0.154 A 
HETATM    6  N   UNL     1      26.884  46.218  53.822  1.00  0.00    -0.168 NA
HETATM    7  N   UNL     1      27.693  46.349  54.897  1.00  0.00    -0.276 N 
HETATM    8  H   UNL     1      27.601  47.179  55.471  1.00  0.00     0.189 HD
HETATM    9  C   UNL     1      28.553  45.308  55.063  1.00  0.00     0.069 A 
HETATM   10  C   UNL     1      28.300  44.444  54.021  1.00  0.00     0.007 A 
HETATM   11  C   UNL     1      29.558  45.082  56.088  1.00  0.00    -0.001 A 
HETATM   12  C   UNL     1      29.033  43.158  53.876  1.00  0.00     0.048 C 
HETATM   13  C   UNL     1      30.420  43.229  54.555  1.00  0.00     0.044 C 
HETATM   14  C   UNL     1      30.456  44.008  55.866  1.00  0.00    -0.045 A 
HETATM   15  C   UNL     1      31.445  43.726  56.818  1.00  0.00     0.008 A 
HETATM   16  C   UNL     1      31.526  44.484  57.986  1.00  0.00     0.001 A 
HETATM   17  C   UNL     1      30.633  45.533  58.206  1.00  0.00     0.001 A 
HETATM   18  C   UNL     1      29.651  45.836  57.260  1.00  0.00     0.014 A 
ENDBRANCH   2   5
BRANCH   1  19
HETATM   19  N   UNL     1      24.460  44.031  51.128  1.00  0.00    -0.183 NA
HETATM   20  C   UNL     1      24.087  44.895  50.240  1.00  0.00     0.153 C 
BRANCH  20  21
HETATM   21  C   UNL     1      23.261  44.476  49.087  1.00  0.00     0.019 A 
HETATM   22  C   UNL     1      23.760  43.584  48.137  1.00  0.00     0.110 A 
HETATM   23  C   UNL     1      22.977  43.193  47.039  1.00  0.00     0.102 A 
HETATM   24  C   UNL     1      21.683  43.700  46.904  1.00  0.00     0.040 A 
HETATM   25  C   UNL     1      21.179  44.592  47.855  1.00  0.00     0.004 A 
HETATM   26  C   UNL     1      21.964  44.980  48.942  1.00  0.00     0.016 A 
BRANCH  22  27
HETATM   27  O   UNL     1      25.030  43.077  48.257  1.00  0.00    -0.357 OA
HETATM   28  H   UNL     1      25.342  43.378  49.134  1.00  0.00     0.218 HD
ENDBRANCH  22  27
BRANCH  23  29
HETATM   29  O   UNL     1      23.588  42.317  46.177  1.00  0.00    -0.353 OA
HETATM   30  C   UNL     1      23.046  41.002  46.117  1.00  0.00     0.210 C 
ENDBRANCH  23  29
ENDBRANCH  20  21
ENDBRANCH   1  19
TORSDOF 5
ENDMDL
MODEL 9
REMARK VINA RESULT:      -9.0      2.201     10.387
REMARK  5 active torsions:
REMARK  status: ('A' for Active; 'I' for Inactive)
REMARK    1  A    between atoms: O_2  and  C_3 
REMARK    2  A    between atoms: C_4  and  O_5 
REMARK    3  A    between atoms: C_6  and  C_7 
REMARK    4  A    between atoms: N_8  and  N_9 
REMARK       I    between atoms: N_9  and  C_10 
REMARK    5  A    between atoms: C_10  and  C_11 
ROOT
HETATM    1  N   UNL     1      24.355  46.615  50.647  1.00  0.00    -0.242 N 
HETATM    2  C   UNL     1      24.357  47.716  49.805  1.00  0.00     0.292 C 
HETATM    3  O   UNL     1      25.303  48.486  49.650  1.00  0.00    -0.264 OA
HETATM    4  H   UNL     1      23.505  46.058  50.697  1.00  0.00     0.192 HD
ENDROOT
BRANCH   2   5
HETATM    5  C   UNL     1      23.079  47.891  49.093  1.00  0.00     0.154 A 
HETATM    6  N   UNL     1      22.499  46.891  48.388  1.00  0.00    -0.168 NA
HETATM    7  N   UNL     1      21.358  47.439  47.913  1.00  0.00    -0.276 N 
HETATM    8  H   UNL     1      20.751  46.866  47.339  1.00  0.00     0.189 HD
HETATM    9  C   UNL     1      21.180  48.736  48.285  1.00  0.00     0.069 A 
HETATM   10  C   UNL     1      22.283  49.063  49.042  1.00  0.00     0.007 A 
HETATM   11  C   UNL     1      20.091  49.652  47.985  1.00  0.00    -0.001 A 
HETATM   12  C   UNL     1      22.436  50.408  49.658  1.00  0.00     0.048 C 
HETATM   13  C   UNL     1      21.646  51.476  48.867  1.00  0.00     0.044 C 
HETATM   14  C   UNL     1      20.298  51.012  48.327  1.00  0.00    -0.045 A 
HETATM   15  C   UNL     1      19.287  51.948  48.076  1.00  0.00     0.008 A 
HETATM   16  C   UNL     1      18.078  51.537  47.514  1.00  0.00     0.001 A 
HETATM   17  C   UNL     1      17.875  50.196  47.189  1.00  0.00     0.001 A 
HETATM   18  C   UNL     1      18.878  49.252  47.420  1.00  0.00     0.014 A 
ENDBRANCH   2   5
BRANCH   1  19
HETATM   19  N   UNL     1      25.457  46.314  51.385  1.00  0.00    -0.183 NA
HETATM   20  C   UNL     1      25.416  46.637  52.638  1.00  0.00     0.153 C 
BRANCH  20  21
HETATM   21  C   UNL     1      26.565  46.350  53.523  1.00  0.00     0.019 A 
HETATM   22  C   UNL     1      27.140  45.080  53.561  1.00  0.00     0.110 A 
HETATM   23  C   UNL     1      28.226  44.808  54.408  1.00  0.00     0.102 A 
HETATM   24  C   UNL     1      28.737  45.826  55.216  1.00  0.00     0.040 A 
HETATM   25  C   UNL     1      28.165  47.101  55.180  1.00  0.00     0.004 A 
HETATM   26  C   UNL     1      27.083  47.363  54.338  1.00  0.00     0.016 A 
BRANCH  22  27
HETATM   27  O   UNL     1      26.648  44.069  52.773  1.00  0.00    -0.357 OA
HETATM   28  H   UNL     1      26.129  43.503  53.379  1.00  0.00     0.218 HD
ENDBRANCH  22  27
BRANCH  23  29
HETATM   29  O   UNL     1      28.693  43.518  54.353  1.00  0.00    -0.353 OA
HETATM   30  C   UNL     1      30.016  43.300  54.833  1.00  0.00     0.210 C 
ENDBRANCH  23  29
ENDBRANCH  20  21
ENDBRANCH   1  19
TORSDOF 5
ENDMDL
MODEL 10
REMARK VINA RESULT:      -8.8      2.253     10.630
REMARK  5 active torsions:
REMARK  status: ('A' for Active; 'I' for Inactive)
REMARK    1  A    between atoms: O_2  and  C_3 
REMARK    2  A    between atoms: C_4  and  O_5 
REMARK    3  A    between atoms: C_6  and  C_7 
REMARK    4  A    between atoms: N_8  and  N_9 
REMARK       I    between atoms: N_9  and  C_10 
REMARK    5  A    between atoms: C_10  and  C_11 
ROOT
HETATM    1  N   UNL     1      24.045  47.167  50.311  1.00  0.00    -0.242 N 
HETATM    2  C   UNL     1      24.036  48.247  49.442  1.00  0.00     0.292 C 
HETATM    3  O   UNL     1      24.939  49.073  49.334  1.00  0.00    -0.264 OA
HETATM    4  H   UNL     1      23.231  46.556  50.316  1.00  0.00     0.192 HD
ENDROOT
BRANCH   2   5
HETATM    5  C   UNL     1      22.803  48.322  48.639  1.00  0.00     0.154 A 
HETATM    6  N   UNL     1      22.441  47.346  47.773  1.00  0.00    -0.168 NA
HETATM    7  N   UNL     1      21.268  47.777  47.259  1.00  0.00    -0.276 N 
HETATM    8  H   UNL     1      20.803  47.199  46.570  1.00  0.00     0.189 HD
HETATM    9  C   UNL     1      20.862  48.976  47.758  1.00  0.00     0.069 A 
HETATM   10  C   UNL     1      21.840  49.362  48.647  1.00  0.00     0.007 A 
HETATM   11  C   UNL     1      19.669  49.753  47.464  1.00  0.00    -0.001 A 
HETATM   12  C   UNL     1      21.734  50.625  49.425  1.00  0.00     0.048 C 
HETATM   13  C   UNL     1      20.849  51.658  48.690  1.00  0.00     0.044 C 
HETATM   14  C   UNL     1      19.634  51.074  47.977  1.00  0.00    -0.045 A 
HETATM   15  C   UNL     1      18.511  51.877  47.741  1.00  0.00     0.008 A 
HETATM   16  C   UNL     1      17.427  51.368  47.026  1.00  0.00     0.001 A 
HETATM   17  C   UNL     1      17.460  50.064  46.532  1.00  0.00     0.001 A 
HETATM   18  C   UNL     1      18.579  49.255  46.747  1.00  0.00     0.014 A 
ENDBRANCH   2   5
BRANCH   1  19
HETATM   19  N   UNL     1      25.109  46.954  51.132  1.00  0.00    -0.183 NA
HETATM   20  C   UNL     1      25.170  45.795  51.704  1.00  0.00     0.153 C 
BRANCH  20  21
HETATM   21  C   UNL     1      26.288  45.468  52.614  1.00  0.00     0.019 A 
HETATM   22  C   UNL     1      26.557  46.260  53.730  1.00  0.00     0.110 A 
HETATM   23  C   UNL     1      27.625  45.953  54.589  1.00  0.00     0.102 A 
HETATM   24  C   UNL     1      28.419  44.836  54.322  1.00  0.00     0.040 A 
HETATM   25  C   UNL     1      28.152  44.038  53.207  1.00  0.00     0.004 A 
HETATM   26  C   UNL     1      27.092  44.352  52.355  1.00  0.00     0.016 A 
BRANCH  22  27
HETATM   27  O   UNL     1      25.785  47.361  54.005  1.00  0.00    -0.357 OA
HETATM   28  H   UNL     1      25.273  47.119  54.803  1.00  0.00     0.218 HD
ENDBRANCH  22  27
BRANCH  23  29
HETATM   29  O   UNL     1      27.783  46.816  55.645  1.00  0.00    -0.353 OA
HETATM   30  C   UNL     1      28.433  46.294  56.800  1.00  0.00     0.210 C 
ENDBRANCH  23  29
ENDBRANCH  20  21
ENDBRANCH   1  19
TORSDOF 5
ENDMDL
