MODEL 1
REMARK VINA RESULT:     -10.7      0.000      0.000
REMARK  6 active torsions:
REMARK  status: ('A' for Active; 'I' for Inactive)
REMARK    1  A    between atoms: C_5  and  N_6 
REMARK       I    between atoms: N_6  and  C_7 
REMARK    2  A    between atoms: C_7  and  C_8 
REMARK    3  A    between atoms: C_8  and  S_9 
REMARK    4  A    between atoms: S_9  and  C_10 
REMARK    5  A    between atoms: N_15  and  C_17 
REMARK    6  A    between atoms: C_17  and  C_18 
ROOT
HETATM    1  C   UNL     1      26.063  45.588  50.440  1.00  0.00     0.169 A 
HETATM    2  N   UNL     1      26.495  46.775  50.190  1.00  0.00    -0.228 NA
HETATM    3  C   UNL     1      25.654  47.641  49.547  1.00  0.00     0.052 A 
HETATM    4  C   UNL     1      24.390  47.335  49.217  1.00  0.00     0.060 A 
HETATM    5  C   UNL     1      23.432  48.289  48.601  1.00  0.00     0.281 C 
HETATM    6  N   UNL     1      23.924  49.728  48.704  1.00  0.00    -0.063 N 
HETATM    7  H   UNL     1      23.892  49.967  49.703  1.00  0.00     0.280 HD
HETATM    8  C   UNL     1      25.371  49.825  48.275  1.00  0.00     0.241 C 
HETATM    9  C   UNL     1      26.242  48.994  49.221  1.00  0.00     0.088 C 
HETATM   10  C   UNL     1      23.909  45.975  49.519  1.00  0.00     0.257 A 
HETATM   11  O   UNL     1      22.769  45.639  49.229  1.00  0.00    -0.267 OA
HETATM   12  N   UNL     1      24.814  45.157  50.123  1.00  0.00    -0.302 N 
HETATM   13  H   UNL     1      24.535  44.215  50.358  1.00  0.00     0.171 HD
ENDROOT
BRANCH   1  14
HETATM   14  S   UNL     1      27.031  44.378  51.216  1.00  0.00    -0.083 SA
BRANCH  14  15
HETATM   15  C   UNL     1      25.928  43.892  52.589  1.00  0.00     0.185 C 
BRANCH  15  16
HETATM   16  C   UNL     1      26.661  43.899  53.927  1.00  0.00     0.231 C 
HETATM   17  N   UNL     1      27.926  44.461  53.836  1.00  0.00    -0.326 N 
HETATM   18  H   UNL     1      28.069  45.030  53.008  1.00  0.00     0.169 HD
HETATM   19  O   UNL     1      26.127  43.456  54.941  1.00  0.00    -0.272 OA
BRANCH  17  20
HETATM   20  C   UNL     1      28.818  44.711  54.904  1.00  0.00     0.041 C 
HETATM   21  C   UNL     1      29.967  43.955  55.218  1.00  0.00    -0.029 C 
HETATM   22  C   UNL     1      30.676  44.252  56.413  1.00  0.00    -0.054 C 
HETATM   23  C   UNL     1      30.518  42.893  54.300  1.00  0.00     0.051 C 
HETATM   24  C   UNL     1      31.876  43.450  56.848  1.00  0.00     0.049 C 
HETATM   25  C   UNL     1      30.307  45.360  57.191  1.00  0.00     0.007 C 
HETATM   26  C   UNL     1      29.237  46.161  56.816  1.00  0.00     0.003 C 
HETATM   27  C   UNL     1      28.499  45.838  55.681  1.00  0.00     0.030 C 
ENDBRANCH  17  20
ENDBRANCH  15  16
ENDBRANCH  14  15
ENDBRANCH   1  14
BRANCH   6  28
HETATM   28  C   UNL     1      23.024  50.720  48.009  1.00  0.00     0.273 C 
BRANCH  28  29
HETATM   29  C   UNL     1      21.650  50.775  48.629  1.00  0.00    -0.030 A 
HETATM   30  C   UNL     1      20.504  50.744  47.815  1.00  0.00     0.048 A 
HETATM   31  C   UNL     1      19.274  50.904  48.415  1.00  0.00     0.105 A 
HETATM   32  C   UNL     1      19.143  51.060  49.772  1.00  0.00     0.105 A 
HETATM   33  O   UNL     1      18.080  50.948  47.767  1.00  0.00    -0.323 OA
HETATM   34  O   UNL     1      17.848  51.217  50.151  1.00  0.00    -0.323 OA
HETATM   35  C   UNL     1      20.237  51.059  50.608  1.00  0.00     0.040 A 
HETATM   36  C   UNL     1      17.176  51.161  48.876  1.00  0.00     0.352 A 
HETATM   37  C   UNL     1      21.503  50.918  50.030  1.00  0.00     0.012 A 
ENDBRANCH  28  29
ENDBRANCH   6  28
TORSDOF 6
ENDMDL
MODEL 2
REMARK VINA RESULT:     -10.5      1.654      2.663
REMARK  6 active torsions:
REMARK  status: ('A' for Active; 'I' for Inactive)
REMARK    1  A    between atoms: C_5  and  N_6 
REMARK       I    between atoms: N_6  and  C_7 
REMARK    2  A    between atoms: C_7  and  C_8 
REMARK    3  A    between atoms: C_8  and  S_9 
REMARK    4  A    between atoms: S_9  and  C_10 
REMARK    5  A    between atoms: N_15  and  C_17 
REMARK    6  A    between atoms: C_17  and  C_18 
ROOT
HETATM    1  C   UNL     1      24.482  47.168  50.102  1.00  0.00     0.169 A 
HETATM    2  N   UNL     1      24.367  48.431  49.882  1.00  0.00    -0.228 NA
HETATM    3  C   UNL     1      23.337  48.852  49.086  1.00  0.00     0.052 A 
HETATM    4  C   UNL     1      22.414  48.024  48.574  1.00  0.00     0.060 A 
HETATM    5  C   UNL     1      21.237  48.469  47.783  1.00  0.00     0.281 C 
HETATM    6  N   UNL     1      21.007  49.971  47.912  1.00  0.00    -0.063 N 
HETATM    7  H   UNL     1      20.717  50.130  48.885  1.00  0.00     0.280 HD
HETATM    8  C   UNL     1      22.303  50.724  47.710  1.00  0.00     0.241 C 
HETATM    9  C   UNL     1      23.297  50.336  48.809  1.00  0.00     0.088 C 
HETATM   10  C   UNL     1      22.556  46.582  48.844  1.00  0.00     0.257 A 
HETATM   11  O   UNL     1      21.748  45.781  48.392  1.00  0.00    -0.267 OA
HETATM   12  N   UNL     1      23.626  46.235  49.610  1.00  0.00    -0.302 N 
HETATM   13  H   UNL     1      23.768  45.259  49.831  1.00  0.00     0.171 HD
ENDROOT
BRANCH   1  14
HETATM   14  S   UNL     1      25.757  46.492  51.061  1.00  0.00    -0.083 SA
BRANCH  14  15
HETATM   15  C   UNL     1      24.845  45.200  51.976  1.00  0.00     0.185 C 
BRANCH  15  16
HETATM   16  C   UNL     1      25.684  44.615  53.107  1.00  0.00     0.231 C 
HETATM   17  N   UNL     1      27.044  44.815  52.918  1.00  0.00    -0.326 N 
HETATM   18  H   UNL     1      27.267  45.541  52.245  1.00  0.00     0.169 HD
HETATM   19  O   UNL     1      25.152  44.056  54.063  1.00  0.00    -0.272 OA
BRANCH  17  20
HETATM   20  C   UNL     1      28.080  44.489  53.824  1.00  0.00     0.041 C 
HETATM   21  C   UNL     1      28.564  45.315  54.860  1.00  0.00    -0.029 C 
HETATM   22  C   UNL     1      29.710  44.898  55.589  1.00  0.00    -0.054 C 
HETATM   23  C   UNL     1      27.871  46.588  55.277  1.00  0.00     0.051 C 
HETATM   24  C   UNL     1      30.323  45.753  56.668  1.00  0.00     0.049 C 
HETATM   25  C   UNL     1      30.263  43.629  55.359  1.00  0.00     0.007 C 
HETATM   26  C   UNL     1      29.714  42.781  54.408  1.00  0.00     0.003 C 
HETATM   27  C   UNL     1      28.631  43.209  53.647  1.00  0.00     0.030 C 
ENDBRANCH  17  20
ENDBRANCH  15  16
ENDBRANCH  14  15
ENDBRANCH   1  14
BRANCH   6  28
HETATM   28  C   UNL     1      19.876  50.479  47.052  1.00  0.00     0.273 C 
BRANCH  28  29
HETATM   29  C   UNL     1      18.808  51.168  47.863  1.00  0.00    -0.030 A 
HETATM   30  C   UNL     1      17.549  51.434  47.295  1.00  0.00     0.048 A 
HETATM   31  C   UNL     1      16.641  52.160  48.036  1.00  0.00     0.105 A 
HETATM   32  C   UNL     1      16.923  52.596  49.305  1.00  0.00     0.105 A 
HETATM   33  O   UNL     1      15.407  52.542  47.615  1.00  0.00    -0.323 OA
HETATM   34  O   UNL     1      15.898  53.304  49.848  1.00  0.00    -0.323 OA
HETATM   35  C   UNL     1      18.129  52.324  49.911  1.00  0.00     0.040 A 
HETATM   36  C   UNL     1      14.943  53.282  48.767  1.00  0.00     0.352 A 
HETATM   37  C   UNL     1      19.082  51.607  49.180  1.00  0.00     0.012 A 
ENDBRANCH  28  29
ENDBRANCH   6  28
TORSDOF 6
ENDMDL
MODEL 3
REMARK VINA RESULT:     -10.4      2.708     10.632
REMARK  6 active torsions:
REMARK  status: ('A' for Active; 'I' for Inactive)
REMARK    1  A    between atoms: C_5  and  N_6 
REMARK       I    between atoms: N_6  and  C_7 
REMARK    2  A    between atoms: C_7  and  C_8 
REMARK    3  A    between atoms: C_8  and  S_9 
REMARK    4  A    between atoms: S_9  and  C_10 
REMARK    5  A    between atoms: N_15  and  C_17 
REMARK    6  A    between atoms: C_17  and  C_18 
ROOT
HETATM    1  C   UNL     1      24.636  43.418  48.918  1.00  0.00     0.169 A 
HETATM    2  N   UNL     1      24.954  42.400  49.639  1.00  0.00    -0.228 NA
HETATM    3  C   UNL     1      26.135  42.446  50.327  1.00  0.00     0.052 A 
HETATM    4  C   UNL     1      26.946  43.515  50.332  1.00  0.00     0.060 A 
HETATM    5  C   UNL     1      28.186  43.621  51.144  1.00  0.00     0.281 C 
HETATM    6  N   UNL     1      28.251  42.539  52.216  1.00  0.00    -0.063 N 
HETATM    7  H   UNL     1      27.506  42.761  52.888  1.00  0.00     0.280 HD
HETATM    8  C   UNL     1      27.922  41.186  51.626  1.00  0.00     0.241 C 
HETATM    9  C   UNL     1      26.485  41.195  51.097  1.00  0.00     0.088 C 
HETATM   10  C   UNL     1      26.561  44.676  49.509  1.00  0.00     0.257 A 
HETATM   11  O   UNL     1      27.269  45.673  49.470  1.00  0.00    -0.267 OA
HETATM   12  N   UNL     1      25.394  44.543  48.823  1.00  0.00    -0.302 N 
HETATM   13  H   UNL     1      25.080  45.311  48.247  1.00  0.00     0.171 HD
ENDROOT
BRANCH   1  14
HETATM   14  S   UNL     1      23.188  43.484  47.967  1.00  0.00    -0.083 SA
BRANCH  14  15
HETATM   15  C   UNL     1      22.208  44.694  48.924  1.00  0.00     0.185 C 
BRANCH  15  16
HETATM   16  C   UNL     1      22.212  46.068  48.262  1.00  0.00     0.231 C 
HETATM   17  N   UNL     1      22.133  47.102  49.184  1.00  0.00    -0.326 N 
HETATM   18  H   UNL     1      22.371  46.832  50.133  1.00  0.00     0.169 HD
HETATM   19  O   UNL     1      22.297  46.180  47.042  1.00  0.00    -0.272 OA
BRANCH  17  20
HETATM   20  C   UNL     1      22.216  48.487  48.910  1.00  0.00     0.041 C 
HETATM   21  C   UNL     1      21.156  49.413  48.998  1.00  0.00    -0.029 C 
HETATM   22  C   UNL     1      21.371  50.743  48.546  1.00  0.00    -0.054 C 
HETATM   23  C   UNL     1      19.826  49.071  49.619  1.00  0.00     0.051 C 
HETATM   24  C   UNL     1      20.271  51.774  48.549  1.00  0.00     0.049 C 
HETATM   25  C   UNL     1      22.653  51.149  48.144  1.00  0.00     0.007 C 
HETATM   26  C   UNL     1      23.715  50.255  48.162  1.00  0.00     0.003 C 
HETATM   27  C   UNL     1      23.496  48.934  48.542  1.00  0.00     0.030 C 
ENDBRANCH  17  20
ENDBRANCH  15  16
ENDBRANCH  14  15
ENDBRANCH   1  14
BRANCH   6  28
HETATM   28  C   UNL     1      29.539  42.553  53.004  1.00  0.00     0.273 C 
BRANCH  28  29
HETATM   29  C   UNL     1      29.518  43.577  54.111  1.00  0.00    -0.030 A 
HETATM   30  C   UNL     1      30.497  43.547  55.120  1.00  0.00     0.048 A 
HETATM   31  C   UNL     1      30.378  44.434  56.169  1.00  0.00     0.105 A 
HETATM   32  C   UNL     1      29.359  45.349  56.234  1.00  0.00     0.105 A 
HETATM   33  O   UNL     1      31.208  44.500  57.243  1.00  0.00    -0.323 OA
HETATM   34  O   UNL     1      29.420  46.113  57.356  1.00  0.00    -0.323 OA
HETATM   35  C   UNL     1      28.402  45.435  55.248  1.00  0.00     0.040 A 
HETATM   36  C   UNL     1      30.586  45.561  58.003  1.00  0.00     0.352 A 
HETATM   37  C   UNL     1      28.481  44.537  54.178  1.00  0.00     0.012 A 
ENDBRANCH  28  29
ENDBRANCH   6  28
TORSDOF 6
ENDMDL
MODEL 4
REMARK VINA RESULT:     -10.3      1.672      2.450
REMARK  6 active torsions:
REMARK  status: ('A' for Active; 'I' for Inactive)
REMARK    1  A    between atoms: C_5  and  N_6 
REMARK       I    between atoms: N_6  and  C_7 
REMARK    2  A    between atoms: C_7  and  C_8 
REMARK    3  A    between atoms: C_8  and  S_9 
REMARK    4  A    between atoms: S_9  and  C_10 
REMARK    5  A    between atoms: N_15  and  C_17 
REMARK    6  A    between atoms: C_17  and  C_18 
ROOT
HETATM    1  C   UNL     1      24.725  45.370  49.420  1.00  0.00     0.169 A 
HETATM    2  N   UNL     1      23.515  45.647  49.079  1.00  0.00    -0.228 NA
HETATM    3  C   UNL     1      23.137  46.961  49.068  1.00  0.00     0.052 A 
HETATM    4  C   UNL     1      23.975  47.973  49.337  1.00  0.00     0.060 A 
HETATM    5  C   UNL     1      23.610  49.410  49.242  1.00  0.00     0.281 C 
HETATM    6  N   UNL     1      22.304  49.611  48.481  1.00  0.00    -0.063 N 
HETATM    7  H   UNL     1      22.501  49.348  47.507  1.00  0.00     0.280 HD
HETATM    8  C   UNL     1      21.244  48.658  48.987  1.00  0.00     0.241 C 
HETATM    9  C   UNL     1      21.687  47.215  48.728  1.00  0.00     0.088 C 
HETATM   10  C   UNL     1      25.360  47.639  49.716  1.00  0.00     0.257 A 
HETATM   11  O   UNL     1      26.163  48.522  49.982  1.00  0.00    -0.267 OA
HETATM   12  N   UNL     1      25.652  46.310  49.743  1.00  0.00    -0.302 N 
HETATM   13  H   UNL     1      26.589  46.025  49.991  1.00  0.00     0.171 HD
ENDROOT
BRANCH   1  14
HETATM   14  S   UNL     1      25.331  43.748  49.512  1.00  0.00    -0.083 SA
BRANCH  14  15
HETATM   15  C   UNL     1      25.442  43.530  51.323  1.00  0.00     0.185 C 
BRANCH  15  16
HETATM   16  C   UNL     1      26.751  44.085  51.875  1.00  0.00     0.231 C 
HETATM   17  N   UNL     1      26.753  44.163  53.260  1.00  0.00    -0.326 N 
HETATM   18  H   UNL     1      26.042  43.595  53.709  1.00  0.00     0.169 HD
HETATM   19  O   UNL     1      27.672  44.394  51.123  1.00  0.00    -0.272 OA
BRANCH  17  20
HETATM   20  C   UNL     1      27.841  44.534  54.084  1.00  0.00     0.041 C 
HETATM   21  C   UNL     1      28.914  43.701  54.464  1.00  0.00    -0.029 C 
HETATM   22  C   UNL     1      29.850  44.183  55.417  1.00  0.00    -0.054 C 
HETATM   23  C   UNL     1      29.151  42.346  53.845  1.00  0.00     0.051 C 
HETATM   24  C   UNL     1      30.988  43.331  55.919  1.00  0.00     0.049 C 
HETATM   25  C   UNL     1      29.773  45.510  55.867  1.00  0.00     0.007 C 
HETATM   26  C   UNL     1      28.773  46.355  55.406  1.00  0.00     0.003 C 
HETATM   27  C   UNL     1      27.814  45.869  54.522  1.00  0.00     0.030 C 
ENDBRANCH  17  20
ENDBRANCH  15  16
ENDBRANCH  14  15
ENDBRANCH   1  14
BRANCH   6  28
HETATM   28  C   UNL     1      21.849  51.049  48.441  1.00  0.00     0.273 C 
BRANCH  28  29
HETATM   29  C   UNL     1      20.352  51.170  48.304  1.00  0.00    -0.030 A 
HETATM   30  C   UNL     1      19.582  51.666  49.371  1.00  0.00     0.048 A 
HETATM   31  C   UNL     1      18.209  51.659  49.241  1.00  0.00     0.105 A 
HETATM   32  C   UNL     1      17.590  51.212  48.102  1.00  0.00     0.105 A 
HETATM   33  O   UNL     1      17.326  52.055  50.194  1.00  0.00    -0.323 OA
HETATM   34  O   UNL     1      16.236  51.277  48.190  1.00  0.00    -0.323 OA
HETATM   35  C   UNL     1      18.309  50.753  47.021  1.00  0.00     0.040 A 
HETATM   36  C   UNL     1      16.069  51.797  49.526  1.00  0.00     0.352 A 
HETATM   37  C   UNL     1      19.704  50.729  47.126  1.00  0.00     0.012 A 
ENDBRANCH  28  29
ENDBRANCH   6  28
TORSDOF 6
ENDMDL
MODEL 5
REMARK VINA RESULT:     -10.2      1.893      2.336
REMARK  6 active torsions:
REMARK  status: ('A' for Active; 'I' for Inactive)
REMARK    1  A    between atoms: C_5  and  N_6 
REMARK       I    between atoms: N_6  and  C_7 
REMARK    2  A    between atoms: C_7  and  C_8 
REMARK    3  A    between atoms: C_8  and  S_9 
REMARK    4  A    between atoms: S_9  and  C_10 
REMARK    5  A    between atoms: N_15  and  C_17 
REMARK    6  A    between atoms: C_17  and  C_18 
ROOT
HETATM    1  C   UNL     1      25.118  43.801  50.755  1.00  0.00     0.169 A 
HETATM    2  N   UNL     1      24.926  45.057  50.547  1.00  0.00    -0.228 NA
HETATM    3  C   UNL     1      23.831  45.426  49.817  1.00  0.00     0.052 A 
HETATM    4  C   UNL     1      22.921  44.553  49.357  1.00  0.00     0.060 A 
HETATM    5  C   UNL     1      21.678  44.939  48.641  1.00  0.00     0.281 C 
HETATM    6  N   UNL     1      21.381  46.428  48.789  1.00  0.00    -0.063 N 
HETATM    7  H   UNL     1      21.143  46.572  49.779  1.00  0.00     0.280 HD
HETATM    8  C   UNL     1      22.623  47.245  48.513  1.00  0.00     0.241 C 
HETATM    9  C   UNL     1      23.700  46.907  49.548  1.00  0.00     0.088 C 
HETATM   10  C   UNL     1      23.150  43.120  49.614  1.00  0.00     0.257 A 
HETATM   11  O   UNL     1      22.358  42.280  49.208  1.00  0.00    -0.267 OA
HETATM   12  N   UNL     1      24.281  42.826  50.312  1.00  0.00    -0.302 N 
HETATM   13  H   UNL     1      24.484  41.859  50.521  1.00  0.00     0.171 HD
ENDROOT
BRANCH   1  14
HETATM   14  S   UNL     1      26.481  43.189  51.633  1.00  0.00    -0.083 SA
BRANCH  14  15
HETATM   15  C   UNL     1      26.814  44.587  52.762  1.00  0.00     0.185 C 
BRANCH  15  16
HETATM   16  C   UNL     1      27.619  44.145  53.979  1.00  0.00     0.231 C 
HETATM   17  N   UNL     1      28.539  45.102  54.384  1.00  0.00    -0.326 N 
HETATM   18  H   UNL     1      28.356  46.033  54.023  1.00  0.00     0.169 HD
HETATM   19  O   UNL     1      27.416  43.055  54.508  1.00  0.00    -0.272 OA
BRANCH  17  20
HETATM   20  C   UNL     1      29.364  45.049  55.531  1.00  0.00     0.041 C 
HETATM   21  C   UNL     1      30.398  44.118  55.766  1.00  0.00    -0.029 C 
HETATM   22  C   UNL     1      31.036  44.110  57.035  1.00  0.00    -0.054 C 
HETATM   23  C   UNL     1      30.905  43.180  54.700  1.00  0.00     0.051 C 
HETATM   24  C   UNL     1      32.105  43.107  57.383  1.00  0.00     0.049 C 
HETATM   25  C   UNL     1      30.725  45.097  57.983  1.00  0.00     0.007 C 
HETATM   26  C   UNL     1      29.780  46.073  57.702  1.00  0.00     0.003 C 
HETATM   27  C   UNL     1      29.105  46.048  56.485  1.00  0.00     0.030 C 
ENDBRANCH  17  20
ENDBRANCH  15  16
ENDBRANCH  14  15
ENDBRANCH   1  14
BRANCH   6  28
HETATM   28  C   UNL     1      20.176  46.880  48.001  1.00  0.00     0.273 C 
BRANCH  28  29
HETATM   29  C   UNL     1      19.576  48.147  48.554  1.00  0.00    -0.030 A 
HETATM   30  C   UNL     1      19.526  49.310  47.765  1.00  0.00     0.048 A 
HETATM   31  C   UNL     1      19.066  50.473  48.347  1.00  0.00     0.105 A 
HETATM   32  C   UNL     1      18.636  50.512  49.649  1.00  0.00     0.105 A 
HETATM   33  O   UNL     1      19.003  51.686  47.740  1.00  0.00    -0.323 OA
HETATM   34  O   UNL     1      18.241  51.756  50.025  1.00  0.00    -0.323 OA
HETATM   35  C   UNL     1      18.634  49.387  50.444  1.00  0.00     0.040 A 
HETATM   36  C   UNL     1      18.489  52.504  48.817  1.00  0.00     0.352 A 
HETATM   37  C   UNL     1      19.112  48.194  49.891  1.00  0.00     0.012 A 
ENDBRANCH  28  29
ENDBRANCH   6  28
TORSDOF 6
ENDMDL
MODEL 6
REMARK VINA RESULT:     -10.2      1.670      2.424
REMARK  6 active torsions:
REMARK  status: ('A' for Active; 'I' for Inactive)
REMARK    1  A    between atoms: C_5  and  N_6 
REMARK       I    between atoms: N_6  and  C_7 
REMARK    2  A    between atoms: C_7  and  C_8 
REMARK    3  A    between atoms: C_8  and  S_9 
REMARK    4  A    between atoms: S_9  and  C_10 
REMARK    5  A    between atoms: N_15  and  C_17 
REMARK    6  A    between atoms: C_17  and  C_18 
ROOT
HETATM    1  C   UNL     1      25.439  45.616  50.555  1.00  0.00     0.169 A 
HETATM    2  N   UNL     1      24.493  44.905  50.048  1.00  0.00    -0.228 NA
HETATM    3  C   UNL     1      23.479  45.555  49.401  1.00  0.00     0.052 A 
HETATM    4  C   UNL     1      23.451  46.884  49.219  1.00  0.00     0.060 A 
HETATM    5  C   UNL     1      22.407  47.601  48.441  1.00  0.00     0.281 C 
HETATM    6  N   UNL     1      21.579  46.642  47.593  1.00  0.00    -0.063 N 
HETATM    7  H   UNL     1      22.214  46.283  46.869  1.00  0.00     0.280 HD
HETATM    8  C   UNL     1      21.136  45.454  48.417  1.00  0.00     0.241 C 
HETATM    9  C   UNL     1      22.365  44.672  48.890  1.00  0.00     0.088 C 
HETATM   10  C   UNL     1      24.548  47.682  49.797  1.00  0.00     0.257 A 
HETATM   11  O   UNL     1      24.566  48.899  49.671  1.00  0.00    -0.267 OA
HETATM   12  N   UNL     1      25.499  46.970  50.460  1.00  0.00    -0.302 N 
HETATM   13  H   UNL     1      26.277  47.467  50.871  1.00  0.00     0.171 HD
ENDROOT
BRANCH   1  14
HETATM   14  S   UNL     1      26.768  44.929  51.431  1.00  0.00    -0.083 SA
BRANCH  14  15
HETATM   15  C   UNL     1      25.875  43.969  52.704  1.00  0.00     0.185 C 
BRANCH  15  16
HETATM   16  C   UNL     1      26.658  43.907  54.011  1.00  0.00     0.231 C 
HETATM   17  N   UNL     1      27.885  44.548  53.926  1.00  0.00    -0.326 N 
HETATM   18  H   UNL     1      27.965  45.192  53.146  1.00  0.00     0.169 HD
HETATM   19  O   UNL     1      26.189  43.351  55.001  1.00  0.00    -0.272 OA
BRANCH  17  20
HETATM   20  C   UNL     1      28.803  44.760  54.981  1.00  0.00     0.041 C 
HETATM   21  C   UNL     1      29.949  43.982  55.251  1.00  0.00    -0.029 C 
HETATM   22  C   UNL     1      30.686  44.239  56.437  1.00  0.00    -0.054 C 
HETATM   23  C   UNL     1      30.467  42.938  54.294  1.00  0.00     0.051 C 
HETATM   24  C   UNL     1      31.885  43.412  56.826  1.00  0.00     0.049 C 
HETATM   25  C   UNL     1      30.347  45.331  57.251  1.00  0.00     0.007 C 
HETATM   26  C   UNL     1      29.281  46.154  56.920  1.00  0.00     0.003 C 
HETATM   27  C   UNL     1      28.515  45.870  55.793  1.00  0.00     0.030 C 
ENDBRANCH  17  20
ENDBRANCH  15  16
ENDBRANCH  14  15
ENDBRANCH   1  14
BRANCH   6  28
HETATM   28  C   UNL     1      20.447  47.318  46.858  1.00  0.00     0.273 C 
BRANCH  28  29
HETATM   29  C   UNL     1      19.672  48.259  47.745  1.00  0.00    -0.030 A 
HETATM   30  C   UNL     1      19.856  49.649  47.635  1.00  0.00     0.048 A 
HETATM   31  C   UNL     1      19.207  50.465  48.537  1.00  0.00     0.105 A 
HETATM   32  C   UNL     1      18.378  49.961  49.506  1.00  0.00     0.105 A 
HETATM   33  O   UNL     1      19.318  51.818  48.597  1.00  0.00    -0.323 OA
HETATM   34  O   UNL     1      17.855  50.934  50.297  1.00  0.00    -0.323 OA
HETATM   35  C   UNL     1      18.142  48.609  49.624  1.00  0.00     0.040 A 
HETATM   36  C   UNL     1      18.466  52.111  49.728  1.00  0.00     0.352 A 
HETATM   37  C   UNL     1      18.800  47.750  48.737  1.00  0.00     0.012 A 
ENDBRANCH  28  29
ENDBRANCH   6  28
TORSDOF 6
ENDMDL
MODEL 7
REMARK VINA RESULT:      -9.9      2.477     11.504
REMARK  6 active torsions:
REMARK  status: ('A' for Active; 'I' for Inactive)
REMARK    1  A    between atoms: C_5  and  N_6 
REMARK       I    between atoms: N_6  and  C_7 
REMARK    2  A    between atoms: C_7  and  C_8 
REMARK    3  A    between atoms: C_8  and  S_9 
REMARK    4  A    between atoms: S_9  and  C_10 
REMARK    5  A    between atoms: N_15  and  C_17 
REMARK    6  A    between atoms: C_17  and  C_18 
ROOT
HETATM    1  C   UNL     1      24.370  48.216  49.431  1.00  0.00     0.169 A 
HETATM    2  N   UNL     1      23.996  47.172  50.083  1.00  0.00    -0.228 NA
HETATM    3  C   UNL     1      24.938  46.220  50.364  1.00  0.00     0.052 A 
HETATM    4  C   UNL     1      26.234  46.348  50.046  1.00  0.00     0.060 A 
HETATM    5  C   UNL     1      27.289  45.370  50.421  1.00  0.00     0.281 C 
HETATM    6  N   UNL     1      26.801  44.399  51.490  1.00  0.00    -0.063 N 
HETATM    7  H   UNL     1      26.676  44.957  52.344  1.00  0.00     0.280 HD
HETATM    8  C   UNL     1      25.442  43.846  51.124  1.00  0.00     0.241 C 
HETATM    9  C   UNL     1      24.423  44.988  51.070  1.00  0.00     0.088 C 
HETATM   10  C   UNL     1      26.647  47.555  49.308  1.00  0.00     0.257 A 
HETATM   11  O   UNL     1      27.816  47.717  48.982  1.00  0.00    -0.267 OA
HETATM   12  N   UNL     1      25.650  48.438  49.029  1.00  0.00    -0.302 N 
HETATM   13  H   UNL     1      25.878  49.286  48.529  1.00  0.00     0.171 HD
ENDROOT
BRANCH   1  14
HETATM   14  S   UNL     1      23.279  49.484  48.976  1.00  0.00    -0.083 SA
BRANCH  14  15
HETATM   15  C   UNL     1      21.970  48.521  48.140  1.00  0.00     0.185 C 
BRANCH  15  16
HETATM   16  C   UNL     1      20.579  48.972  48.574  1.00  0.00     0.231 C 
HETATM   17  N   UNL     1      20.315  50.289  48.225  1.00  0.00    -0.326 N 
HETATM   18  H   UNL     1      20.929  50.660  47.508  1.00  0.00     0.169 HD
HETATM   19  O   UNL     1      19.817  48.200  49.150  1.00  0.00    -0.272 OA
BRANCH  17  20
HETATM   20  C   UNL     1      19.090  50.977  48.388  1.00  0.00     0.041 C 
HETATM   21  C   UNL     1      18.039  51.030  47.449  1.00  0.00    -0.029 C 
HETATM   22  C   UNL     1      16.935  51.887  47.705  1.00  0.00    -0.054 C 
HETATM   23  C   UNL     1      18.002  50.160  46.218  1.00  0.00     0.051 C 
HETATM   24  C   UNL     1      15.804  52.046  46.722  1.00  0.00     0.049 C 
HETATM   25  C   UNL     1      16.842  52.563  48.932  1.00  0.00     0.007 C 
HETATM   26  C   UNL     1      17.832  52.421  49.893  1.00  0.00     0.003 C 
HETATM   27  C   UNL     1      18.948  51.633  49.622  1.00  0.00     0.030 C 
ENDBRANCH  17  20
ENDBRANCH  15  16
ENDBRANCH  14  15
ENDBRANCH   1  14
BRANCH   6  28
HETATM   28  C   UNL     1      27.811  43.331  51.835  1.00  0.00     0.273 C 
BRANCH  28  29
HETATM   29  C   UNL     1      28.542  43.631  53.119  1.00  0.00    -0.030 A 
HETATM   30  C   UNL     1      28.080  44.647  53.975  1.00  0.00     0.048 A 
HETATM   31  C   UNL     1      28.838  44.959  55.084  1.00  0.00     0.105 A 
HETATM   32  C   UNL     1      29.999  44.291  55.381  1.00  0.00     0.105 A 
HETATM   33  O   UNL     1      28.559  45.943  55.978  1.00  0.00    -0.323 OA
HETATM   34  O   UNL     1      30.595  44.766  56.505  1.00  0.00    -0.323 OA
HETATM   35  C   UNL     1      30.465  43.265  54.589  1.00  0.00     0.040 A 
HETATM   36  C   UNL     1      29.688  45.825  56.874  1.00  0.00     0.352 A 
HETATM   37  C   UNL     1      29.731  42.936  53.445  1.00  0.00     0.012 A 
ENDBRANCH  28  29
ENDBRANCH   6  28
TORSDOF 6
ENDMDL
MODEL 8
REMARK VINA RESULT:      -9.8      2.436     11.436
REMARK  6 active torsions:
REMARK  status: ('A' for Active; 'I' for Inactive)
REMARK    1  A    between atoms: C_5  and  N_6 
REMARK       I    between atoms: N_6  and  C_7 
REMARK    2  A    between atoms: C_7  and  C_8 
REMARK    3  A    between atoms: C_8  and  S_9 
REMARK    4  A    between atoms: S_9  and  C_10 
REMARK    5  A    between atoms: N_15  and  C_17 
REMARK    6  A    between atoms: C_17  and  C_18 
ROOT
HETATM    1  C   UNL     1      24.091  46.089  49.387  1.00  0.00     0.169 A 
HETATM    2  N   UNL     1      23.969  44.945  49.964  1.00  0.00    -0.228 NA
HETATM    3  C   UNL     1      25.106  44.323  50.401  1.00  0.00     0.052 A 
HETATM    4  C   UNL     1      26.328  44.869  50.309  1.00  0.00     0.060 A 
HETATM    5  C   UNL     1      27.563  44.252  50.859  1.00  0.00     0.281 C 
HETATM    6  N   UNL     1      27.244  43.118  51.827  1.00  0.00    -0.063 N 
HETATM    7  H   UNL     1      26.811  43.559  52.647  1.00  0.00     0.280 HD
HETATM    8  C   UNL     1      26.211  42.188  51.231  1.00  0.00     0.241 C 
HETATM    9  C   UNL     1      24.903  42.954  51.005  1.00  0.00     0.088 C 
HETATM   10  C   UNL     1      26.449  46.184  49.655  1.00  0.00     0.257 A 
HETATM   11  O   UNL     1      27.541  46.723  49.536  1.00  0.00    -0.267 OA
HETATM   12  N   UNL     1      25.281  46.723  49.211  1.00  0.00    -0.302 N 
HETATM   13  H   UNL     1      25.305  47.627  48.760  1.00  0.00     0.171 HD
ENDROOT
BRANCH   1  14
HETATM   14  S   UNL     1      22.742  46.974  48.754  1.00  0.00    -0.083 SA
BRANCH  14  15
HETATM   15  C   UNL     1      23.452  48.656  48.661  1.00  0.00     0.185 C 
BRANCH  15  16
HETATM   16  C   UNL     1      22.514  49.622  47.945  1.00  0.00     0.231 C 
HETATM   17  N   UNL     1      21.204  49.519  48.391  1.00  0.00    -0.326 N 
HETATM   18  H   UNL     1      21.106  49.055  49.288  1.00  0.00     0.169 HD
HETATM   19  O   UNL     1      22.938  50.394  47.089  1.00  0.00    -0.272 OA
BRANCH  17  20
HETATM   20  C   UNL     1      20.115  50.336  48.009  1.00  0.00     0.041 C 
HETATM   21  C   UNL     1      19.182  50.050  46.991  1.00  0.00    -0.029 C 
HETATM   22  C   UNL     1      18.233  51.045  46.632  1.00  0.00    -0.054 C 
HETATM   23  C   UNL     1      19.101  48.703  46.317  1.00  0.00     0.051 C 
HETATM   24  C   UNL     1      17.244  50.838  45.514  1.00  0.00     0.049 C 
HETATM   25  C   UNL     1      18.153  52.235  47.371  1.00  0.00     0.007 C 
HETATM   26  C   UNL     1      19.009  52.463  48.439  1.00  0.00     0.003 C 
HETATM   27  C   UNL     1      19.982  51.520  48.755  1.00  0.00     0.030 C 
ENDBRANCH  17  20
ENDBRANCH  15  16
ENDBRANCH  14  15
ENDBRANCH   1  14
BRANCH   6  28
HETATM   28  C   UNL     1      28.472  42.403  52.337  1.00  0.00     0.273 C 
BRANCH  28  29
HETATM   29  C   UNL     1      29.042  43.060  53.569  1.00  0.00    -0.030 A 
HETATM   30  C   UNL     1      28.292  44.021  54.270  1.00  0.00     0.048 A 
HETATM   31  C   UNL     1      28.893  44.673  55.326  1.00  0.00     0.105 A 
HETATM   32  C   UNL     1      30.176  44.388  55.720  1.00  0.00     0.105 A 
HETATM   33  O   UNL     1      28.326  45.658  56.070  1.00  0.00    -0.323 OA
HETATM   34  O   UNL     1      30.577  45.154  56.768  1.00  0.00    -0.323 OA
HETATM   35  C   UNL     1      30.930  43.427  55.084  1.00  0.00     0.040 A 
HETATM   36  C   UNL     1      29.407  45.971  56.979  1.00  0.00     0.352 A 
HETATM   37  C   UNL     1      30.358  42.760  53.995  1.00  0.00     0.012 A 
ENDBRANCH  28  29
ENDBRANCH   6  28
TORSDOF 6
ENDMDL
MODEL 9
REMARK VINA RESULT:      -9.8      2.483     11.709
REMARK  6 active torsions:
REMARK  status: ('A' for Active; 'I' for Inactive)
REMARK    1  A    between atoms: C_5  and  N_6 
REMARK       I    between atoms: N_6  and  C_7 
REMARK    2  A    between atoms: C_7  and  C_8 
REMARK    3  A    between atoms: C_8  and  S_9 
REMARK    4  A    between atoms: S_9  and  C_10 
REMARK    5  A    between atoms: N_15  and  C_17 
REMARK    6  A    between atoms: C_17  and  C_18 
ROOT
HETATM    1  C   UNL     1      24.619  47.784  49.574  1.00  0.00     0.169 A 
HETATM    2  N   UNL     1      24.248  46.935  50.467  1.00  0.00    -0.228 NA
HETATM    3  C   UNL     1      25.167  46.019  50.900  1.00  0.00     0.052 A 
HETATM    4  C   UNL     1      26.442  45.998  50.486  1.00  0.00     0.060 A 
HETATM    5  C   UNL     1      27.479  45.072  51.011  1.00  0.00     0.281 C 
HETATM    6  N   UNL     1      27.027  44.393  52.299  1.00  0.00    -0.063 N 
HETATM    7  H   UNL     1      26.985  45.133  53.010  1.00  0.00     0.280 HD
HETATM    8  C   UNL     1      25.623  43.849  52.147  1.00  0.00     0.241 C 
HETATM    9  C   UNL     1      24.651  45.006  51.896  1.00  0.00     0.088 C 
HETATM   10  C   UNL     1      26.853  46.985  49.471  1.00  0.00     0.257 A 
HETATM   11  O   UNL     1      28.002  47.005  49.050  1.00  0.00    -0.267 OA
HETATM   12  N   UNL     1      25.876  47.838  49.058  1.00  0.00    -0.302 N 
HETATM   13  H   UNL     1      26.104  48.539  48.367  1.00  0.00     0.171 HD
ENDROOT
BRANCH   1  14
HETATM   14  S   UNL     1      23.553  48.978  48.908  1.00  0.00    -0.083 SA
BRANCH  14  15
HETATM   15  C   UNL     1      22.249  47.911  48.201  1.00  0.00     0.185 C 
BRANCH  15  16
HETATM   16  C   UNL     1      20.867  48.534  48.360  1.00  0.00     0.231 C 
HETATM   17  N   UNL     1      20.772  49.779  47.754  1.00  0.00    -0.326 N 
HETATM   18  H   UNL     1      21.498  49.964  47.070  1.00  0.00     0.169 HD
HETATM   19  O   UNL     1      19.972  47.940  48.957  1.00  0.00    -0.272 OA
BRANCH  17  20
HETATM   20  C   UNL     1      19.608  50.572  47.630  1.00  0.00     0.041 C 
HETATM   21  C   UNL     1      19.016  51.339  48.656  1.00  0.00    -0.029 C 
HETATM   22  C   UNL     1      17.764  51.964  48.407  1.00  0.00    -0.054 C 
HETATM   23  C   UNL     1      19.692  51.586  49.981  1.00  0.00     0.051 C 
HETATM   24  C   UNL     1      17.039  52.748  49.471  1.00  0.00     0.049 C 
HETATM   25  C   UNL     1      17.200  51.918  47.123  1.00  0.00     0.007 C 
HETATM   26  C   UNL     1      17.844  51.247  46.093  1.00  0.00     0.003 C 
HETATM   27  C   UNL     1      19.038  50.579  46.346  1.00  0.00     0.030 C 
ENDBRANCH  17  20
ENDBRANCH  15  16
ENDBRANCH  14  15
ENDBRANCH   1  14
BRANCH   6  28
HETATM   28  C   UNL     1      28.012  43.374  52.817  1.00  0.00     0.273 C 
BRANCH  28  29
HETATM   29  C   UNL     1      28.812  43.896  53.983  1.00  0.00    -0.030 A 
HETATM   30  C   UNL     1      29.849  43.122  54.534  1.00  0.00     0.048 A 
HETATM   31  C   UNL     1      30.482  43.591  55.666  1.00  0.00     0.105 A 
HETATM   32  C   UNL     1      30.148  44.791  56.239  1.00  0.00     0.105 A 
HETATM   33  O   UNL     1      31.463  42.943  56.345  1.00  0.00    -0.323 OA
HETATM   34  O   UNL     1      30.882  45.054  57.352  1.00  0.00    -0.323 OA
HETATM   35  C   UNL     1      29.164  45.596  55.709  1.00  0.00     0.040 A 
HETATM   36  C   UNL     1      31.706  43.872  57.426  1.00  0.00     0.352 A 
HETATM   37  C   UNL     1      28.488  45.142  54.572  1.00  0.00     0.012 A 
ENDBRANCH  28  29
ENDBRANCH   6  28
TORSDOF 6
ENDMDL
MODEL 10
REMARK VINA RESULT:      -9.7      2.586      3.932
REMARK  6 active torsions:
REMARK  status: ('A' for Active; 'I' for Inactive)
REMARK    1  A    between atoms: C_5  and  N_6 
REMARK       I    between atoms: N_6  and  C_7 
REMARK    2  A    between atoms: C_7  and  C_8 
REMARK    3  A    between atoms: C_8  and  S_9 
REMARK    4  A    between atoms: S_9  and  C_10 
REMARK    5  A    between atoms: N_15  and  C_17 
REMARK    6  A    between atoms: C_17  and  C_18 
ROOT
HETATM    1  C   UNL     1      25.390  41.604  50.178  1.00  0.00     0.169 A 
HETATM    2  N   UNL     1      24.972  41.673  48.962  1.00  0.00    -0.228 NA
HETATM    3  C   UNL     1      24.130  42.697  48.631  1.00  0.00     0.052 A 
HETATM    4  C   UNL     1      23.764  43.661  49.490  1.00  0.00     0.060 A 
HETATM    5  C   UNL     1      22.924  44.831  49.127  1.00  0.00     0.281 C 
HETATM    6  N   UNL     1      22.814  44.999  47.615  1.00  0.00    -0.063 N 
HETATM    7  H   UNL     1      23.752  45.267  47.291  1.00  0.00     0.280 HD
HETATM    8  C   UNL     1      22.483  43.678  46.958  1.00  0.00     0.241 C 
HETATM    9  C   UNL     1      23.620  42.682  47.208  1.00  0.00     0.088 C 
HETATM   10  C   UNL     1      24.259  43.573  50.875  1.00  0.00     0.257 A 
HETATM   11  O   UNL     1      23.948  44.418  51.703  1.00  0.00    -0.267 OA
HETATM   12  N   UNL     1      25.061  42.505  51.141  1.00  0.00    -0.302 N 
HETATM   13  H   UNL     1      25.433  42.399  52.074  1.00  0.00     0.171 HD
ENDROOT
BRANCH   1  14
HETATM   14  S   UNL     1      26.432  40.342  50.747  1.00  0.00    -0.083 SA
BRANCH  14  15
HETATM   15  C   UNL     1      28.009  41.252  50.910  1.00  0.00     0.185 C 
BRANCH  15  16
HETATM   16  C   UNL     1      28.282  41.645  52.359  1.00  0.00     0.231 C 
HETATM   17  N   UNL     1      28.892  42.886  52.466  1.00  0.00    -0.326 N 
HETATM   18  H   UNL     1      28.808  43.464  51.636  1.00  0.00     0.169 HD
HETATM   19  O   UNL     1      27.956  40.906  53.284  1.00  0.00    -0.272 OA
BRANCH  17  20
HETATM   20  C   UNL     1      29.185  43.583  53.662  1.00  0.00     0.041 C 
HETATM   21  C   UNL     1      28.441  44.655  54.198  1.00  0.00    -0.029 C 
HETATM   22  C   UNL     1      28.953  45.343  55.331  1.00  0.00    -0.054 C 
HETATM   23  C   UNL     1      27.089  45.056  53.664  1.00  0.00     0.051 C 
HETATM   24  C   UNL     1      28.249  46.537  55.924  1.00  0.00     0.049 C 
HETATM   25  C   UNL     1      30.110  44.874  55.973  1.00  0.00     0.007 C 
HETATM   26  C   UNL     1      30.776  43.753  55.498  1.00  0.00     0.003 C 
HETATM   27  C   UNL     1      30.316  43.114  54.350  1.00  0.00     0.030 C 
ENDBRANCH  17  20
ENDBRANCH  15  16
ENDBRANCH  14  15
ENDBRANCH   1  14
BRANCH   6  28
HETATM   28  C   UNL     1      21.894  46.122  47.203  1.00  0.00     0.273 C 
BRANCH  28  29
HETATM   29  C   UNL     1      22.055  47.340  48.076  1.00  0.00    -0.030 A 
HETATM   30  C   UNL     1      20.922  47.997  48.591  1.00  0.00     0.048 A 
HETATM   31  C   UNL     1      21.112  49.167  49.295  1.00  0.00     0.105 A 
HETATM   32  C   UNL     1      22.362  49.681  49.527  1.00  0.00     0.105 A 
HETATM   33  O   UNL     1      20.124  49.944  49.812  1.00  0.00    -0.323 OA
HETATM   34  O   UNL     1      22.321  50.845  50.225  1.00  0.00    -0.323 OA
HETATM   35  C   UNL     1      23.498  49.049  49.073  1.00  0.00     0.040 A 
HETATM   36  C   UNL     1      20.899  51.019  50.391  1.00  0.00     0.352 A 
HETATM   37  C   UNL     1      23.342  47.869  48.337  1.00  0.00     0.012 A 
ENDBRANCH  28  29
ENDBRANCH   6  28
TORSDOF 6
ENDMDL
