MODEL 1
REMARK VINA RESULT:      -8.9      0.000      0.000
REMARK  8 active torsions:
REMARK  status: ('A' for Active; 'I' for Inactive)
REMARK    1  A    between atoms: O_2  and  C_3 
REMARK    2  A    between atoms: C_4  and  O_5 
REMARK    3  A    between atoms: C_6  and  O_7 
REMARK    4  A    between atoms: C_10  and  C_11 
REMARK    5  A    between atoms: C_11  and  N_12 
REMARK    6  A    between atoms: C_16  and  C_17 
REMARK       I    between atoms: C_17  and  N_18 
REMARK    7  A    between atoms: N_21  and  C_23 
REMARK    8  A    between atoms: C_23  and  C_24 
ROOT
HETATM    1  N   UNL     1      25.126  48.189  49.199  1.00  0.00    -0.067 N 
HETATM    2  H   UNL     1      25.546  47.658  48.423  1.00  0.00     0.280 HD
HETATM    3  C   UNL     1      23.686  47.761  49.318  1.00  0.00     0.236 C 
HETATM    4  C   UNL     1      22.900  48.160  48.069  1.00  0.00     0.042 C 
HETATM    5  C   UNL     1      22.981  49.662  47.788  1.00  0.00     0.081 C 
HETATM    6  C   UNL     1      24.454  50.091  47.716  1.00  0.00     0.042 C 
HETATM    7  C   UNL     1      25.301  49.659  48.907  1.00  0.00     0.236 C 
ENDROOT
BRANCH   5   8
HETATM    8  C   UNL     1      22.208  50.419  48.873  1.00  0.00     0.224 C 
HETATM    9  N   UNL     1      20.815  50.480  48.810  1.00  0.00    -0.349 N 
HETATM   10  C   UNL     1      20.168  51.188  49.927  1.00  0.00     0.153 C 
HETATM   11  C   UNL     1      20.078  50.515  47.536  1.00  0.00     0.153 C 
HETATM   12  C   UNL     1      18.685  50.843  50.097  1.00  0.00     0.255 C 
HETATM   13  N   UNL     1      17.942  51.060  48.789  1.00  0.00    -0.064 N 
HETATM   14  H   UNL     1      18.024  52.059  48.553  1.00  0.00     0.280 HD
HETATM   15  C   UNL     1      18.566  50.239  47.675  1.00  0.00     0.255 C 
HETATM   16  O   UNL     1      22.814  50.835  49.862  1.00  0.00    -0.273 OA
BRANCH  13  17
HETATM   17  C   UNL     1      16.451  50.778  48.896  1.00  0.00     0.273 C 
BRANCH  17  18
HETATM   18  C   UNL     1      15.610  52.017  49.052  1.00  0.00    -0.030 A 
HETATM   19  C   UNL     1      15.300  52.796  47.921  1.00  0.00     0.048 A 
HETATM   20  C   UNL     1      14.483  53.892  48.089  1.00  0.00     0.105 A 
HETATM   21  C   UNL     1      13.978  54.240  49.317  1.00  0.00     0.105 A 
HETATM   22  O   UNL     1      14.075  54.730  47.101  1.00  0.00    -0.323 OA
HETATM   23  O   UNL     1      13.192  55.345  49.258  1.00  0.00    -0.323 OA
HETATM   24  C   UNL     1      14.266  53.510  50.449  1.00  0.00     0.040 A 
HETATM   25  C   UNL     1      13.285  55.680  47.856  1.00  0.00     0.352 A 
HETATM   26  C   UNL     1      15.090  52.387  50.314  1.00  0.00     0.012 A 
ENDBRANCH  17  18
ENDBRANCH  13  17
ENDBRANCH   5   8
BRANCH   1  27
HETATM   27  C   UNL     1      25.939  47.826  50.439  1.00  0.00     0.273 C 
BRANCH  27  28
HETATM   28  C   UNL     1      25.923  46.359  50.765  1.00  0.00    -0.027 A 
HETATM   29  C   UNL     1      25.259  45.905  51.911  1.00  0.00     0.048 A 
HETATM   30  C   UNL     1      25.263  44.551  52.229  1.00  0.00     0.104 A 
HETATM   31  C   UNL     1      25.954  43.645  51.426  1.00  0.00     0.133 A 
HETATM   32  C   UNL     1      26.624  44.073  50.275  1.00  0.00     0.104 A 
HETATM   33  C   UNL     1      26.600  45.431  49.945  1.00  0.00     0.048 A 
BRANCH  30  34
HETATM   34  O   UNL     1      24.648  44.154  53.384  1.00  0.00    -0.353 OA
HETATM   35  C   UNL     1      25.497  44.397  54.507  1.00  0.00     0.210 C 
ENDBRANCH  30  34
BRANCH  31  36
HETATM   36  O   UNL     1      25.972  42.318  51.769  1.00  0.00    -0.356 OA
HETATM   37  H   UNL     1      26.236  42.281  52.709  1.00  0.00     0.218 HD
ENDBRANCH  31  36
BRANCH  32  38
HETATM   38  O   UNL     1      27.268  43.086  49.578  1.00  0.00    -0.353 OA
HETATM   39  C   UNL     1      26.491  42.287  48.695  1.00  0.00     0.210 C 
ENDBRANCH  32  38
ENDBRANCH  27  28
ENDBRANCH   1  27
TORSDOF 8
ENDMDL
MODEL 2
REMARK VINA RESULT:      -8.8      4.399     12.035
REMARK  8 active torsions:
REMARK  status: ('A' for Active; 'I' for Inactive)
REMARK    1  A    between atoms: O_2  and  C_3 
REMARK    2  A    between atoms: C_4  and  O_5 
REMARK    3  A    between atoms: C_6  and  O_7 
REMARK    4  A    between atoms: C_10  and  C_11 
REMARK    5  A    between atoms: C_11  and  N_12 
REMARK    6  A    between atoms: C_16  and  C_17 
REMARK       I    between atoms: C_17  and  N_18 
REMARK    7  A    between atoms: N_21  and  C_23 
REMARK    8  A    between atoms: C_23  and  C_24 
ROOT
HETATM    1  N   UNL     1      21.540  45.263  47.399  1.00  0.00    -0.067 N 
HETATM    2  H   UNL     1      20.915  44.545  47.007  1.00  0.00     0.280 HD
HETATM    3  C   UNL     1      22.914  45.034  46.824  1.00  0.00     0.236 C 
HETATM    4  C   UNL     1      23.478  43.692  47.292  1.00  0.00     0.042 C 
HETATM    5  C   UNL     1      23.520  43.582  48.818  1.00  0.00     0.081 C 
HETATM    6  C   UNL     1      22.124  43.864  49.391  1.00  0.00     0.042 C 
HETATM    7  C   UNL     1      21.485  45.159  48.903  1.00  0.00     0.236 C 
ENDROOT
BRANCH   5   8
HETATM    8  C   UNL     1      24.577  44.548  49.363  1.00  0.00     0.224 C 
HETATM    9  N   UNL     1      25.607  44.059  50.168  1.00  0.00    -0.349 N 
HETATM   10  C   UNL     1      26.597  45.061  50.597  1.00  0.00     0.153 C 
HETATM   11  C   UNL     1      25.425  42.925  51.089  1.00  0.00     0.153 C 
HETATM   12  C   UNL     1      27.929  44.454  51.052  1.00  0.00     0.255 C 
HETATM   13  N   UNL     1      27.688  43.406  52.128  1.00  0.00    -0.064 N 
HETATM   14  H   UNL     1      27.252  43.885  52.927  1.00  0.00     0.280 HD
HETATM   15  C   UNL     1      26.744  42.329  51.624  1.00  0.00     0.255 C 
HETATM   16  O   UNL     1      24.589  45.714  48.962  1.00  0.00    -0.273 OA
BRANCH  13  17
HETATM   17  C   UNL     1      28.974  42.792  52.659  1.00  0.00     0.273 C 
BRANCH  17  18
HETATM   18  C   UNL     1      29.467  43.426  53.932  1.00  0.00    -0.030 A 
HETATM   19  C   UNL     1      28.740  44.483  54.511  1.00  0.00     0.048 A 
HETATM   20  C   UNL     1      29.188  45.004  55.705  1.00  0.00     0.105 A 
HETATM   21  C   UNL     1      30.315  44.528  56.327  1.00  0.00     0.105 A 
HETATM   22  O   UNL     1      28.593  46.007  56.401  1.00  0.00    -0.323 OA
HETATM   23  O   UNL     1      30.575  45.176  57.492  1.00  0.00    -0.323 OA
HETATM   24  C   UNL     1      31.060  43.504  55.787  1.00  0.00     0.040 A 
HETATM   25  C   UNL     1      29.501  46.142  57.520  1.00  0.00     0.352 A 
HETATM   26  C   UNL     1      30.631  42.947  54.577  1.00  0.00     0.012 A 
ENDBRANCH  17  18
ENDBRANCH  13  17
ENDBRANCH   5   8
BRANCH   1  27
HETATM   27  C   UNL     1      20.953  46.605  46.969  1.00  0.00     0.273 C 
BRANCH  27  28
HETATM   28  C   UNL     1      21.208  47.718  47.946  1.00  0.00    -0.027 A 
HETATM   29  C   UNL     1      20.155  48.225  48.718  1.00  0.00     0.048 A 
HETATM   30  C   UNL     1      20.382  49.271  49.606  1.00  0.00     0.104 A 
HETATM   31  C   UNL     1      21.650  49.841  49.708  1.00  0.00     0.133 A 
HETATM   32  C   UNL     1      22.719  49.351  48.949  1.00  0.00     0.104 A 
HETATM   33  C   UNL     1      22.494  48.285  48.074  1.00  0.00     0.048 A 
BRANCH  30  34
HETATM   34  O   UNL     1      19.318  49.772  50.303  1.00  0.00    -0.353 OA
HETATM   35  C   UNL     1      18.681  48.734  51.050  1.00  0.00     0.210 C 
ENDBRANCH  30  34
BRANCH  31  36
HETATM   36  O   UNL     1      21.851  50.889  50.566  1.00  0.00    -0.356 OA
HETATM   37  H   UNL     1      21.265  50.734  51.333  1.00  0.00     0.218 HD
ENDBRANCH  31  36
BRANCH  32  38
HETATM   38  O   UNL     1      23.909  50.001  49.138  1.00  0.00    -0.353 OA
HETATM   39  C   UNL     1      25.098  49.328  48.742  1.00  0.00     0.210 C 
ENDBRANCH  32  38
ENDBRANCH  27  28
ENDBRANCH   1  27
TORSDOF 8
ENDMDL
MODEL 3
REMARK VINA RESULT:      -8.8      3.572      5.927
REMARK  8 active torsions:
REMARK  status: ('A' for Active; 'I' for Inactive)
REMARK    1  A    between atoms: O_2  and  C_3 
REMARK    2  A    between atoms: C_4  and  O_5 
REMARK    3  A    between atoms: C_6  and  O_7 
REMARK    4  A    between atoms: C_10  and  C_11 
REMARK    5  A    between atoms: C_11  and  N_12 
REMARK    6  A    between atoms: C_16  and  C_17 
REMARK       I    between atoms: C_17  and  N_18 
REMARK    7  A    between atoms: N_21  and  C_23 
REMARK    8  A    between atoms: C_23  and  C_24 
ROOT
HETATM    1  N   UNL     1      27.230  44.523  52.032  1.00  0.00    -0.067 N 
HETATM    2  H   UNL     1      28.135  45.001  51.921  1.00  0.00     0.280 HD
HETATM    3  C   UNL     1      27.000  43.689  50.798  1.00  0.00     0.236 C 
HETATM    4  C   UNL     1      26.848  44.581  49.566  1.00  0.00     0.042 C 
HETATM    5  C   UNL     1      25.724  45.605  49.726  1.00  0.00     0.081 C 
HETATM    6  C   UNL     1      25.946  46.415  51.012  1.00  0.00     0.042 C 
HETATM    7  C   UNL     1      26.172  45.573  52.262  1.00  0.00     0.236 C 
ENDROOT
BRANCH   5   8
HETATM    8  C   UNL     1      24.376  44.877  49.726  1.00  0.00     0.224 C 
HETATM    9  N   UNL     1      23.261  45.490  49.151  1.00  0.00    -0.349 N 
HETATM   10  C   UNL     1      22.029  44.685  49.159  1.00  0.00     0.153 C 
HETATM   11  C   UNL     1      23.057  46.948  49.175  1.00  0.00     0.153 C 
HETATM   12  C   UNL     1      20.985  45.148  48.136  1.00  0.00     0.255 C 
HETATM   13  N   UNL     1      20.690  46.629  48.321  1.00  0.00    -0.064 N 
HETATM   14  H   UNL     1      20.302  46.746  49.267  1.00  0.00     0.280 HD
HETATM   15  C   UNL     1      21.964  47.447  48.206  1.00  0.00     0.255 C 
HETATM   16  O   UNL     1      24.327  43.703  50.098  1.00  0.00    -0.273 OA
BRANCH  13  17
HETATM   17  C   UNL     1      19.627  47.148  47.365  1.00  0.00     0.273 C 
BRANCH  17  18
HETATM   18  C   UNL     1      19.221  48.573  47.628  1.00  0.00    -0.030 A 
HETATM   19  C   UNL     1      18.707  48.931  48.888  1.00  0.00     0.048 A 
HETATM   20  C   UNL     1      18.397  50.254  49.115  1.00  0.00     0.105 A 
HETATM   21  C   UNL     1      18.570  51.215  48.150  1.00  0.00     0.105 A 
HETATM   22  O   UNL     1      17.914  50.764  50.277  1.00  0.00    -0.323 OA
HETATM   23  O   UNL     1      18.210  52.451  48.582  1.00  0.00    -0.323 OA
HETATM   24  C   UNL     1      19.060  50.904  46.901  1.00  0.00     0.040 A 
HETATM   25  C   UNL     1      17.757  52.158  49.921  1.00  0.00     0.352 A 
HETATM   26  C   UNL     1      19.390  49.570  46.638  1.00  0.00     0.012 A 
ENDBRANCH  17  18
ENDBRANCH  13  17
ENDBRANCH   5   8
BRANCH   1  27
HETATM   27  C   UNL     1      27.365  43.666  53.288  1.00  0.00     0.273 C 
BRANCH  27  28
HETATM   28  C   UNL     1      28.155  44.322  54.386  1.00  0.00    -0.027 A 
HETATM   29  C   UNL     1      27.639  45.446  55.043  1.00  0.00     0.048 A 
HETATM   30  C   UNL     1      28.378  46.070  56.043  1.00  0.00     0.104 A 
HETATM   31  C   UNL     1      29.648  45.598  56.373  1.00  0.00     0.133 A 
HETATM   32  C   UNL     1      30.184  44.476  55.733  1.00  0.00     0.104 A 
HETATM   33  C   UNL     1      29.431  43.838  54.744  1.00  0.00     0.048 A 
BRANCH  30  34
HETATM   34  O   UNL     1      27.863  47.195  56.623  1.00  0.00    -0.353 OA
HETATM   35  C   UNL     1      26.994  47.870  55.712  1.00  0.00     0.210 C 
ENDBRANCH  30  34
BRANCH  31  36
HETATM   36  O   UNL     1      30.374  46.241  57.340  1.00  0.00    -0.356 OA
HETATM   37  H   UNL     1      30.906  45.554  57.787  1.00  0.00     0.218 HD
ENDBRANCH  31  36
BRANCH  32  38
HETATM   38  O   UNL     1      31.440  44.120  56.144  1.00  0.00    -0.353 OA
HETATM   39  C   UNL     1      31.546  43.126  57.157  1.00  0.00     0.210 C 
ENDBRANCH  32  38
ENDBRANCH  27  28
ENDBRANCH   1  27
TORSDOF 8
ENDMDL
MODEL 4
REMARK VINA RESULT:      -8.8      3.641      6.459
REMARK  8 active torsions:
REMARK  status: ('A' for Active; 'I' for Inactive)
REMARK    1  A    between atoms: O_2  and  C_3 
REMARK    2  A    between atoms: C_4  and  O_5 
REMARK    3  A    between atoms: C_6  and  O_7 
REMARK    4  A    between atoms: C_10  and  C_11 
REMARK    5  A    between atoms: C_11  and  N_12 
REMARK    6  A    between atoms: C_16  and  C_17 
REMARK       I    between atoms: C_17  and  N_18 
REMARK    7  A    between atoms: N_21  and  C_23 
REMARK    8  A    between atoms: C_23  and  C_24 
ROOT
HETATM    1  N   UNL     1      27.602  43.437  51.931  1.00  0.00    -0.067 N 
HETATM    2  H   UNL     1      28.559  43.653  51.620  1.00  0.00     0.280 HD
HETATM    3  C   UNL     1      27.020  42.443  50.959  1.00  0.00     0.236 C 
HETATM    4  C   UNL     1      26.873  43.067  49.572  1.00  0.00     0.042 C 
HETATM    5  C   UNL     1      26.024  44.340  49.595  1.00  0.00     0.081 C 
HETATM    6  C   UNL     1      26.603  45.323  50.623  1.00  0.00     0.042 C 
HETATM    7  C   UNL     1      26.833  44.733  52.009  1.00  0.00     0.236 C 
ENDROOT
BRANCH   5   8
HETATM    8  C   UNL     1      24.570  43.969  49.902  1.00  0.00     0.224 C 
HETATM    9  N   UNL     1      23.536  44.749  49.381  1.00  0.00    -0.349 N 
HETATM   10  C   UNL     1      22.177  44.277  49.695  1.00  0.00     0.153 C 
HETATM   11  C   UNL     1      23.662  46.201  49.176  1.00  0.00     0.153 C 
HETATM   12  C   UNL     1      21.101  44.833  48.755  1.00  0.00     0.255 C 
HETATM   13  N   UNL     1      21.174  46.351  48.714  1.00  0.00    -0.064 N 
HETATM   14  H   UNL     1      20.988  46.691  49.667  1.00  0.00     0.280 HD
HETATM   15  C   UNL     1      22.556  46.811  48.289  1.00  0.00     0.255 C 
HETATM   16  O   UNL     1      24.330  42.906  50.478  1.00  0.00    -0.273 OA
BRANCH  13  17
HETATM   17  C   UNL     1      20.103  46.975  47.832  1.00  0.00     0.273 C 
BRANCH  17  18
HETATM   18  C   UNL     1      19.879  48.440  48.096  1.00  0.00    -0.030 A 
HETATM   19  C   UNL     1      18.793  48.847  48.893  1.00  0.00     0.048 A 
HETATM   20  C   UNL     1      18.649  50.191  49.162  1.00  0.00     0.105 A 
HETATM   21  C   UNL     1      19.523  51.127  48.670  1.00  0.00     0.105 A 
HETATM   22  O   UNL     1      17.671  50.742  49.927  1.00  0.00    -0.323 OA
HETATM   23  O   UNL     1      19.203  52.387  49.059  1.00  0.00    -0.323 OA
HETATM   24  C   UNL     1      20.592  50.770  47.877  1.00  0.00     0.040 A 
HETATM   25  C   UNL     1      18.003  52.147  49.826  1.00  0.00     0.352 A 
HETATM   26  C   UNL     1      20.771  49.413  47.588  1.00  0.00     0.012 A 
ENDBRANCH  17  18
ENDBRANCH  13  17
ENDBRANCH   5   8
BRANCH   1  27
HETATM   27  C   UNL     1      27.743  42.855  53.334  1.00  0.00     0.273 C 
BRANCH  27  28
HETATM   28  C   UNL     1      28.448  43.766  54.300  1.00  0.00    -0.027 A 
HETATM   29  C   UNL     1      29.745  43.458  54.731  1.00  0.00     0.048 A 
HETATM   30  C   UNL     1      30.391  44.286  55.643  1.00  0.00     0.104 A 
HETATM   31  C   UNL     1      29.740  45.406  56.156  1.00  0.00     0.133 A 
HETATM   32  C   UNL     1      28.445  45.736  55.740  1.00  0.00     0.104 A 
HETATM   33  C   UNL     1      27.806  44.915  54.807  1.00  0.00     0.048 A 
BRANCH  30  34
HETATM   34  O   UNL     1      31.635  43.923  56.079  1.00  0.00    -0.353 OA
HETATM   35  C   UNL     1      31.534  43.123  57.258  1.00  0.00     0.210 C 
ENDBRANCH  30  34
BRANCH  31  36
HETATM   36  O   UNL     1      30.379  46.195  57.075  1.00  0.00    -0.356 OA
HETATM   37  H   UNL     1      31.271  45.814  57.192  1.00  0.00     0.218 HD
ENDBRANCH  31  36
BRANCH  32  38
HETATM   38  O   UNL     1      27.917  46.856  56.323  1.00  0.00    -0.353 OA
HETATM   39  C   UNL     1      27.139  47.721  55.505  1.00  0.00     0.210 C 
ENDBRANCH  32  38
ENDBRANCH  27  28
ENDBRANCH   1  27
TORSDOF 8
ENDMDL
MODEL 5
REMARK VINA RESULT:      -8.8      3.341      6.525
REMARK  8 active torsions:
REMARK  status: ('A' for Active; 'I' for Inactive)
REMARK    1  A    between atoms: O_2  and  C_3 
REMARK    2  A    between atoms: C_4  and  O_5 
REMARK    3  A    between atoms: C_6  and  O_7 
REMARK    4  A    between atoms: C_10  and  C_11 
REMARK    5  A    between atoms: C_11  and  N_12 
REMARK    6  A    between atoms: C_16  and  C_17 
REMARK       I    between atoms: C_17  and  N_18 
REMARK    7  A    between atoms: N_21  and  C_23 
REMARK    8  A    between atoms: C_23  and  C_24 
ROOT
HETATM    1  N   UNL     1      27.432  43.087  52.180  1.00  0.00    -0.067 N 
HETATM    2  H   UNL     1      28.360  42.696  51.967  1.00  0.00     0.280 HD
HETATM    3  C   UNL     1      26.420  42.343  51.347  1.00  0.00     0.236 C 
HETATM    4  C   UNL     1      26.649  42.606  49.859  1.00  0.00     0.042 C 
HETATM    5  C   UNL     1      26.614  44.097  49.521  1.00  0.00     0.081 C 
HETATM    6  C   UNL     1      27.616  44.848  50.410  1.00  0.00     0.042 C 
HETATM    7  C   UNL     1      27.476  44.570  51.902  1.00  0.00     0.236 C 
ENDROOT
BRANCH   5   8
HETATM    8  C   UNL     1      25.183  44.618  49.692  1.00  0.00     0.224 C 
HETATM    9  N   UNL     1      24.910  45.968  49.463  1.00  0.00    -0.349 N 
HETATM   10  C   UNL     1      23.496  46.354  49.606  1.00  0.00     0.153 C 
HETATM   11  C   UNL     1      25.882  47.035  49.750  1.00  0.00     0.153 C 
HETATM   12  C   UNL     1      23.145  47.672  48.907  1.00  0.00     0.255 C 
HETATM   13  N   UNL     1      24.079  48.778  49.372  1.00  0.00    -0.064 N 
HETATM   14  H   UNL     1      23.936  48.892  50.384  1.00  0.00     0.280 HD
HETATM   15  C   UNL     1      25.527  48.398  49.119  1.00  0.00     0.255 C 
HETATM   16  O   UNL     1      24.270  43.813  49.884  1.00  0.00    -0.273 OA
BRANCH  13  17
HETATM   17  C   UNL     1      23.759  50.128  48.750  1.00  0.00     0.273 C 
BRANCH  17  18
HETATM   18  C   UNL     1      22.299  50.488  48.802  1.00  0.00    -0.030 A 
HETATM   19  C   UNL     1      21.526  50.438  47.627  1.00  0.00     0.048 A 
HETATM   20  C   UNL     1      20.180  50.719  47.719  1.00  0.00     0.105 A 
HETATM   21  C   UNL     1      19.588  51.050  48.912  1.00  0.00     0.105 A 
HETATM   22  O   UNL     1      19.297  50.695  46.688  1.00  0.00    -0.323 OA
HETATM   23  O   UNL     1      18.257  51.281  48.781  1.00  0.00    -0.323 OA
HETATM   24  C   UNL     1      20.312  51.121  50.082  1.00  0.00     0.040 A 
HETATM   25  C   UNL     1      18.079  51.093  47.360  1.00  0.00     0.352 A 
HETATM   26  C   UNL     1      21.681  50.836  50.026  1.00  0.00     0.012 A 
ENDBRANCH  17  18
ENDBRANCH  13  17
ENDBRANCH   5   8
BRANCH   1  27
HETATM   27  C   UNL     1      27.221  42.866  53.675  1.00  0.00     0.273 C 
BRANCH  27  28
HETATM   28  C   UNL     1      28.068  43.753  54.544  1.00  0.00    -0.027 A 
HETATM   29  C   UNL     1      27.559  44.975  55.001  1.00  0.00     0.048 A 
HETATM   30  C   UNL     1      28.349  45.809  55.785  1.00  0.00     0.104 A 
HETATM   31  C   UNL     1      29.660  45.447  56.093  1.00  0.00     0.133 A 
HETATM   32  C   UNL     1      30.190  44.231  55.650  1.00  0.00     0.104 A 
HETATM   33  C   UNL     1      29.388  43.384  54.881  1.00  0.00     0.048 A 
BRANCH  30  34
HETATM   34  O   UNL     1      27.836  47.017  56.168  1.00  0.00    -0.353 OA
HETATM   35  C   UNL     1      26.916  47.498  55.186  1.00  0.00     0.210 C 
ENDBRANCH  30  34
BRANCH  31  36
HETATM   36  O   UNL     1      30.434  46.293  56.843  1.00  0.00    -0.356 OA
HETATM   37  H   UNL     1      31.354  45.976  56.754  1.00  0.00     0.218 HD
ENDBRANCH  31  36
BRANCH  32  38
HETATM   38  O   UNL     1      31.489  43.998  56.015  1.00  0.00    -0.353 OA
HETATM   39  C   UNL     1      31.718  43.145  57.130  1.00  0.00     0.210 C 
ENDBRANCH  32  38
ENDBRANCH  27  28
ENDBRANCH   1  27
TORSDOF 8
ENDMDL
MODEL 6
REMARK VINA RESULT:      -8.7      3.061      4.711
REMARK  8 active torsions:
REMARK  status: ('A' for Active; 'I' for Inactive)
REMARK    1  A    between atoms: O_2  and  C_3 
REMARK    2  A    between atoms: C_4  and  O_5 
REMARK    3  A    between atoms: C_6  and  O_7 
REMARK    4  A    between atoms: C_10  and  C_11 
REMARK    5  A    between atoms: C_11  and  N_12 
REMARK    6  A    between atoms: C_16  and  C_17 
REMARK       I    between atoms: C_17  and  N_18 
REMARK    7  A    between atoms: N_21  and  C_23 
REMARK    8  A    between atoms: C_23  and  C_24 
ROOT
HETATM    1  N   UNL     1      25.186  44.313  51.575  1.00  0.00    -0.067 N 
HETATM    2  H   UNL     1      26.191  44.224  51.370  1.00  0.00     0.280 HD
HETATM    3  C   UNL     1      24.475  43.190  50.865  1.00  0.00     0.236 C 
HETATM    4  C   UNL     1      24.604  43.342  49.349  1.00  0.00     0.042 C 
HETATM    5  C   UNL     1      24.080  44.692  48.855  1.00  0.00     0.081 C 
HETATM    6  C   UNL     1      24.780  45.824  49.621  1.00  0.00     0.042 C 
HETATM    7  C   UNL     1      24.740  45.686  51.138  1.00  0.00     0.236 C 
ENDROOT
BRANCH   5   8
HETATM    8  C   UNL     1      22.558  44.733  49.023  1.00  0.00     0.224 C 
HETATM    9  N   UNL     1      21.836  45.809  48.504  1.00  0.00    -0.349 N 
HETATM   10  C   UNL     1      20.377  45.726  48.675  1.00  0.00     0.153 C 
HETATM   11  C   UNL     1      22.383  47.175  48.441  1.00  0.00     0.153 C 
HETATM   12  C   UNL     1      19.592  46.629  47.716  1.00  0.00     0.255 C 
HETATM   13  N   UNL     1      20.090  48.062  47.819  1.00  0.00    -0.064 N 
HETATM   14  H   UNL     1      19.918  48.376  48.783  1.00  0.00     0.280 HD
HETATM   15  C   UNL     1      21.580  48.134  47.536  1.00  0.00     0.255 C 
HETATM   16  O   UNL     1      21.977  43.747  49.482  1.00  0.00    -0.273 OA
BRANCH  13  17
HETATM   17  C   UNL     1      19.324  49.024  46.923  1.00  0.00     0.273 C 
BRANCH  17  18
HETATM   18  C   UNL     1      18.721  50.188  47.662  1.00  0.00    -0.030 A 
HETATM   19  C   UNL     1      17.354  50.169  47.996  1.00  0.00     0.048 A 
HETATM   20  C   UNL     1      16.845  51.224  48.721  1.00  0.00     0.105 A 
HETATM   21  C   UNL     1      17.629  52.282  49.110  1.00  0.00     0.105 A 
HETATM   22  O   UNL     1      15.559  51.347  49.138  1.00  0.00    -0.323 OA
HETATM   23  O   UNL     1      16.932  53.207  49.818  1.00  0.00    -0.323 OA
HETATM   24  C   UNL     1      18.968  52.343  48.793  1.00  0.00     0.040 A 
HETATM   25  C   UNL     1      15.607  52.631  49.803  1.00  0.00     0.352 A 
HETATM   26  C   UNL     1      19.519  51.285  48.062  1.00  0.00     0.012 A 
ENDBRANCH  17  18
ENDBRANCH  13  17
ENDBRANCH   5   8
BRANCH   1  27
HETATM   27  C   UNL     1      25.060  44.205  53.092  1.00  0.00     0.273 C 
BRANCH  27  28
HETATM   28  C   UNL     1      26.352  44.438  53.824  1.00  0.00    -0.027 A 
HETATM   29  C   UNL     1      26.552  45.636  54.523  1.00  0.00     0.048 A 
HETATM   30  C   UNL     1      27.755  45.865  55.182  1.00  0.00     0.104 A 
HETATM   31  C   UNL     1      28.778  44.919  55.124  1.00  0.00     0.133 A 
HETATM   32  C   UNL     1      28.601  43.715  54.434  1.00  0.00     0.104 A 
HETATM   33  C   UNL     1      27.383  43.477  53.791  1.00  0.00     0.048 A 
BRANCH  30  34
HETATM   34  O   UNL     1      27.932  47.067  55.808  1.00  0.00    -0.353 OA
HETATM   35  C   UNL     1      26.987  48.023  55.324  1.00  0.00     0.210 C 
ENDBRANCH  30  34
BRANCH  31  36
HETATM   36  O   UNL     1      29.967  45.173  55.754  1.00  0.00    -0.356 OA
HETATM   37  H   UNL     1      29.752  45.327  56.695  1.00  0.00     0.218 HD
ENDBRANCH  31  36
BRANCH  32  38
HETATM   38  O   UNL     1      29.682  42.875  54.448  1.00  0.00    -0.353 OA
HETATM   39  C   UNL     1      30.400  42.703  53.232  1.00  0.00     0.210 C 
ENDBRANCH  32  38
ENDBRANCH  27  28
ENDBRANCH   1  27
TORSDOF 8
ENDMDL
MODEL 7
REMARK VINA RESULT:      -8.7      3.238      4.937
REMARK  8 active torsions:
REMARK  status: ('A' for Active; 'I' for Inactive)
REMARK    1  A    between atoms: O_2  and  C_3 
REMARK    2  A    between atoms: C_4  and  O_5 
REMARK    3  A    between atoms: C_6  and  O_7 
REMARK    4  A    between atoms: C_10  and  C_11 
REMARK    5  A    between atoms: C_11  and  N_12 
REMARK    6  A    between atoms: C_16  and  C_17 
REMARK       I    between atoms: C_17  and  N_18 
REMARK    7  A    between atoms: N_21  and  C_23 
REMARK    8  A    between atoms: C_23  and  C_24 
ROOT
HETATM    1  N   UNL     1      26.081  45.472  52.078  1.00  0.00    -0.067 N 
HETATM    2  H   UNL     1      26.533  44.555  51.961  1.00  0.00     0.280 HD
HETATM    3  C   UNL     1      24.597  45.275  51.909  1.00  0.00     0.236 C 
HETATM    4  C   UNL     1      24.271  44.831  50.483  1.00  0.00     0.042 C 
HETATM    5  C   UNL     1      24.793  45.816  49.435  1.00  0.00     0.081 C 
HETATM    6  C   UNL     1      26.297  46.043  49.650  1.00  0.00     0.042 C 
HETATM    7  C   UNL     1      26.686  46.422  51.074  1.00  0.00     0.236 C 
ENDROOT
BRANCH   5   8
HETATM    8  C   UNL     1      23.991  47.119  49.526  1.00  0.00     0.224 C 
HETATM    9  N   UNL     1      22.700  47.171  48.996  1.00  0.00    -0.349 N 
HETATM   10  C   UNL     1      21.999  48.452  49.181  1.00  0.00     0.153 C 
HETATM   11  C   UNL     1      22.298  46.402  47.807  1.00  0.00     0.153 C 
HETATM   12  C   UNL     1      20.477  48.346  49.037  1.00  0.00     0.255 C 
HETATM   13  N   UNL     1      20.118  47.694  47.711  1.00  0.00    -0.064 N 
HETATM   14  H   UNL     1      20.479  48.304  46.965  1.00  0.00     0.280 HD
HETATM   15  C   UNL     1      20.772  46.329  47.590  1.00  0.00     0.255 C 
HETATM   16  O   UNL     1      24.437  48.054  50.193  1.00  0.00    -0.273 OA
BRANCH  13  17
HETATM   17  C   UNL     1      18.618  47.596  47.482  1.00  0.00     0.273 C 
BRANCH  17  18
HETATM   18  C   UNL     1      17.958  48.923  47.217  1.00  0.00    -0.030 A 
HETATM   19  C   UNL     1      18.318  49.666  46.078  1.00  0.00     0.048 A 
HETATM   20  C   UNL     1      17.656  50.850  45.835  1.00  0.00     0.105 A 
HETATM   21  C   UNL     1      16.673  51.316  46.672  1.00  0.00     0.105 A 
HETATM   22  O   UNL     1      17.869  51.670  44.774  1.00  0.00    -0.323 OA
HETATM   23  O   UNL     1      16.148  52.493  46.246  1.00  0.00    -0.323 OA
HETATM   24  C   UNL     1      16.300  50.624  47.803  1.00  0.00     0.040 A 
HETATM   25  C   UNL     1      16.935  52.737  45.060  1.00  0.00     0.352 A 
HETATM   26  C   UNL     1      16.948  49.415  48.078  1.00  0.00     0.012 A 
ENDBRANCH  17  18
ENDBRANCH  13  17
ENDBRANCH   5   8
BRANCH   1  27
HETATM   27  C   UNL     1      26.443  45.937  53.486  1.00  0.00     0.273 C 
BRANCH  27  28
HETATM   28  C   UNL     1      27.653  45.251  54.057  1.00  0.00    -0.027 A 
HETATM   29  C   UNL     1      28.008  43.972  53.608  1.00  0.00     0.048 A 
HETATM   30  C   UNL     1      29.113  43.325  54.152  1.00  0.00     0.104 A 
HETATM   31  C   UNL     1      29.851  43.932  55.168  1.00  0.00     0.133 A 
HETATM   32  C   UNL     1      29.517  45.209  55.632  1.00  0.00     0.104 A 
HETATM   33  C   UNL     1      28.420  45.867  55.068  1.00  0.00     0.048 A 
BRANCH  30  34
HETATM   34  O   UNL     1      29.396  42.058  53.726  1.00  0.00    -0.353 OA
HETATM   35  C   UNL     1      28.194  41.377  53.360  1.00  0.00     0.210 C 
ENDBRANCH  30  34
BRANCH  31  36
HETATM   36  O   UNL     1      30.919  43.269  55.712  1.00  0.00    -0.356 OA
HETATM   37  H   UNL     1      30.904  43.464  56.670  1.00  0.00     0.218 HD
ENDBRANCH  31  36
BRANCH  32  38
HETATM   38  O   UNL     1      30.316  45.688  56.634  1.00  0.00    -0.353 OA
HETATM   39  C   UNL     1      29.715  45.925  57.901  1.00  0.00     0.210 C 
ENDBRANCH  32  38
ENDBRANCH  27  28
ENDBRANCH   1  27
TORSDOF 8
ENDMDL
MODEL 8
REMARK VINA RESULT:      -8.6      3.705      6.521
REMARK  8 active torsions:
REMARK  status: ('A' for Active; 'I' for Inactive)
REMARK    1  A    between atoms: O_2  and  C_3 
REMARK    2  A    between atoms: C_4  and  O_5 
REMARK    3  A    between atoms: C_6  and  O_7 
REMARK    4  A    between atoms: C_10  and  C_11 
REMARK    5  A    between atoms: C_11  and  N_12 
REMARK    6  A    between atoms: C_16  and  C_17 
REMARK       I    between atoms: C_17  and  N_18 
REMARK    7  A    between atoms: N_21  and  C_23 
REMARK    8  A    between atoms: C_23  and  C_24 
ROOT
HETATM    1  N   UNL     1      27.603  43.258  52.686  1.00  0.00    -0.067 N 
HETATM    2  H   UNL     1      27.448  42.308  53.052  1.00  0.00     0.280 HD
HETATM    3  C   UNL     1      26.645  44.180  53.394  1.00  0.00     0.236 C 
HETATM    4  C   UNL     1      25.199  43.831  53.040  1.00  0.00     0.042 C 
HETATM    5  C   UNL     1      24.946  43.866  51.532  1.00  0.00     0.081 C 
HETATM    6  C   UNL     1      25.961  42.958  50.821  1.00  0.00     0.042 C 
HETATM    7  C   UNL     1      27.416  43.219  51.190  1.00  0.00     0.236 C 
ENDROOT
BRANCH   5   8
HETATM    8  C   UNL     1      25.023  45.316  51.043  1.00  0.00     0.224 C 
HETATM    9  N   UNL     1      24.091  45.779  50.113  1.00  0.00    -0.349 N 
HETATM   10  C   UNL     1      24.223  47.199  49.747  1.00  0.00     0.153 C 
HETATM   11  C   UNL     1      23.513  44.915  49.070  1.00  0.00     0.153 C 
HETATM   12  C   UNL     1      22.954  47.795  49.128  1.00  0.00     0.255 C 
HETATM   13  N   UNL     1      22.499  46.951  47.948  1.00  0.00    -0.064 N 
HETATM   14  H   UNL     1      23.252  46.976  47.247  1.00  0.00     0.280 HD
HETATM   15  C   UNL     1      22.271  45.512  48.374  1.00  0.00     0.255 C 
HETATM   16  O   UNL     1      25.812  46.092  51.586  1.00  0.00    -0.273 OA
BRANCH  13  17
HETATM   17  C   UNL     1      21.265  47.510  47.256  1.00  0.00     0.273 C 
BRANCH  17  18
HETATM   18  C   UNL     1      20.409  48.370  48.146  1.00  0.00    -0.030 A 
HETATM   19  C   UNL     1      20.419  49.767  47.985  1.00  0.00     0.048 A 
HETATM   20  C   UNL     1      19.582  50.521  48.779  1.00  0.00     0.105 A 
HETATM   21  C   UNL     1      18.757  49.947  49.714  1.00  0.00     0.105 A 
HETATM   22  O   UNL     1      19.458  51.873  48.734  1.00  0.00    -0.323 OA
HETATM   23  O   UNL     1      18.014  50.867  50.381  1.00  0.00    -0.323 OA
HETATM   24  C   UNL     1      18.727  48.584  49.910  1.00  0.00     0.040 A 
HETATM   25  C   UNL     1      18.487  52.094  49.785  1.00  0.00     0.352 A 
HETATM   26  C   UNL     1      19.560  47.788  49.117  1.00  0.00     0.012 A 
ENDBRANCH  17  18
ENDBRANCH  13  17
ENDBRANCH   5   8
BRANCH   1  27
HETATM   27  C   UNL     1      29.059  43.591  52.999  1.00  0.00     0.273 C 
BRANCH  27  28
HETATM   28  C   UNL     1      29.253  44.275  54.324  1.00  0.00    -0.027 A 
HETATM   29  C   UNL     1      28.491  45.407  54.643  1.00  0.00     0.048 A 
HETATM   30  C   UNL     1      28.685  46.057  55.858  1.00  0.00     0.104 A 
HETATM   31  C   UNL     1      29.658  45.604  56.748  1.00  0.00     0.133 A 
HETATM   32  C   UNL     1      30.430  44.476  56.452  1.00  0.00     0.104 A 
HETATM   33  C   UNL     1      30.219  43.811  55.241  1.00  0.00     0.048 A 
BRANCH  30  34
HETATM   34  O   UNL     1      27.959  47.187  56.111  1.00  0.00    -0.353 OA
HETATM   35  C   UNL     1      27.305  47.633  54.921  1.00  0.00     0.210 C 
ENDBRANCH  30  34
BRANCH  31  36
HETATM   36  O   UNL     1      29.856  46.273  57.927  1.00  0.00    -0.356 OA
HETATM   37  H   UNL     1      30.625  45.850  58.357  1.00  0.00     0.218 HD
ENDBRANCH  31  36
BRANCH  32  38
HETATM   38  O   UNL     1      31.354  44.140  57.405  1.00  0.00    -0.353 OA
HETATM   39  C   UNL     1      32.095  42.941  57.212  1.00  0.00     0.210 C 
ENDBRANCH  32  38
ENDBRANCH  27  28
ENDBRANCH   1  27
TORSDOF 8
ENDMDL
MODEL 9
REMARK VINA RESULT:      -8.6      3.756      6.777
REMARK  8 active torsions:
REMARK  status: ('A' for Active; 'I' for Inactive)
REMARK    1  A    between atoms: O_2  and  C_3 
REMARK    2  A    between atoms: C_4  and  O_5 
REMARK    3  A    between atoms: C_6  and  O_7 
REMARK    4  A    between atoms: C_10  and  C_11 
REMARK    5  A    between atoms: C_11  and  N_12 
REMARK    6  A    between atoms: C_16  and  C_17 
REMARK       I    between atoms: C_17  and  N_18 
REMARK    7  A    between atoms: N_21  and  C_23 
REMARK    8  A    between atoms: C_23  and  C_24 
ROOT
HETATM    1  N   UNL     1      27.718  43.232  52.967  1.00  0.00    -0.067 N 
HETATM    2  H   UNL     1      27.548  42.298  53.366  1.00  0.00     0.280 HD
HETATM    3  C   UNL     1      26.756  44.190  53.622  1.00  0.00     0.236 C 
HETATM    4  C   UNL     1      25.314  43.840  53.254  1.00  0.00     0.042 C 
HETATM    5  C   UNL     1      25.089  43.820  51.741  1.00  0.00     0.081 C 
HETATM    6  C   UNL     1      26.108  42.876  51.084  1.00  0.00     0.042 C 
HETATM    7  C   UNL     1      27.558  43.138  51.470  1.00  0.00     0.236 C 
ENDROOT
BRANCH   5   8
HETATM    8  C   UNL     1      25.189  45.249  51.199  1.00  0.00     0.224 C 
HETATM    9  N   UNL     1      24.259  45.695  50.258  1.00  0.00    -0.349 N 
HETATM   10  C   UNL     1      24.415  47.098  49.840  1.00  0.00     0.153 C 
HETATM   11  C   UNL     1      23.659  44.805  49.251  1.00  0.00     0.153 C 
HETATM   12  C   UNL     1      23.153  47.695  49.207  1.00  0.00     0.255 C 
HETATM   13  N   UNL     1      22.675  46.816  48.061  1.00  0.00    -0.064 N 
HETATM   14  H   UNL     1      23.424  46.802  47.356  1.00  0.00     0.280 HD
HETATM   15  C   UNL     1      22.423  45.398  48.541  1.00  0.00     0.255 C 
HETATM   16  O   UNL     1      25.995  46.030  51.708  1.00  0.00    -0.273 OA
BRANCH  13  17
HETATM   17  C   UNL     1      21.447  47.373  47.356  1.00  0.00     0.273 C 
BRANCH  17  18
HETATM   18  C   UNL     1      20.573  48.220  48.241  1.00  0.00    -0.030 A 
HETATM   19  C   UNL     1      20.613  49.622  48.124  1.00  0.00     0.048 A 
HETATM   20  C   UNL     1      19.760  50.366  48.909  1.00  0.00     0.105 A 
HETATM   21  C   UNL     1      18.892  49.779  49.796  1.00  0.00     0.105 A 
HETATM   22  O   UNL     1      19.660  51.721  48.901  1.00  0.00    -0.323 OA
HETATM   23  O   UNL     1      18.140  50.692  50.463  1.00  0.00    -0.323 OA
HETATM   24  C   UNL     1      18.831  48.412  49.948  1.00  0.00     0.040 A 
HETATM   25  C   UNL     1      18.656  51.928  49.922  1.00  0.00     0.352 A 
HETATM   26  C   UNL     1      19.680  47.625  49.162  1.00  0.00     0.012 A 
ENDBRANCH  17  18
ENDBRANCH  13  17
ENDBRANCH   5   8
BRANCH   1  27
HETATM   27  C   UNL     1      29.171  43.564  53.295  1.00  0.00     0.273 C 
BRANCH  27  28
HETATM   28  C   UNL     1      29.342  44.352  54.564  1.00  0.00    -0.027 A 
HETATM   29  C   UNL     1      30.299  43.958  55.507  1.00  0.00     0.048 A 
HETATM   30  C   UNL     1      30.443  44.670  56.693  1.00  0.00     0.104 A 
HETATM   31  C   UNL     1      29.615  45.759  56.962  1.00  0.00     0.133 A 
HETATM   32  C   UNL     1      28.652  46.173  56.035  1.00  0.00     0.104 A 
HETATM   33  C   UNL     1      28.524  45.469  54.834  1.00  0.00     0.048 A 
BRANCH  30  34
HETATM   34  O   UNL     1      31.352  44.223  57.611  1.00  0.00    -0.353 OA
HETATM   35  C   UNL     1      31.993  43.037  57.138  1.00  0.00     0.210 C 
ENDBRANCH  30  34
BRANCH  31  36
HETATM   36  O   UNL     1      29.750  46.432  58.147  1.00  0.00    -0.356 OA
HETATM   37  H   UNL     1      29.570  47.372  57.952  1.00  0.00     0.218 HD
ENDBRANCH  31  36
BRANCH  32  38
HETATM   38  O   UNL     1      27.900  47.249  56.422  1.00  0.00    -0.353 OA
HETATM   39  C   UNL     1      27.025  47.823  55.459  1.00  0.00     0.210 C 
ENDBRANCH  32  38
ENDBRANCH  27  28
ENDBRANCH   1  27
TORSDOF 8
ENDMDL
MODEL 10
REMARK VINA RESULT:      -8.5      9.482     11.422
REMARK  8 active torsions:
REMARK  status: ('A' for Active; 'I' for Inactive)
REMARK    1  A    between atoms: O_2  and  C_3 
REMARK    2  A    between atoms: C_4  and  O_5 
REMARK    3  A    between atoms: C_6  and  O_7 
REMARK    4  A    between atoms: C_10  and  C_11 
REMARK    5  A    between atoms: C_11  and  N_12 
REMARK    6  A    between atoms: C_16  and  C_17 
REMARK       I    between atoms: C_17  and  N_18 
REMARK    7  A    between atoms: N_21  and  C_23 
REMARK    8  A    between atoms: C_23  and  C_24 
ROOT
HETATM    1  N   UNL     1      27.599  44.063  52.153  1.00  0.00    -0.067 N 
HETATM    2  H   UNL     1      27.295  44.920  52.636  1.00  0.00     0.280 HD
HETATM    3  C   UNL     1      27.951  44.437  50.737  1.00  0.00     0.236 C 
HETATM    4  C   UNL     1      26.713  44.921  49.983  1.00  0.00     0.042 C 
HETATM    5  C   UNL     1      25.588  43.883  49.988  1.00  0.00     0.081 C 
HETATM    6  C   UNL     1      25.273  43.477  51.436  1.00  0.00     0.042 C 
HETATM    7  C   UNL     1      26.484  43.051  52.256  1.00  0.00     0.236 C 
ENDROOT
BRANCH   5   8
HETATM    8  C   UNL     1      26.004  42.686  49.128  1.00  0.00     0.224 C 
HETATM    9  N   UNL     1      25.025  41.933  48.476  1.00  0.00    -0.349 N 
HETATM   10  C   UNL     1      25.535  40.837  47.636  1.00  0.00     0.153 C 
HETATM   11  C   UNL     1      23.683  41.719  49.039  1.00  0.00     0.153 C 
HETATM   12  C   UNL     1      24.530  40.348  46.587  1.00  0.00     0.255 C 
HETATM   13  N   UNL     1      23.213  39.981  47.253  1.00  0.00    -0.064 N 
HETATM   14  H   UNL     1      23.406  39.213  47.909  1.00  0.00     0.280 HD
HETATM   15  C   UNL     1      22.657  41.162  48.029  1.00  0.00     0.255 C 
HETATM   16  O   UNL     1      27.201  42.494  48.904  1.00  0.00    -0.273 OA
BRANCH  13  17
HETATM   17  C   UNL     1      22.179  39.445  46.274  1.00  0.00     0.273 C 
BRANCH  17  18
HETATM   18  C   UNL     1      21.307  38.361  46.848  1.00  0.00    -0.030 A 
HETATM   19  C   UNL     1      19.959  38.636  47.145  1.00  0.00     0.048 A 
HETATM   20  C   UNL     1      19.173  37.607  47.617  1.00  0.00     0.105 A 
HETATM   21  C   UNL     1      19.671  36.342  47.809  1.00  0.00     0.105 A 
HETATM   22  O   UNL     1      17.855  37.701  47.930  1.00  0.00    -0.323 OA
HETATM   23  O   UNL     1      18.729  35.482  48.272  1.00  0.00    -0.323 OA
HETATM   24  C   UNL     1      20.987  36.037  47.541  1.00  0.00     0.040 A 
HETATM   25  C   UNL     1      17.584  36.355  48.386  1.00  0.00     0.352 A 
HETATM   26  C   UNL     1      21.812  37.056  47.055  1.00  0.00     0.012 A 
ENDBRANCH  17  18
ENDBRANCH  13  17
ENDBRANCH   5   8
BRANCH   1  27
HETATM   27  C   UNL     1      28.808  43.555  52.932  1.00  0.00     0.273 C 
BRANCH  27  28
HETATM   28  C   UNL     1      29.037  44.273  54.233  1.00  0.00    -0.027 A 
HETATM   29  C   UNL     1      28.209  45.343  54.594  1.00  0.00     0.048 A 
HETATM   30  C   UNL     1      28.432  46.026  55.786  1.00  0.00     0.104 A 
HETATM   31  C   UNL     1      29.499  45.668  56.609  1.00  0.00     0.133 A 
HETATM   32  C   UNL     1      30.339  44.602  56.271  1.00  0.00     0.104 A 
HETATM   33  C   UNL     1      30.099  43.903  55.084  1.00  0.00     0.048 A 
BRANCH  30  34
HETATM   34  O   UNL     1      27.635  47.097  56.078  1.00  0.00    -0.353 OA
HETATM   35  C   UNL     1      27.164  47.708  54.875  1.00  0.00     0.210 C 
ENDBRANCH  30  34
BRANCH  31  36
HETATM   36  O   UNL     1      29.722  46.368  57.765  1.00  0.00    -0.356 OA
HETATM   37  H   UNL     1      30.503  46.932  57.599  1.00  0.00     0.218 HD
ENDBRANCH  31  36
BRANCH  32  38
HETATM   38  O   UNL     1      31.351  44.357  57.159  1.00  0.00    -0.353 OA
HETATM   39  C   UNL     1      31.907  43.048  57.181  1.00  0.00     0.210 C 
ENDBRANCH  32  38
ENDBRANCH  27  28
ENDBRANCH   1  27
TORSDOF 8
ENDMDL
