MODEL 1
REMARK VINA RESULT:      -8.4      0.000      0.000
REMARK  7 active torsions:
REMARK  status: ('A' for Active; 'I' for Inactive)
REMARK    1  A    between atoms: C_2  and  N_3 
REMARK    2  A    between atoms: C_2  and  C_17 
REMARK       I    between atoms: N_3  and  C_4 
REMARK    3  A    between atoms: C_4  and  C_5 
REMARK    4  A    between atoms: C_6  and  N_7 
REMARK    5  A    between atoms: C_17  and  O_18 
REMARK    6  A    between atoms: C_17  and  C_19 
REMARK    7  A    between atoms: C_22  and  O_23 
ROOT
HETATM    1  N   UNL     1      27.877  43.207  53.305  1.00  0.00    -0.350 N 
HETATM    2  C   UNL     1      29.216  43.495  53.441  1.00  0.00     0.255 C 
HETATM    3  O   UNL     1      30.022  43.426  52.523  1.00  0.00    -0.268 OA
HETATM    4  H   UNL     1      27.269  43.326  54.106  1.00  0.00     0.163 HD
ENDROOT
BRANCH   1   5
HETATM    5  C   UNL     1      27.225  42.840  52.039  1.00  0.00     0.114 C 
HETATM    6  C   UNL     1      27.202  41.320  51.875  1.00  0.00     0.035 C 
BRANCH   5   7
HETATM    7  C   UNL     1      25.812  43.466  51.794  1.00  0.00     0.173 C 
BRANCH   7   8
HETATM    8  O   UNL     1      24.997  43.484  52.965  1.00  0.00    -0.389 OA
HETATM    9  H   UNL     1      25.457  42.938  53.640  1.00  0.00     0.210 HD
ENDBRANCH   7   8
BRANCH   7  10
HETATM   10  C   UNL     1      25.854  44.831  51.130  1.00  0.00    -0.028 A 
HETATM   11  C   UNL     1      26.919  45.164  50.282  1.00  0.00     0.012 A 
HETATM   12  C   UNL     1      26.969  46.414  49.659  1.00  0.00     0.037 A 
HETATM   13  C   UNL     1      25.960  47.355  49.865  1.00  0.00     0.068 A 
HETATM   14  C   UNL     1      24.904  47.042  50.719  1.00  0.00     0.037 A 
HETATM   15  C   UNL     1      24.851  45.790  51.342  1.00  0.00     0.012 A 
BRANCH  13  16
HETATM   16  O   UNL     1      26.123  48.532  49.188  1.00  0.00    -0.356 OA
HETATM   17  C   UNL     1      27.460  48.998  49.038  1.00  0.00     0.210 C 
ENDBRANCH  13  16
ENDBRANCH   7  10
ENDBRANCH   5   7
ENDBRANCH   1   5
BRANCH   2  18
HETATM   18  C   UNL     1      29.659  43.871  54.797  1.00  0.00     0.079 A 
HETATM   19  C   UNL     1      29.258  45.031  55.466  1.00  0.00     0.165 A 
HETATM   20  N   UNL     1      29.851  45.404  56.646  1.00  0.00    -0.241 NA
HETATM   21  C   UNL     1      30.816  44.623  57.172  1.00  0.00     0.119 A 
HETATM   22  C   UNL     1      31.253  43.457  56.579  1.00  0.00     0.020 A 
HETATM   23  C   UNL     1      30.677  43.084  55.370  1.00  0.00     0.022 A 
BRANCH  19  24
HETATM   24  N   UNL     1      28.184  45.874  55.014  1.00  0.00    -0.226 N 
HETATM   25  N   UNL     1      26.909  45.381  54.950  1.00  0.00    -0.179 NA
HETATM   26  C   UNL     1      26.163  46.398  54.526  1.00  0.00     0.141 A 
HETATM   27  C   UNL     1      26.925  47.531  54.224  1.00  0.00     0.040 A 
HETATM   28  C   UNL     1      28.219  47.158  54.500  1.00  0.00     0.122 A 
ENDBRANCH  19  24
ENDBRANCH   2  18
TORSDOF 7
ENDMDL
MODEL 2
REMARK VINA RESULT:      -7.7      2.732      7.477
REMARK  7 active torsions:
REMARK  status: ('A' for Active; 'I' for Inactive)
REMARK    1  A    between atoms: C_2  and  N_3 
REMARK    2  A    between atoms: C_2  and  C_17 
REMARK       I    between atoms: N_3  and  C_4 
REMARK    3  A    between atoms: C_4  and  C_5 
REMARK    4  A    between atoms: C_6  and  N_7 
REMARK    5  A    between atoms: C_17  and  O_18 
REMARK    6  A    between atoms: C_17  and  C_19 
REMARK    7  A    between atoms: C_22  and  O_23 
ROOT
HETATM    1  N   UNL     1      25.092  46.460  52.227  1.00  0.00    -0.350 N 
HETATM    2  C   UNL     1      25.293  47.125  51.038  1.00  0.00     0.255 C 
HETATM    3  O   UNL     1      26.290  47.791  50.794  1.00  0.00    -0.268 OA
HETATM    4  H   UNL     1      24.256  45.898  52.336  1.00  0.00     0.163 HD
ENDROOT
BRANCH   1   5
HETATM    5  C   UNL     1      26.062  46.407  53.331  1.00  0.00     0.114 C 
HETATM    6  C   UNL     1      25.955  47.666  54.192  1.00  0.00     0.035 C 
BRANCH   5   7
HETATM    7  C   UNL     1      26.030  45.109  54.204  1.00  0.00     0.173 C 
BRANCH   7   8
HETATM    8  O   UNL     1      25.176  44.097  53.672  1.00  0.00    -0.389 OA
HETATM    9  H   UNL     1      24.719  43.681  54.435  1.00  0.00     0.210 HD
ENDBRANCH   7   8
BRANCH   7  10
HETATM   10  C   UNL     1      27.407  44.555  54.527  1.00  0.00    -0.028 A 
HETATM   11  C   UNL     1      28.308  45.317  55.283  1.00  0.00     0.012 A 
HETATM   12  C   UNL     1      29.576  44.820  55.595  1.00  0.00     0.037 A 
HETATM   13  C   UNL     1      29.970  43.553  55.162  1.00  0.00     0.068 A 
HETATM   14  C   UNL     1      29.090  42.791  54.397  1.00  0.00     0.037 A 
HETATM   15  C   UNL     1      27.818  43.288  54.086  1.00  0.00     0.012 A 
BRANCH  13  16
HETATM   16  O   UNL     1      31.230  43.181  55.544  1.00  0.00    -0.356 OA
HETATM   17  C   UNL     1      31.561  43.373  56.915  1.00  0.00     0.210 C 
ENDBRANCH  13  16
ENDBRANCH   7  10
ENDBRANCH   5   7
ENDBRANCH   1   5
BRANCH   2  18
HETATM   18  C   UNL     1      24.202  47.024  50.051  1.00  0.00     0.079 A 
HETATM   19  C   UNL     1      23.838  45.847  49.392  1.00  0.00     0.165 A 
HETATM   20  N   UNL     1      22.937  45.868  48.357  1.00  0.00    -0.241 NA
HETATM   21  C   UNL     1      22.382  47.041  47.994  1.00  0.00     0.119 A 
HETATM   22  C   UNL     1      22.677  48.241  48.607  1.00  0.00     0.020 A 
HETATM   23  C   UNL     1      23.609  48.233  49.639  1.00  0.00     0.022 A 
BRANCH  19  24
HETATM   24  N   UNL     1      24.324  44.546  49.771  1.00  0.00    -0.226 N 
HETATM   25  N   UNL     1      23.740  43.876  50.811  1.00  0.00    -0.179 NA
HETATM   26  C   UNL     1      24.391  42.717  50.888  1.00  0.00     0.141 A 
HETATM   27  C   UNL     1      25.450  42.637  49.977  1.00  0.00     0.040 A 
HETATM   28  C   UNL     1      25.415  43.835  49.305  1.00  0.00     0.122 A 
ENDBRANCH  19  24
ENDBRANCH   2  18
TORSDOF 7
ENDMDL
MODEL 3
REMARK VINA RESULT:      -7.3      1.822      3.586
REMARK  7 active torsions:
REMARK  status: ('A' for Active; 'I' for Inactive)
REMARK    1  A    between atoms: C_2  and  N_3 
REMARK    2  A    between atoms: C_2  and  C_17 
REMARK       I    between atoms: N_3  and  C_4 
REMARK    3  A    between atoms: C_4  and  C_5 
REMARK    4  A    between atoms: C_6  and  N_7 
REMARK    5  A    between atoms: C_17  and  O_18 
REMARK    6  A    between atoms: C_17  and  C_19 
REMARK    7  A    between atoms: C_22  and  O_23 
ROOT
HETATM    1  N   UNL     1      28.290  43.581  52.747  1.00  0.00    -0.350 N 
HETATM    2  C   UNL     1      27.507  43.875  53.840  1.00  0.00     0.255 C 
HETATM    3  O   UNL     1      26.811  43.051  54.417  1.00  0.00    -0.268 OA
HETATM    4  H   UNL     1      28.868  44.312  52.349  1.00  0.00     0.163 HD
ENDROOT
BRANCH   1   5
HETATM    5  C   UNL     1      28.446  42.238  52.165  1.00  0.00     0.114 C 
HETATM    6  C   UNL     1      28.729  41.214  53.266  1.00  0.00     0.035 C 
BRANCH   5   7
HETATM    7  C   UNL     1      27.291  41.766  51.222  1.00  0.00     0.173 C 
BRANCH   7   8
HETATM    8  O   UNL     1      26.542  40.676  51.758  1.00  0.00    -0.389 OA
HETATM    9  H   UNL     1      27.171  40.122  52.269  1.00  0.00     0.210 HD
ENDBRANCH   7   8
BRANCH   7  10
HETATM   10  C   UNL     1      26.379  42.889  50.761  1.00  0.00    -0.028 A 
HETATM   11  C   UNL     1      25.039  42.914  51.171  1.00  0.00     0.012 A 
HETATM   12  C   UNL     1      24.188  43.944  50.760  1.00  0.00     0.037 A 
HETATM   13  C   UNL     1      24.655  44.969  49.936  1.00  0.00     0.068 A 
HETATM   14  C   UNL     1      25.981  44.946  49.509  1.00  0.00     0.037 A 
HETATM   15  C   UNL     1      26.835  43.916  49.921  1.00  0.00     0.012 A 
BRANCH  13  16
HETATM   16  O   UNL     1      23.724  45.919  49.617  1.00  0.00    -0.356 OA
HETATM   17  C   UNL     1      24.182  47.266  49.568  1.00  0.00     0.210 C 
ENDBRANCH  13  16
ENDBRANCH   7  10
ENDBRANCH   5   7
ENDBRANCH   1   5
BRANCH   2  18
HETATM   18  C   UNL     1      27.517  45.283  54.279  1.00  0.00     0.079 A 
HETATM   19  C   UNL     1      28.365  45.798  55.263  1.00  0.00     0.165 A 
HETATM   20  N   UNL     1      28.193  47.071  55.746  1.00  0.00    -0.241 NA
HETATM   21  C   UNL     1      27.205  47.836  55.241  1.00  0.00     0.119 A 
HETATM   22  C   UNL     1      26.339  47.405  54.258  1.00  0.00     0.020 A 
HETATM   23  C   UNL     1      26.489  46.107  53.782  1.00  0.00     0.022 A 
BRANCH  19  24
HETATM   24  N   UNL     1      29.490  45.075  55.795  1.00  0.00    -0.226 N 
HETATM   25  N   UNL     1      30.002  44.008  55.109  1.00  0.00    -0.179 NA
HETATM   26  C   UNL     1      31.030  43.585  55.841  1.00  0.00     0.141 A 
HETATM   27  C   UNL     1      31.161  44.293  57.039  1.00  0.00     0.040 A 
HETATM   28  C   UNL     1      30.139  45.211  57.009  1.00  0.00     0.122 A 
ENDBRANCH  19  24
ENDBRANCH   2  18
TORSDOF 7
ENDMDL
MODEL 4
REMARK VINA RESULT:      -7.2      3.014      7.547
REMARK  7 active torsions:
REMARK  status: ('A' for Active; 'I' for Inactive)
REMARK    1  A    between atoms: C_2  and  N_3 
REMARK    2  A    between atoms: C_2  and  C_17 
REMARK       I    between atoms: N_3  and  C_4 
REMARK    3  A    between atoms: C_4  and  C_5 
REMARK    4  A    between atoms: C_6  and  N_7 
REMARK    5  A    between atoms: C_17  and  O_18 
REMARK    6  A    between atoms: C_17  and  C_19 
REMARK    7  A    between atoms: C_22  and  O_23 
ROOT
HETATM    1  N   UNL     1      25.665  44.801  51.369  1.00  0.00    -0.350 N 
HETATM    2  C   UNL     1      26.083  44.597  50.073  1.00  0.00     0.255 C 
HETATM    3  O   UNL     1      27.153  44.998  49.634  1.00  0.00    -0.268 OA
HETATM    4  H   UNL     1      24.781  44.403  51.664  1.00  0.00     0.163 HD
ENDROOT
BRANCH   1   5
HETATM    5  C   UNL     1      26.462  45.466  52.411  1.00  0.00     0.114 C 
HETATM    6  C   UNL     1      26.121  46.956  52.468  1.00  0.00     0.035 C 
BRANCH   5   7
HETATM    7  C   UNL     1      26.413  44.809  53.829  1.00  0.00     0.173 C 
BRANCH   7   8
HETATM    8  O   UNL     1      25.665  43.594  53.858  1.00  0.00    -0.389 OA
HETATM    9  H   UNL     1      24.790  43.789  53.456  1.00  0.00     0.210 HD
ENDBRANCH   7   8
BRANCH   7  10
HETATM   10  C   UNL     1      27.778  44.631  54.470  1.00  0.00    -0.028 A 
HETATM   11  C   UNL     1      28.299  45.636  55.297  1.00  0.00     0.012 A 
HETATM   12  C   UNL     1      29.551  45.486  55.899  1.00  0.00     0.037 A 
HETATM   13  C   UNL     1      30.308  44.331  55.691  1.00  0.00     0.068 A 
HETATM   14  C   UNL     1      29.808  43.332  54.859  1.00  0.00     0.037 A 
HETATM   15  C   UNL     1      28.553  43.481  54.257  1.00  0.00     0.012 A 
BRANCH  13  16
HETATM   16  O   UNL     1      31.508  44.305  56.346  1.00  0.00    -0.356 OA
HETATM   17  C   UNL     1      31.745  43.188  57.195  1.00  0.00     0.210 C 
ENDBRANCH  13  16
ENDBRANCH   7  10
ENDBRANCH   5   7
ENDBRANCH   1   5
BRANCH   2  18
HETATM   18  C   UNL     1      25.138  43.879  49.197  1.00  0.00     0.079 A 
HETATM   19  C   UNL     1      25.324  42.574  48.734  1.00  0.00     0.165 A 
HETATM   20  N   UNL     1      24.496  42.039  47.780  1.00  0.00    -0.241 NA
HETATM   21  C   UNL     1      23.477  42.783  47.304  1.00  0.00     0.119 A 
HETATM   22  C   UNL     1      23.219  44.072  47.723  1.00  0.00     0.020 A 
HETATM   23  C   UNL     1      24.069  44.631  48.671  1.00  0.00     0.022 A 
BRANCH  19  24
HETATM   24  N   UNL     1      26.337  41.690  49.248  1.00  0.00    -0.226 N 
HETATM   25  N   UNL     1      27.480  41.472  48.530  1.00  0.00    -0.179 NA
HETATM   26  C   UNL     1      28.207  40.643  49.277  1.00  0.00     0.141 A 
HETATM   27  C   UNL     1      27.536  40.238  50.435  1.00  0.00     0.040 A 
HETATM   28  C   UNL     1      26.324  40.884  50.373  1.00  0.00     0.122 A 
ENDBRANCH  19  24
ENDBRANCH   2  18
TORSDOF 7
ENDMDL
MODEL 5
REMARK VINA RESULT:      -7.2      1.700      1.908
REMARK  7 active torsions:
REMARK  status: ('A' for Active; 'I' for Inactive)
REMARK    1  A    between atoms: C_2  and  N_3 
REMARK    2  A    between atoms: C_2  and  C_17 
REMARK       I    between atoms: N_3  and  C_4 
REMARK    3  A    between atoms: C_4  and  C_5 
REMARK    4  A    between atoms: C_6  and  N_7 
REMARK    5  A    between atoms: C_17  and  O_18 
REMARK    6  A    between atoms: C_17  and  C_19 
REMARK    7  A    between atoms: C_22  and  O_23 
ROOT
HETATM    1  N   UNL     1      27.792  43.149  52.140  1.00  0.00    -0.350 N 
HETATM    2  C   UNL     1      28.444  42.462  53.139  1.00  0.00     0.255 C 
HETATM    3  O   UNL     1      28.531  41.242  53.178  1.00  0.00    -0.268 OA
HETATM    4  H   UNL     1      27.798  44.162  52.161  1.00  0.00     0.163 HD
ENDROOT
BRANCH   1   5
HETATM    5  C   UNL     1      27.171  42.525  50.962  1.00  0.00     0.114 C 
HETATM    6  C   UNL     1      25.769  42.020  51.307  1.00  0.00     0.035 C 
BRANCH   5   7
HETATM    7  C   UNL     1      27.168  43.386  49.657  1.00  0.00     0.173 C 
BRANCH   7   8
HETATM    8  O   UNL     1      26.790  42.645  48.498  1.00  0.00    -0.389 OA
HETATM    9  H   UNL     1      26.424  41.790  48.813  1.00  0.00     0.210 HD
ENDBRANCH   7   8
BRANCH   7  10
HETATM   10  C   UNL     1      26.368  44.672  49.774  1.00  0.00    -0.028 A 
HETATM   11  C   UNL     1      27.032  45.906  49.820  1.00  0.00     0.012 A 
HETATM   12  C   UNL     1      26.312  47.099  49.921  1.00  0.00     0.037 A 
HETATM   13  C   UNL     1      24.917  47.087  49.976  1.00  0.00     0.068 A 
HETATM   14  C   UNL     1      24.246  45.866  49.947  1.00  0.00     0.037 A 
HETATM   15  C   UNL     1      24.967  44.671  49.843  1.00  0.00     0.012 A 
BRANCH  13  16
HETATM   16  O   UNL     1      24.334  48.322  50.063  1.00  0.00    -0.356 OA
HETATM   17  C   UNL     1      24.366  49.123  48.887  1.00  0.00     0.210 C 
ENDBRANCH  13  16
ENDBRANCH   7  10
ENDBRANCH   5   7
ENDBRANCH   1   5
BRANCH   2  18
HETATM   18  C   UNL     1      29.023  43.288  54.216  1.00  0.00     0.079 A 
HETATM   19  C   UNL     1      28.479  44.492  54.668  1.00  0.00     0.165 A 
HETATM   20  N   UNL     1      29.169  45.293  55.544  1.00  0.00    -0.241 NA
HETATM   21  C   UNL     1      30.377  44.891  55.987  1.00  0.00     0.119 A 
HETATM   22  C   UNL     1      30.972  43.709  55.600  1.00  0.00     0.020 A 
HETATM   23  C   UNL     1      30.292  42.904  54.692  1.00  0.00     0.022 A 
BRANCH  19  24
HETATM   24  N   UNL     1      27.164  44.952  54.306  1.00  0.00    -0.226 N 
HETATM   25  N   UNL     1      26.072  44.168  54.563  1.00  0.00    -0.179 NA
HETATM   26  C   UNL     1      25.028  44.877  54.138  1.00  0.00     0.141 A 
HETATM   27  C   UNL     1      25.408  46.076  53.528  1.00  0.00     0.040 A 
HETATM   28  C   UNL     1      26.780  46.082  53.607  1.00  0.00     0.122 A 
ENDBRANCH  19  24
ENDBRANCH   2  18
TORSDOF 7
ENDMDL
MODEL 6
REMARK VINA RESULT:      -7.1      2.608      6.722
REMARK  7 active torsions:
REMARK  status: ('A' for Active; 'I' for Inactive)
REMARK    1  A    between atoms: C_2  and  N_3 
REMARK    2  A    between atoms: C_2  and  C_17 
REMARK       I    between atoms: N_3  and  C_4 
REMARK    3  A    between atoms: C_4  and  C_5 
REMARK    4  A    between atoms: C_6  and  N_7 
REMARK    5  A    between atoms: C_17  and  O_18 
REMARK    6  A    between atoms: C_17  and  C_19 
REMARK    7  A    between atoms: C_22  and  O_23 
ROOT
HETATM    1  N   UNL     1      27.208  43.517  52.132  1.00  0.00    -0.350 N 
HETATM    2  C   UNL     1      26.044  44.183  52.441  1.00  0.00     0.255 C 
HETATM    3  O   UNL     1      25.308  43.869  53.368  1.00  0.00    -0.268 OA
HETATM    4  H   UNL     1      27.781  43.864  51.372  1.00  0.00     0.163 HD
ENDROOT
BRANCH   1   5
HETATM    5  C   UNL     1      27.757  42.389  52.900  1.00  0.00     0.114 C 
HETATM    6  C   UNL     1      27.486  41.071  52.173  1.00  0.00     0.035 C 
BRANCH   5   7
HETATM    7  C   UNL     1      29.259  42.517  53.319  1.00  0.00     0.173 C 
BRANCH   7   8
HETATM    8  O   UNL     1      30.129  42.765  52.216  1.00  0.00    -0.389 OA
HETATM    9  H   UNL     1      29.790  43.566  51.760  1.00  0.00     0.210 HD
ENDBRANCH   7   8
BRANCH   7  10
HETATM   10  C   UNL     1      29.498  43.509  54.444  1.00  0.00    -0.028 A 
HETATM   11  C   UNL     1      30.593  43.340  55.303  1.00  0.00     0.012 A 
HETATM   12  C   UNL     1      30.832  44.247  56.340  1.00  0.00     0.037 A 
HETATM   13  C   UNL     1      29.987  45.340  56.539  1.00  0.00     0.068 A 
HETATM   14  C   UNL     1      28.886  45.509  55.702  1.00  0.00     0.037 A 
HETATM   15  C   UNL     1      28.648  44.603  54.662  1.00  0.00     0.012 A 
BRANCH  13  16
HETATM   16  O   UNL     1      30.338  46.156  57.579  1.00  0.00    -0.356 OA
HETATM   17  C   UNL     1      31.006  45.539  58.674  1.00  0.00     0.210 C 
ENDBRANCH  13  16
ENDBRANCH   7  10
ENDBRANCH   5   7
ENDBRANCH   1   5
BRANCH   2  18
HETATM   18  C   UNL     1      25.690  45.308  51.556  1.00  0.00     0.079 A 
HETATM   19  C   UNL     1      25.039  45.172  50.327  1.00  0.00     0.165 A 
HETATM   20  N   UNL     1      24.907  46.242  49.477  1.00  0.00    -0.241 NA
HETATM   21  C   UNL     1      25.394  47.442  49.852  1.00  0.00     0.119 A 
HETATM   22  C   UNL     1      26.034  47.657  51.055  1.00  0.00     0.020 A 
HETATM   23  C   UNL     1      26.196  46.574  51.910  1.00  0.00     0.022 A 
BRANCH  19  24
HETATM   24  N   UNL     1      24.422  43.948  49.890  1.00  0.00    -0.226 N 
HETATM   25  N   UNL     1      23.187  43.598  50.362  1.00  0.00    -0.179 NA
HETATM   26  C   UNL     1      22.895  42.449  49.757  1.00  0.00     0.141 A 
HETATM   27  C   UNL     1      23.944  41.983  48.958  1.00  0.00     0.040 A 
HETATM   28  C   UNL     1      24.927  42.935  49.094  1.00  0.00     0.122 A 
ENDBRANCH  19  24
ENDBRANCH   2  18
TORSDOF 7
ENDMDL
MODEL 7
REMARK VINA RESULT:      -7.1      3.227      7.057
REMARK  7 active torsions:
REMARK  status: ('A' for Active; 'I' for Inactive)
REMARK    1  A    between atoms: C_2  and  N_3 
REMARK    2  A    between atoms: C_2  and  C_17 
REMARK       I    between atoms: N_3  and  C_4 
REMARK    3  A    between atoms: C_4  and  C_5 
REMARK    4  A    between atoms: C_6  and  N_7 
REMARK    5  A    between atoms: C_17  and  O_18 
REMARK    6  A    between atoms: C_17  and  C_19 
REMARK    7  A    between atoms: C_22  and  O_23 
ROOT
HETATM    1  N   UNL     1      25.972  43.955  51.244  1.00  0.00    -0.350 N 
HETATM    2  C   UNL     1      26.605  43.811  50.030  1.00  0.00     0.255 C 
HETATM    3  O   UNL     1      27.332  44.664  49.538  1.00  0.00    -0.268 OA
HETATM    4  H   UNL     1      25.417  43.186  51.599  1.00  0.00     0.163 HD
ENDROOT
BRANCH   1   5
HETATM    5  C   UNL     1      26.130  45.113  52.137  1.00  0.00     0.114 C 
HETATM    6  C   UNL     1      25.132  46.210  51.763  1.00  0.00     0.035 C 
BRANCH   5   7
HETATM    7  C   UNL     1      26.093  44.801  53.670  1.00  0.00     0.173 C 
BRANCH   7   8
HETATM    8  O   UNL     1      25.241  43.705  53.998  1.00  0.00    -0.389 OA
HETATM    9  H   UNL     1      24.689  43.991  54.759  1.00  0.00     0.210 HD
ENDBRANCH   7   8
BRANCH   7  10
HETATM   10  C   UNL     1      27.468  44.637  54.294  1.00  0.00    -0.028 A 
HETATM   11  C   UNL     1      28.008  45.669  55.075  1.00  0.00     0.012 A 
HETATM   12  C   UNL     1      29.269  45.532  55.662  1.00  0.00     0.037 A 
HETATM   13  C   UNL     1      30.015  44.366  55.485  1.00  0.00     0.068 A 
HETATM   14  C   UNL     1      29.496  43.340  54.698  1.00  0.00     0.037 A 
HETATM   15  C   UNL     1      28.232  43.475  54.112  1.00  0.00     0.012 A 
BRANCH  13  16
HETATM   16  O   UNL     1      31.226  44.356  56.121  1.00  0.00    -0.356 OA
HETATM   17  C   UNL     1      31.477  43.259  56.993  1.00  0.00     0.210 C 
ENDBRANCH  13  16
ENDBRANCH   7  10
ENDBRANCH   5   7
ENDBRANCH   1   5
BRANCH   2  18
HETATM   18  C   UNL     1      26.331  42.555  49.306  1.00  0.00     0.079 A 
HETATM   19  C   UNL     1      25.077  42.182  48.815  1.00  0.00     0.165 A 
HETATM   20  N   UNL     1      24.861  40.923  48.315  1.00  0.00    -0.241 NA
HETATM   21  C   UNL     1      25.885  40.047  48.280  1.00  0.00     0.119 A 
HETATM   22  C   UNL     1      27.154  40.346  48.730  1.00  0.00     0.020 A 
HETATM   23  C   UNL     1      27.375  41.611  49.263  1.00  0.00     0.022 A 
BRANCH  19  24
HETATM   24  N   UNL     1      23.956  43.082  48.745  1.00  0.00    -0.226 N 
HETATM   25  N   UNL     1      23.131  43.232  49.826  1.00  0.00    -0.179 NA
HETATM   26  C   UNL     1      22.228  44.135  49.452  1.00  0.00     0.141 A 
HETATM   27  C   UNL     1      22.382  44.526  48.118  1.00  0.00     0.040 A 
HETATM   28  C   UNL     1      23.465  43.807  47.673  1.00  0.00     0.122 A 
ENDBRANCH  19  24
ENDBRANCH   2  18
TORSDOF 7
ENDMDL
MODEL 8
REMARK VINA RESULT:      -7.0     12.383     14.951
REMARK  7 active torsions:
REMARK  status: ('A' for Active; 'I' for Inactive)
REMARK    1  A    between atoms: C_2  and  N_3 
REMARK    2  A    between atoms: C_2  and  C_17 
REMARK       I    between atoms: N_3  and  C_4 
REMARK    3  A    between atoms: C_4  and  C_5 
REMARK    4  A    between atoms: C_6  and  N_7 
REMARK    5  A    between atoms: C_17  and  O_18 
REMARK    6  A    between atoms: C_17  and  C_19 
REMARK    7  A    between atoms: C_22  and  O_23 
ROOT
HETATM    1  N   UNL     1      29.383  51.129  40.017  1.00  0.00    -0.350 N 
HETATM    2  C   UNL     1      29.528  50.255  38.964  1.00  0.00     0.255 C 
HETATM    3  O   UNL     1      30.149  50.519  37.943  1.00  0.00    -0.268 OA
HETATM    4  H   UNL     1      28.885  50.820  40.843  1.00  0.00     0.163 HD
ENDROOT
BRANCH   1   5
HETATM    5  C   UNL     1      30.000  52.463  40.088  1.00  0.00     0.114 C 
HETATM    6  C   UNL     1      29.021  53.526  39.587  1.00  0.00     0.035 C 
BRANCH   5   7
HETATM    7  C   UNL     1      30.617  52.855  41.471  1.00  0.00     0.173 C 
BRANCH   7   8
HETATM    8  O   UNL     1      29.711  52.680  42.559  1.00  0.00    -0.389 OA
HETATM    9  H   UNL     1      30.011  53.278  43.279  1.00  0.00     0.210 HD
ENDBRANCH   7   8
BRANCH   7  10
HETATM   10  C   UNL     1      31.954  52.193  41.755  1.00  0.00    -0.028 A 
HETATM   11  C   UNL     1      32.767  51.776  40.692  1.00  0.00     0.012 A 
HETATM   12  C   UNL     1      34.003  51.171  40.935  1.00  0.00     0.037 A 
HETATM   13  C   UNL     1      34.454  50.971  42.241  1.00  0.00     0.068 A 
HETATM   14  C   UNL     1      33.647  51.366  43.306  1.00  0.00     0.037 A 
HETATM   15  C   UNL     1      32.410  51.975  43.063  1.00  0.00     0.012 A 
BRANCH  13  16
HETATM   16  O   UNL     1      35.683  50.379  42.341  1.00  0.00    -0.356 OA
HETATM   17  C   UNL     1      36.668  50.798  41.403  1.00  0.00     0.210 C 
ENDBRANCH  13  16
ENDBRANCH   7  10
ENDBRANCH   5   7
ENDBRANCH   1   5
BRANCH   2  18
HETATM   18  C   UNL     1      28.848  48.954  39.110  1.00  0.00     0.079 A 
HETATM   19  C   UNL     1      29.352  47.877  39.845  1.00  0.00     0.165 A 
HETATM   20  N   UNL     1      28.755  46.642  39.785  1.00  0.00    -0.241 NA
HETATM   21  C   UNL     1      27.655  46.481  39.024  1.00  0.00     0.119 A 
HETATM   22  C   UNL     1      27.090  47.499  38.284  1.00  0.00     0.020 A 
HETATM   23  C   UNL     1      27.703  48.747  38.317  1.00  0.00     0.022 A 
BRANCH  19  24
HETATM   24  N   UNL     1      30.473  47.987  40.741  1.00  0.00    -0.226 N 
HETATM   25  N   UNL     1      30.309  48.560  41.972  1.00  0.00    -0.179 NA
HETATM   26  C   UNL     1      31.504  48.486  42.553  1.00  0.00     0.141 A 
HETATM   27  C   UNL     1      32.479  47.954  41.704  1.00  0.00     0.040 A 
HETATM   28  C   UNL     1      31.807  47.684  40.536  1.00  0.00     0.122 A 
ENDBRANCH  19  24
ENDBRANCH   2  18
TORSDOF 7
ENDMDL
MODEL 9
REMARK VINA RESULT:      -6.8      3.044      5.140
REMARK  7 active torsions:
REMARK  status: ('A' for Active; 'I' for Inactive)
REMARK    1  A    between atoms: C_2  and  N_3 
REMARK    2  A    between atoms: C_2  and  C_17 
REMARK       I    between atoms: N_3  and  C_4 
REMARK    3  A    between atoms: C_4  and  C_5 
REMARK    4  A    between atoms: C_6  and  N_7 
REMARK    5  A    between atoms: C_17  and  O_18 
REMARK    6  A    between atoms: C_17  and  C_19 
REMARK    7  A    between atoms: C_22  and  O_23 
ROOT
HETATM    1  N   UNL     1      26.146  45.763  51.709  1.00  0.00    -0.350 N 
HETATM    2  C   UNL     1      26.008  45.243  52.976  1.00  0.00     0.255 C 
HETATM    3  O   UNL     1      24.991  44.692  53.377  1.00  0.00    -0.268 OA
HETATM    4  H   UNL     1      27.035  46.169  51.442  1.00  0.00     0.163 HD
ENDROOT
BRANCH   1   5
HETATM    5  C   UNL     1      25.126  45.676  50.653  1.00  0.00     0.114 C 
HETATM    6  C   UNL     1      24.562  47.064  50.345  1.00  0.00     0.035 C 
BRANCH   5   7
HETATM    7  C   UNL     1      25.557  44.928  49.348  1.00  0.00     0.173 C 
BRANCH   7   8
HETATM    8  O   UNL     1      26.930  44.539  49.354  1.00  0.00    -0.389 OA
HETATM    9  H   UNL     1      26.955  43.589  49.604  1.00  0.00     0.210 HD
ENDBRANCH   7   8
BRANCH   7  10
HETATM   10  C   UNL     1      24.655  43.763  48.983  1.00  0.00    -0.028 A 
HETATM   11  C   UNL     1      23.378  44.005  48.459  1.00  0.00     0.012 A 
HETATM   12  C   UNL     1      22.537  42.945  48.112  1.00  0.00     0.037 A 
HETATM   13  C   UNL     1      22.952  41.622  48.277  1.00  0.00     0.068 A 
HETATM   14  C   UNL     1      24.213  41.368  48.812  1.00  0.00     0.037 A 
HETATM   15  C   UNL     1      25.057  42.430  49.158  1.00  0.00     0.012 A 
BRANCH  13  16
HETATM   16  O   UNL     1      22.040  40.680  47.889  1.00  0.00    -0.356 OA
HETATM   17  C   UNL     1      22.473  39.741  46.911  1.00  0.00     0.210 C 
ENDBRANCH  13  16
ENDBRANCH   7  10
ENDBRANCH   5   7
ENDBRANCH   1   5
BRANCH   2  18
HETATM   18  C   UNL     1      27.167  45.414  53.872  1.00  0.00     0.079 A 
HETATM   19  C   UNL     1      28.129  44.430  54.117  1.00  0.00     0.165 A 
HETATM   20  N   UNL     1      29.073  44.596  55.098  1.00  0.00    -0.241 NA
HETATM   21  C   UNL     1      29.081  45.738  55.815  1.00  0.00     0.119 A 
HETATM   22  C   UNL     1      28.176  46.761  55.620  1.00  0.00     0.020 A 
HETATM   23  C   UNL     1      27.199  46.590  54.646  1.00  0.00     0.022 A 
BRANCH  19  24
HETATM   24  N   UNL     1      28.237  43.220  53.345  1.00  0.00    -0.226 N 
HETATM   25  N   UNL     1      28.219  43.279  51.978  1.00  0.00    -0.179 NA
HETATM   26  C   UNL     1      28.361  42.018  51.574  1.00  0.00     0.141 A 
HETATM   27  C   UNL     1      28.388  41.114  52.640  1.00  0.00     0.040 A 
HETATM   28  C   UNL     1      28.262  41.901  53.760  1.00  0.00     0.122 A 
ENDBRANCH  19  24
ENDBRANCH   2  18
TORSDOF 7
ENDMDL
MODEL 10
REMARK VINA RESULT:      -6.8     15.296     17.909
REMARK  7 active torsions:
REMARK  status: ('A' for Active; 'I' for Inactive)
REMARK    1  A    between atoms: C_2  and  N_3 
REMARK    2  A    between atoms: C_2  and  C_17 
REMARK       I    between atoms: N_3  and  C_4 
REMARK    3  A    between atoms: C_4  and  C_5 
REMARK    4  A    between atoms: C_6  and  N_7 
REMARK    5  A    between atoms: C_17  and  O_18 
REMARK    6  A    between atoms: C_17  and  C_19 
REMARK    7  A    between atoms: C_22  and  O_23 
ROOT
HETATM    1  N   UNL     1      38.480  44.789  64.196  1.00  0.00    -0.350 N 
HETATM    2  C   UNL     1      38.727  45.513  65.340  1.00  0.00     0.255 C 
HETATM    3  O   UNL     1      38.824  45.012  66.452  1.00  0.00    -0.268 OA
HETATM    4  H   UNL     1      38.452  45.275  63.307  1.00  0.00     0.163 HD
ENDROOT
BRANCH   1   5
HETATM    5  C   UNL     1      38.363  43.323  64.142  1.00  0.00     0.114 C 
HETATM    6  C   UNL     1      36.891  42.911  64.095  1.00  0.00     0.035 C 
BRANCH   5   7
HETATM    7  C   UNL     1      39.194  42.614  63.022  1.00  0.00     0.173 C 
BRANCH   7   8
HETATM    8  O   UNL     1      40.222  43.441  62.479  1.00  0.00    -0.389 OA
HETATM    9  H   UNL     1      40.736  42.883  61.855  1.00  0.00     0.210 HD
ENDBRANCH   7   8
BRANCH   7  10
HETATM   10  C   UNL     1      39.737  41.256  63.430  1.00  0.00    -0.028 A 
HETATM   11  C   UNL     1      39.418  40.119  62.675  1.00  0.00     0.012 A 
HETATM   12  C   UNL     1      39.914  38.863  63.033  1.00  0.00     0.037 A 
HETATM   13  C   UNL     1      40.740  38.715  64.148  1.00  0.00     0.068 A 
HETATM   14  C   UNL     1      41.052  39.834  64.917  1.00  0.00     0.037 A 
HETATM   15  C   UNL     1      40.557  41.094  64.558  1.00  0.00     0.012 A 
BRANCH  13  16
HETATM   16  O   UNL     1      41.166  37.436  64.382  1.00  0.00    -0.356 OA
HETATM   17  C   UNL     1      42.566  37.256  64.565  1.00  0.00     0.210 C 
ENDBRANCH  13  16
ENDBRANCH   7  10
ENDBRANCH   5   7
ENDBRANCH   1   5
BRANCH   2  18
HETATM   18  C   UNL     1      38.838  46.974  65.166  1.00  0.00     0.079 A 
HETATM   19  C   UNL     1      40.046  47.664  65.033  1.00  0.00     0.165 A 
HETATM   20  N   UNL     1      40.080  49.036  65.057  1.00  0.00    -0.241 NA
HETATM   21  C   UNL     1      38.925  49.719  65.188  1.00  0.00     0.119 A 
HETATM   22  C   UNL     1      37.694  49.109  65.307  1.00  0.00     0.020 A 
HETATM   23  C   UNL     1      37.652  47.719  65.310  1.00  0.00     0.022 A 
BRANCH  19  24
HETATM   24  N   UNL     1      41.309  47.012  64.810  1.00  0.00    -0.226 N 
HETATM   25  N   UNL     1      41.410  46.020  63.873  1.00  0.00    -0.179 NA
HETATM   26  C   UNL     1      42.688  45.650  63.895  1.00  0.00     0.141 A 
HETATM   27  C   UNL     1      43.421  46.313  64.883  1.00  0.00     0.040 A 
HETATM   28  C   UNL     1      42.509  47.146  65.486  1.00  0.00     0.122 A 
ENDBRANCH  19  24
ENDBRANCH   2  18
TORSDOF 7
ENDMDL
