MODEL 1
REMARK VINA RESULT:      -9.5      0.000      0.000
REMARK  4 active torsions:
REMARK  status: ('A' for Active; 'I' for Inactive)
REMARK       I    between atoms: C_2  and  N_3 
REMARK    1  A    between atoms: N_7  and  N_8 
REMARK       I    between atoms: N_8  and  C_9 
REMARK    2  A    between atoms: C_9  and  C_10 
REMARK    3  A    between atoms: C_18  and  C_19 
REMARK    4  A    between atoms: C_20  and  O_21 
ROOT
HETATM    1  C   UNL     1      24.688  45.051  50.622  1.00  0.00     0.048 A 
HETATM    2  C   UNL     1      25.179  45.301  51.924  1.00  0.00     0.009 A 
HETATM    3  C   UNL     1      25.376  46.656  52.255  1.00  0.00     0.068 A 
HETATM    4  C   UNL     1      25.895  46.976  53.501  1.00  0.00     0.032 A 
HETATM    5  C   UNL     1      26.202  45.998  54.450  1.00  0.00     0.002 A 
HETATM    6  C   UNL     1      25.966  44.663  54.159  1.00  0.00     0.001 A 
HETATM    7  C   UNL     1      25.450  44.316  52.913  1.00  0.00     0.015 A 
HETATM    8  N   UNL     1      25.069  47.667  51.427  1.00  0.00    -0.247 NA
HETATM    9  C   UNL     1      24.554  47.405  50.202  1.00  0.00     0.071 A 
HETATM   10  C   UNL     1      24.363  46.106  49.766  1.00  0.00     0.050 A 
ENDROOT
BRANCH   1  11
HETATM   11  C   UNL     1      24.448  43.691  50.078  1.00  0.00     0.272 C 
HETATM   12  N   UNL     1      25.275  43.312  49.029  1.00  0.00    -0.243 N 
HETATM   13  H   UNL     1      25.924  43.977  48.629  1.00  0.00     0.192 HD
HETATM   14  O   UNL     1      23.536  43.023  50.553  1.00  0.00    -0.266 OA
BRANCH  12  15
HETATM   15  N   UNL     1      25.074  42.110  48.432  1.00  0.00    -0.181 NA
HETATM   16  C   UNL     1      25.892  41.125  48.643  1.00  0.00     0.035 C 
HETATM   17  C   UNL     1      25.598  39.817  47.938  1.00  0.00     0.076 C 
HETATM   18  C   UNL     1      27.049  41.100  49.616  1.00  0.00     0.076 C 
HETATM   19  C   UNL     1      26.872  39.296  47.297  1.00  0.00     0.131 C 
HETATM   20  N   UNL     1      27.976  39.245  48.259  1.00  0.00    -0.352 N 
HETATM   21  C   UNL     1      28.846  38.161  48.200  1.00  0.00     0.215 C 
HETATM   22  C   UNL     1      28.277  40.507  48.937  1.00  0.00     0.131 C 
HETATM   23  C   UNL     1      30.027  38.171  49.138  1.00  0.00     0.117 C 
HETATM   24  O   UNL     1      28.674  37.208  47.441  1.00  0.00    -0.274 OA
ENDBRANCH  12  15
ENDBRANCH   1  11
BRANCH   9  25
HETATM   25  C   UNL     1      24.148  48.570  49.390  1.00  0.00     0.026 A 
HETATM   26  C   UNL     1      25.038  49.273  48.555  1.00  0.00     0.080 A 
HETATM   27  C   UNL     1      24.608  50.360  47.783  1.00  0.00     0.037 A 
HETATM   28  C   UNL     1      23.287  50.793  47.855  1.00  0.00     0.003 A 
HETATM   29  C   UNL     1      22.391  50.131  48.688  1.00  0.00     0.001 A 
HETATM   30  C   UNL     1      22.816  49.034  49.443  1.00  0.00     0.016 A 
BRANCH  26  31
HETATM   31  O   UNL     1      26.336  48.845  48.412  1.00  0.00    -0.355 OA
HETATM   32  C   UNL     1      27.244  49.887  48.773  1.00  0.00     0.210 C 
ENDBRANCH  26  31
ENDBRANCH   9  25
TORSDOF 4
ENDMDL
MODEL 2
REMARK VINA RESULT:      -9.2      3.550      8.912
REMARK  4 active torsions:
REMARK  status: ('A' for Active; 'I' for Inactive)
REMARK       I    between atoms: C_2  and  N_3 
REMARK    1  A    between atoms: N_7  and  N_8 
REMARK       I    between atoms: N_8  and  C_9 
REMARK    2  A    between atoms: C_9  and  C_10 
REMARK    3  A    between atoms: C_18  and  C_19 
REMARK    4  A    between atoms: C_20  and  O_21 
ROOT
HETATM    1  C   UNL     1      25.630  45.497  51.226  1.00  0.00     0.048 A 
HETATM    2  C   UNL     1      25.034  44.371  50.613  1.00  0.00     0.009 A 
HETATM    3  C   UNL     1      25.690  43.142  50.820  1.00  0.00     0.068 A 
HETATM    4  C   UNL     1      25.186  42.000  50.213  1.00  0.00     0.032 A 
HETATM    5  C   UNL     1      24.032  42.026  49.426  1.00  0.00     0.002 A 
HETATM    6  C   UNL     1      23.346  43.219  49.255  1.00  0.00     0.001 A 
HETATM    7  C   UNL     1      23.835  44.380  49.849  1.00  0.00     0.015 A 
HETATM    8  N   UNL     1      26.777  43.010  51.595  1.00  0.00    -0.247 NA
HETATM    9  C   UNL     1      27.303  44.094  52.213  1.00  0.00     0.071 A 
HETATM   10  C   UNL     1      26.758  45.355  52.038  1.00  0.00     0.050 A 
ENDROOT
BRANCH   1  11
HETATM   11  C   UNL     1      25.108  46.880  51.098  1.00  0.00     0.272 C 
HETATM   12  N   UNL     1      24.925  47.332  49.798  1.00  0.00    -0.243 N 
HETATM   13  H   UNL     1      25.224  46.763  49.016  1.00  0.00     0.192 HD
HETATM   14  O   UNL     1      24.912  47.529  52.120  1.00  0.00    -0.266 OA
BRANCH  12  15
HETATM   15  N   UNL     1      24.515  48.610  49.595  1.00  0.00    -0.181 NA
HETATM   16  C   UNL     1      23.287  48.862  49.259  1.00  0.00     0.035 C 
HETATM   17  C   UNL     1      22.910  50.314  49.051  1.00  0.00     0.076 C 
HETATM   18  C   UNL     1      22.150  47.869  49.167  1.00  0.00     0.076 C 
HETATM   19  C   UNL     1      22.138  50.449  47.751  1.00  0.00     0.131 C 
HETATM   20  N   UNL     1      21.019  49.505  47.689  1.00  0.00    -0.352 N 
HETATM   21  C   UNL     1      19.823  49.943  47.130  1.00  0.00     0.215 C 
HETATM   22  C   UNL     1      21.374  48.097  47.877  1.00  0.00     0.131 C 
HETATM   23  C   UNL     1      18.712  48.933  46.993  1.00  0.00     0.117 C 
HETATM   24  O   UNL     1      19.641  51.106  46.772  1.00  0.00    -0.274 OA
ENDBRANCH  12  15
ENDBRANCH   1  11
BRANCH   9  25
HETATM   25  C   UNL     1      28.437  43.853  53.127  1.00  0.00     0.026 A 
HETATM   26  C   UNL     1      28.566  44.489  54.377  1.00  0.00     0.080 A 
HETATM   27  C   UNL     1      29.647  44.216  55.225  1.00  0.00     0.037 A 
HETATM   28  C   UNL     1      30.643  43.327  54.829  1.00  0.00     0.003 A 
HETATM   29  C   UNL     1      30.553  42.702  53.590  1.00  0.00     0.001 A 
HETATM   30  C   UNL     1      29.464  42.960  52.753  1.00  0.00     0.016 A 
BRANCH  26  31
HETATM   31  O   UNL     1      27.578  45.329  54.831  1.00  0.00    -0.355 OA
HETATM   32  C   UNL     1      28.148  46.417  55.559  1.00  0.00     0.210 C 
ENDBRANCH  26  31
ENDBRANCH   9  25
TORSDOF 4
ENDMDL
MODEL 3
REMARK VINA RESULT:      -9.2      3.941      6.027
REMARK  4 active torsions:
REMARK  status: ('A' for Active; 'I' for Inactive)
REMARK       I    between atoms: C_2  and  N_3 
REMARK    1  A    between atoms: N_7  and  N_8 
REMARK       I    between atoms: N_8  and  C_9 
REMARK    2  A    between atoms: C_9  and  C_10 
REMARK    3  A    between atoms: C_18  and  C_19 
REMARK    4  A    between atoms: C_20  and  O_21 
ROOT
HETATM    1  C   UNL     1      24.877  46.584  49.663  1.00  0.00     0.048 A 
HETATM    2  C   UNL     1      25.635  47.731  49.337  1.00  0.00     0.009 A 
HETATM    3  C   UNL     1      24.914  48.805  48.779  1.00  0.00     0.068 A 
HETATM    4  C   UNL     1      25.599  49.948  48.395  1.00  0.00     0.032 A 
HETATM    5  C   UNL     1      26.978  50.081  48.570  1.00  0.00     0.002 A 
HETATM    6  C   UNL     1      27.695  49.053  49.163  1.00  0.00     0.001 A 
HETATM    7  C   UNL     1      27.031  47.893  49.554  1.00  0.00     0.015 A 
HETATM    8  N   UNL     1      23.582  48.788  48.614  1.00  0.00    -0.247 NA
HETATM    9  C   UNL     1      22.868  47.696  48.980  1.00  0.00     0.071 A 
HETATM   10  C   UNL     1      23.490  46.572  49.497  1.00  0.00     0.050 A 
ENDROOT
BRANCH   1  11
HETATM   11  C   UNL     1      25.460  45.342  50.228  1.00  0.00     0.272 C 
HETATM   12  N   UNL     1      25.539  45.294  51.613  1.00  0.00    -0.243 N 
HETATM   13  H   UNL     1      25.292  46.105  52.164  1.00  0.00     0.192 HD
HETATM   14  O   UNL     1      25.857  44.477  49.454  1.00  0.00    -0.266 OA
BRANCH  12  15
HETATM   15  N   UNL     1      26.123  44.219  52.204  1.00  0.00    -0.181 NA
HETATM   16  C   UNL     1      26.834  44.365  53.280  1.00  0.00     0.035 C 
HETATM   17  C   UNL     1      27.452  43.118  53.875  1.00  0.00     0.076 C 
HETATM   18  C   UNL     1      27.018  45.635  54.079  1.00  0.00     0.076 C 
HETATM   19  C   UNL     1      28.913  43.385  54.193  1.00  0.00     0.131 C 
HETATM   20  N   UNL     1      29.074  44.599  54.998  1.00  0.00    -0.352 N 
HETATM   21  C   UNL     1      30.026  44.591  56.012  1.00  0.00     0.215 C 
HETATM   22  C   UNL     1      28.491  45.814  54.424  1.00  0.00     0.131 C 
HETATM   23  C   UNL     1      30.241  45.877  56.769  1.00  0.00     0.117 C 
HETATM   24  O   UNL     1      30.666  43.585  56.317  1.00  0.00    -0.274 OA
ENDBRANCH  12  15
ENDBRANCH   1  11
BRANCH   9  25
HETATM   25  C   UNL     1      21.400  47.792  48.861  1.00  0.00     0.026 A 
HETATM   26  C   UNL     1      20.666  48.917  49.284  1.00  0.00     0.080 A 
HETATM   27  C   UNL     1      19.274  48.978  49.134  1.00  0.00     0.037 A 
HETATM   28  C   UNL     1      18.580  47.901  48.590  1.00  0.00     0.003 A 
HETATM   29  C   UNL     1      19.276  46.768  48.185  1.00  0.00     0.001 A 
HETATM   30  C   UNL     1      20.667  46.716  48.317  1.00  0.00     0.016 A 
BRANCH  26  31
HETATM   31  O   UNL     1      21.317  50.024  49.773  1.00  0.00    -0.355 OA
HETATM   32  C   UNL     1      20.379  51.056  50.080  1.00  0.00     0.210 C 
ENDBRANCH  26  31
ENDBRANCH   9  25
TORSDOF 4
ENDMDL
MODEL 4
REMARK VINA RESULT:      -9.2      3.833      9.190
REMARK  4 active torsions:
REMARK  status: ('A' for Active; 'I' for Inactive)
REMARK       I    between atoms: C_2  and  N_3 
REMARK    1  A    between atoms: N_7  and  N_8 
REMARK       I    between atoms: N_8  and  C_9 
REMARK    2  A    between atoms: C_9  and  C_10 
REMARK    3  A    between atoms: C_18  and  C_19 
REMARK    4  A    between atoms: C_20  and  O_21 
ROOT
HETATM    1  C   UNL     1      24.595  46.782  50.488  1.00  0.00     0.048 A 
HETATM    2  C   UNL     1      24.109  45.483  50.216  1.00  0.00     0.009 A 
HETATM    3  C   UNL     1      24.602  44.458  51.047  1.00  0.00     0.068 A 
HETATM    4  C   UNL     1      24.202  43.151  50.811  1.00  0.00     0.032 A 
HETATM    5  C   UNL     1      23.303  42.821  49.794  1.00  0.00     0.002 A 
HETATM    6  C   UNL     1      22.770  43.825  49.001  1.00  0.00     0.001 A 
HETATM    7  C   UNL     1      23.159  45.145  49.213  1.00  0.00     0.015 A 
HETATM    8  N   UNL     1      25.433  44.682  52.076  1.00  0.00    -0.247 NA
HETATM    9  C   UNL     1      25.847  45.943  52.349  1.00  0.00     0.071 A 
HETATM   10  C   UNL     1      25.454  47.014  51.565  1.00  0.00     0.050 A 
ENDROOT
BRANCH   1  11
HETATM   11  C   UNL     1      24.220  47.985  49.704  1.00  0.00     0.272 C 
HETATM   12  N   UNL     1      22.903  48.404  49.843  1.00  0.00    -0.243 N 
HETATM   13  H   UNL     1      22.249  47.850  50.380  1.00  0.00     0.192 HD
HETATM   14  O   UNL     1      25.064  48.495  48.975  1.00  0.00    -0.266 OA
BRANCH  12  15
HETATM   15  N   UNL     1      22.464  49.457  49.107  1.00  0.00    -0.181 NA
HETATM   16  C   UNL     1      21.193  49.670  48.956  1.00  0.00     0.035 C 
HETATM   17  C   UNL     1      20.786  50.864  48.119  1.00  0.00     0.076 C 
HETATM   18  C   UNL     1      20.063  48.923  49.627  1.00  0.00     0.076 C 
HETATM   19  C   UNL     1      19.715  50.440  47.129  1.00  0.00     0.131 C 
HETATM   20  N   UNL     1      18.610  49.748  47.797  1.00  0.00    -0.352 N 
HETATM   21  C   UNL     1      17.316  50.006  47.358  1.00  0.00     0.215 C 
HETATM   22  C   UNL     1      18.991  48.584  48.599  1.00  0.00     0.131 C 
HETATM   23  C   UNL     1      16.199  49.219  47.995  1.00  0.00     0.117 C 
HETATM   24  O   UNL     1      17.058  50.853  46.503  1.00  0.00    -0.274 OA
ENDBRANCH  12  15
ENDBRANCH   1  11
BRANCH   9  25
HETATM   25  C   UNL     1      26.679  46.122  53.556  1.00  0.00     0.026 A 
HETATM   26  C   UNL     1      27.650  45.189  53.966  1.00  0.00     0.080 A 
HETATM   27  C   UNL     1      28.434  45.406  55.107  1.00  0.00     0.037 A 
HETATM   28  C   UNL     1      28.240  46.544  55.885  1.00  0.00     0.003 A 
HETATM   29  C   UNL     1      27.271  47.472  55.517  1.00  0.00     0.001 A 
HETATM   30  C   UNL     1      26.503  47.264  54.367  1.00  0.00     0.016 A 
BRANCH  26  31
HETATM   31  O   UNL     1      27.913  44.081  53.197  1.00  0.00    -0.355 OA
HETATM   32  C   UNL     1      28.010  42.917  54.019  1.00  0.00     0.210 C 
ENDBRANCH  26  31
ENDBRANCH   9  25
TORSDOF 4
ENDMDL
MODEL 5
REMARK VINA RESULT:      -9.0      3.295      6.062
REMARK  4 active torsions:
REMARK  status: ('A' for Active; 'I' for Inactive)
REMARK       I    between atoms: C_2  and  N_3 
REMARK    1  A    between atoms: N_7  and  N_8 
REMARK       I    between atoms: N_8  and  C_9 
REMARK    2  A    between atoms: C_9  and  C_10 
REMARK    3  A    between atoms: C_18  and  C_19 
REMARK    4  A    between atoms: C_20  and  O_21 
ROOT
HETATM    1  C   UNL     1      27.236  42.489  51.586  1.00  0.00     0.048 A 
HETATM    2  C   UNL     1      26.500  43.535  50.985  1.00  0.00     0.009 A 
HETATM    3  C   UNL     1      26.537  44.774  51.655  1.00  0.00     0.068 A 
HETATM    4  C   UNL     1      25.804  45.836  51.146  1.00  0.00     0.032 A 
HETATM    5  C   UNL     1      25.052  45.725  49.974  1.00  0.00     0.002 A 
HETATM    6  C   UNL     1      25.046  44.528  49.275  1.00  0.00     0.001 A 
HETATM    7  C   UNL     1      25.770  43.444  49.768  1.00  0.00     0.015 A 
HETATM    8  N   UNL     1      27.266  44.990  52.761  1.00  0.00    -0.247 NA
HETATM    9  C   UNL     1      28.003  43.985  53.292  1.00  0.00     0.071 A 
HETATM   10  C   UNL     1      27.998  42.718  52.734  1.00  0.00     0.050 A 
ENDROOT
BRANCH   1  11
HETATM   11  C   UNL     1      27.292  41.106  51.050  1.00  0.00     0.272 C 
HETATM   12  N   UNL     1      28.539  40.686  50.607  1.00  0.00    -0.243 N 
HETATM   13  H   UNL     1      29.313  41.337  50.581  1.00  0.00     0.192 HD
HETATM   14  O   UNL     1      26.254  40.454  51.003  1.00  0.00    -0.266 OA
BRANCH  12  15
HETATM   15  N   UNL     1      28.659  39.458  50.040  1.00  0.00    -0.181 NA
HETATM   16  C   UNL     1      28.670  39.327  48.749  1.00  0.00     0.035 C 
HETATM   17  C   UNL     1      28.806  37.923  48.198  1.00  0.00     0.076 C 
HETATM   18  C   UNL     1      28.682  40.439  47.725  1.00  0.00     0.076 C 
HETATM   19  C   UNL     1      27.767  37.709  47.111  1.00  0.00     0.131 C 
HETATM   20  N   UNL     1      27.813  38.775  46.106  1.00  0.00    -0.352 N 
HETATM   21  C   UNL     1      27.634  38.425  44.773  1.00  0.00     0.215 C 
HETATM   22  C   UNL     1      27.669  40.136  46.628  1.00  0.00     0.131 C 
HETATM   23  C   UNL     1      27.595  39.545  43.763  1.00  0.00     0.117 C 
HETATM   24  O   UNL     1      27.532  37.258  44.397  1.00  0.00    -0.274 OA
ENDBRANCH  12  15
ENDBRANCH   1  11
BRANCH   9  25
HETATM   25  C   UNL     1      28.855  44.326  54.448  1.00  0.00     0.026 A 
HETATM   26  C   UNL     1      28.598  45.420  55.297  1.00  0.00     0.080 A 
HETATM   27  C   UNL     1      29.419  45.698  56.398  1.00  0.00     0.037 A 
HETATM   28  C   UNL     1      30.537  44.909  56.655  1.00  0.00     0.003 A 
HETATM   29  C   UNL     1      30.829  43.835  55.820  1.00  0.00     0.001 A 
HETATM   30  C   UNL     1      29.997  43.548  54.734  1.00  0.00     0.016 A 
BRANCH  26  31
HETATM   31  O   UNL     1      27.474  46.190  55.112  1.00  0.00    -0.355 OA
HETATM   32  C   UNL     1      27.830  47.569  55.003  1.00  0.00     0.210 C 
ENDBRANCH  26  31
ENDBRANCH   9  25
TORSDOF 4
ENDMDL
MODEL 6
REMARK VINA RESULT:      -8.9      3.655      7.581
REMARK  4 active torsions:
REMARK  status: ('A' for Active; 'I' for Inactive)
REMARK       I    between atoms: C_2  and  N_3 
REMARK    1  A    between atoms: N_7  and  N_8 
REMARK       I    between atoms: N_8  and  C_9 
REMARK    2  A    between atoms: C_9  and  C_10 
REMARK    3  A    between atoms: C_18  and  C_19 
REMARK    4  A    between atoms: C_20  and  O_21 
ROOT
HETATM    1  C   UNL     1      27.590  43.469  51.418  1.00  0.00     0.048 A 
HETATM    2  C   UNL     1      27.828  42.106  51.128  1.00  0.00     0.009 A 
HETATM    3  C   UNL     1      28.722  41.443  51.992  1.00  0.00     0.068 A 
HETATM    4  C   UNL     1      29.036  40.115  51.744  1.00  0.00     0.032 A 
HETATM    5  C   UNL     1      28.473  39.405  50.681  1.00  0.00     0.002 A 
HETATM    6  C   UNL     1      27.553  40.028  49.853  1.00  0.00     0.001 A 
HETATM    7  C   UNL     1      27.224  41.363  50.077  1.00  0.00     0.015 A 
HETATM    8  N   UNL     1      29.277  42.028  53.065  1.00  0.00    -0.247 NA
HETATM    9  C   UNL     1      28.997  43.322  53.352  1.00  0.00     0.071 A 
HETATM   10  C   UNL     1      28.165  44.073  52.539  1.00  0.00     0.050 A 
ENDROOT
BRANCH   1  11
HETATM   11  C   UNL     1      26.708  44.344  50.606  1.00  0.00     0.272 C 
HETATM   12  N   UNL     1      25.385  44.410  51.020  1.00  0.00    -0.243 N 
HETATM   13  H   UNL     1      25.059  43.818  51.773  1.00  0.00     0.192 HD
HETATM   14  O   UNL     1      27.185  44.907  49.626  1.00  0.00    -0.266 OA
BRANCH  12  15
HETATM   15  N   UNL     1      24.500  45.135  50.289  1.00  0.00    -0.181 NA
HETATM   16  C   UNL     1      23.616  44.542  49.548  1.00  0.00     0.035 C 
HETATM   17  C   UNL     1      22.667  45.423  48.763  1.00  0.00     0.076 C 
HETATM   18  C   UNL     1      23.347  43.056  49.471  1.00  0.00     0.076 C 
HETATM   19  C   UNL     1      22.595  44.929  47.329  1.00  0.00     0.131 C 
HETATM   20  N   UNL     1      22.300  43.495  47.268  1.00  0.00    -0.352 N 
HETATM   21  C   UNL     1      21.439  43.046  46.274  1.00  0.00     0.215 C 
HETATM   22  C   UNL     1      23.220  42.633  48.014  1.00  0.00     0.131 C 
HETATM   23  C   UNL     1      21.218  41.558  46.170  1.00  0.00     0.117 C 
HETATM   24  O   UNL     1      20.848  43.808  45.508  1.00  0.00    -0.274 OA
ENDBRANCH  12  15
ENDBRANCH   1  11
BRANCH   9  25
HETATM   25  C   UNL     1      29.566  43.864  54.601  1.00  0.00     0.026 A 
HETATM   26  C   UNL     1      29.107  45.050  55.204  1.00  0.00     0.080 A 
HETATM   27  C   UNL     1      29.659  45.520  56.403  1.00  0.00     0.037 A 
HETATM   28  C   UNL     1      30.709  44.833  57.008  1.00  0.00     0.003 A 
HETATM   29  C   UNL     1      31.198  43.670  56.422  1.00  0.00     0.001 A 
HETATM   30  C   UNL     1      30.632  43.192  55.237  1.00  0.00     0.016 A 
BRANCH  26  31
HETATM   31  O   UNL     1      28.036  45.728  54.672  1.00  0.00    -0.355 OA
HETATM   32  C   UNL     1      27.944  47.035  55.240  1.00  0.00     0.210 C 
ENDBRANCH  26  31
ENDBRANCH   9  25
TORSDOF 4
ENDMDL
MODEL 7
REMARK VINA RESULT:      -8.8      3.798      8.369
REMARK  4 active torsions:
REMARK  status: ('A' for Active; 'I' for Inactive)
REMARK       I    between atoms: C_2  and  N_3 
REMARK    1  A    between atoms: N_7  and  N_8 
REMARK       I    between atoms: N_8  and  C_9 
REMARK    2  A    between atoms: C_9  and  C_10 
REMARK    3  A    between atoms: C_18  and  C_19 
REMARK    4  A    between atoms: C_20  and  O_21 
ROOT
HETATM    1  C   UNL     1      27.141  44.500  52.552  1.00  0.00     0.048 A 
HETATM    2  C   UNL     1      27.200  43.246  51.903  1.00  0.00     0.009 A 
HETATM    3  C   UNL     1      28.199  42.365  52.362  1.00  0.00     0.068 A 
HETATM    4  C   UNL     1      28.344  41.132  51.744  1.00  0.00     0.032 A 
HETATM    5  C   UNL     1      27.512  40.723  50.699  1.00  0.00     0.002 A 
HETATM    6  C   UNL     1      26.492  41.557  50.270  1.00  0.00     0.001 A 
HETATM    7  C   UNL     1      26.328  42.803  50.871  1.00  0.00     0.015 A 
HETATM    8  N   UNL     1      29.016  42.651  53.388  1.00  0.00    -0.247 NA
HETATM    9  C   UNL     1      28.909  43.840  54.027  1.00  0.00     0.071 A 
HETATM   10  C   UNL     1      27.988  44.792  53.624  1.00  0.00     0.050 A 
ENDROOT
BRANCH   1  11
HETATM   11  C   UNL     1      26.181  45.573  52.189  1.00  0.00     0.272 C 
HETATM   12  N   UNL     1      26.297  46.067  50.897  1.00  0.00    -0.243 N 
HETATM   13  H   UNL     1      27.054  45.758  50.302  1.00  0.00     0.192 HD
HETATM   14  O   UNL     1      25.393  45.966  53.042  1.00  0.00    -0.266 OA
BRANCH  12  15
HETATM   15  N   UNL     1      25.500  47.096  50.510  1.00  0.00    -0.181 NA
HETATM   16  C   UNL     1      24.338  46.866  49.979  1.00  0.00     0.035 C 
HETATM   17  C   UNL     1      23.512  48.068  49.574  1.00  0.00     0.076 C 
HETATM   18  C   UNL     1      23.661  45.522  49.827  1.00  0.00     0.076 C 
HETATM   19  C   UNL     1      22.973  47.856  48.170  1.00  0.00     0.131 C 
HETATM   20  N   UNL     1      22.290  46.566  48.046  1.00  0.00    -0.352 N 
HETATM   21  C   UNL     1      21.130  46.511  47.281  1.00  0.00     0.215 C 
HETATM   22  C   UNL     1      23.085  45.395  48.423  1.00  0.00     0.131 C 
HETATM   23  C   UNL     1      20.490  45.159  47.091  1.00  0.00     0.117 C 
HETATM   24  O   UNL     1      20.609  47.510  46.785  1.00  0.00    -0.274 OA
ENDBRANCH  12  15
ENDBRANCH   1  11
BRANCH   9  25
HETATM   25  C   UNL     1      29.772  44.040  55.207  1.00  0.00     0.026 A 
HETATM   26  C   UNL     1      29.792  45.234  55.953  1.00  0.00     0.080 A 
HETATM   27  C   UNL     1      30.611  45.376  57.081  1.00  0.00     0.037 A 
HETATM   28  C   UNL     1      31.457  44.341  57.469  1.00  0.00     0.003 A 
HETATM   29  C   UNL     1      31.475  43.158  56.737  1.00  0.00     0.001 A 
HETATM   30  C   UNL     1      30.643  43.010  55.624  1.00  0.00     0.016 A 
BRANCH  26  31
HETATM   31  O   UNL     1      28.933  46.260  55.639  1.00  0.00    -0.355 OA
HETATM   32  C   UNL     1      28.154  46.621  56.780  1.00  0.00     0.210 C 
ENDBRANCH  26  31
ENDBRANCH   9  25
TORSDOF 4
ENDMDL
MODEL 8
REMARK VINA RESULT:      -8.8      4.454      7.913
REMARK  4 active torsions:
REMARK  status: ('A' for Active; 'I' for Inactive)
REMARK       I    between atoms: C_2  and  N_3 
REMARK    1  A    between atoms: N_7  and  N_8 
REMARK       I    between atoms: N_8  and  C_9 
REMARK    2  A    between atoms: C_9  and  C_10 
REMARK    3  A    between atoms: C_18  and  C_19 
REMARK    4  A    between atoms: C_20  and  O_21 
ROOT
HETATM    1  C   UNL     1      21.296  48.946  47.697  1.00  0.00     0.048 A 
HETATM    2  C   UNL     1      20.408  50.039  47.819  1.00  0.00     0.009 A 
HETATM    3  C   UNL     1      19.163  49.892  47.175  1.00  0.00     0.068 A 
HETATM    4  C   UNL     1      18.257  50.942  47.216  1.00  0.00     0.032 A 
HETATM    5  C   UNL     1      18.527  52.130  47.899  1.00  0.00     0.002 A 
HETATM    6  C   UNL     1      19.726  52.270  48.580  1.00  0.00     0.001 A 
HETATM    7  C   UNL     1      20.656  51.232  48.551  1.00  0.00     0.015 A 
HETATM    8  N   UNL     1      18.796  48.773  46.532  1.00  0.00    -0.247 NA
HETATM    9  C   UNL     1      19.645  47.719  46.470  1.00  0.00     0.071 A 
HETATM   10  C   UNL     1      20.908  47.780  47.033  1.00  0.00     0.050 A 
ENDROOT
BRANCH   1  11
HETATM   11  C   UNL     1      22.662  48.925  48.275  1.00  0.00     0.272 C 
HETATM   12  N   UNL     1      22.776  48.321  49.521  1.00  0.00    -0.243 N 
HETATM   13  H   UNL     1      21.947  48.011  50.011  1.00  0.00     0.192 HD
HETATM   14  O   UNL     1      23.572  49.459  47.649  1.00  0.00    -0.266 OA
BRANCH  12  15
HETATM   15  N   UNL     1      23.981  48.322  50.146  1.00  0.00    -0.181 NA
HETATM   16  C   UNL     1      24.651  47.219  50.284  1.00  0.00     0.035 C 
HETATM   17  C   UNL     1      25.985  47.304  50.995  1.00  0.00     0.076 C 
HETATM   18  C   UNL     1      24.301  45.867  49.704  1.00  0.00     0.076 C 
HETATM   19  C   UNL     1      26.072  46.199  52.033  1.00  0.00     0.131 C 
HETATM   20  N   UNL     1      25.764  44.890  51.450  1.00  0.00    -0.352 N 
HETATM   21  C   UNL     1      26.512  43.795  51.869  1.00  0.00     0.215 C 
HETATM   22  C   UNL     1      24.470  44.793  50.771  1.00  0.00     0.131 C 
HETATM   23  C   UNL     1      26.123  42.443  51.327  1.00  0.00     0.117 C 
HETATM   24  O   UNL     1      27.472  43.896  52.634  1.00  0.00    -0.274 OA
ENDBRANCH  12  15
ENDBRANCH   1  11
BRANCH   9  25
HETATM   25  C   UNL     1      19.131  46.490  45.834  1.00  0.00     0.026 A 
HETATM   26  C   UNL     1      18.608  45.406  46.565  1.00  0.00     0.080 A 
HETATM   27  C   UNL     1      18.110  44.265  45.922  1.00  0.00     0.037 A 
HETATM   28  C   UNL     1      18.157  44.165  44.534  1.00  0.00     0.003 A 
HETATM   29  C   UNL     1      18.689  45.211  43.787  1.00  0.00     0.001 A 
HETATM   30  C   UNL     1      19.168  46.357  44.429  1.00  0.00     0.016 A 
BRANCH  26  31
HETATM   31  O   UNL     1      18.491  45.486  47.932  1.00  0.00    -0.355 OA
HETATM   32  C   UNL     1      17.233  46.059  48.290  1.00  0.00     0.210 C 
ENDBRANCH  26  31
ENDBRANCH   9  25
TORSDOF 4
ENDMDL
MODEL 9
REMARK VINA RESULT:      -8.7      3.600      5.897
REMARK  4 active torsions:
REMARK  status: ('A' for Active; 'I' for Inactive)
REMARK       I    between atoms: C_2  and  N_3 
REMARK    1  A    between atoms: N_7  and  N_8 
REMARK       I    between atoms: N_8  and  C_9 
REMARK    2  A    between atoms: C_9  and  C_10 
REMARK    3  A    between atoms: C_18  and  C_19 
REMARK    4  A    between atoms: C_20  and  O_21 
ROOT
HETATM    1  C   UNL     1      22.537  47.383  48.675  1.00  0.00     0.048 A 
HETATM    2  C   UNL     1      22.118  46.568  47.598  1.00  0.00     0.009 A 
HETATM    3  C   UNL     1      20.875  46.901  47.025  1.00  0.00     0.068 A 
HETATM    4  C   UNL     1      20.380  46.120  45.992  1.00  0.00     0.032 A 
HETATM    5  C   UNL     1      21.088  45.029  45.480  1.00  0.00     0.002 A 
HETATM    6  C   UNL     1      22.335  44.719  45.999  1.00  0.00     0.001 A 
HETATM    7  C   UNL     1      22.853  45.486  47.041  1.00  0.00     0.015 A 
HETATM    8  N   UNL     1      20.144  47.956  47.418  1.00  0.00    -0.247 NA
HETATM    9  C   UNL     1      20.588  48.752  48.419  1.00  0.00     0.071 A 
HETATM   10  C   UNL     1      21.777  48.484  49.076  1.00  0.00     0.050 A 
ENDROOT
BRANCH   1  11
HETATM   11  C   UNL     1      23.798  47.171  49.428  1.00  0.00     0.272 C 
HETATM   12  N   UNL     1      23.832  46.039  50.232  1.00  0.00    -0.243 N 
HETATM   13  H   UNL     1      23.002  45.471  50.342  1.00  0.00     0.192 HD
HETATM   14  O   UNL     1      24.690  48.006  49.322  1.00  0.00    -0.266 OA
BRANCH  12  15
HETATM   15  N   UNL     1      24.925  45.812  51.005  1.00  0.00    -0.181 NA
HETATM   16  C   UNL     1      25.661  44.761  50.810  1.00  0.00     0.035 C 
HETATM   17  C   UNL     1      26.861  44.579  51.716  1.00  0.00     0.076 C 
HETATM   18  C   UNL     1      25.522  43.750  49.694  1.00  0.00     0.076 C 
HETATM   19  C   UNL     1      26.888  43.152  52.232  1.00  0.00     0.131 C 
HETATM   20  N   UNL     1      26.787  42.182  51.138  1.00  0.00    -0.352 N 
HETATM   21  C   UNL     1      27.556  41.027  51.214  1.00  0.00     0.215 C 
HETATM   22  C   UNL     1      25.623  42.341  50.264  1.00  0.00     0.131 C 
HETATM   23  C   UNL     1      27.373  40.000  50.125  1.00  0.00     0.117 C 
HETATM   24  O   UNL     1      28.378  40.830  52.109  1.00  0.00    -0.274 OA
ENDBRANCH  12  15
ENDBRANCH   1  11
BRANCH   9  25
HETATM   25  C   UNL     1      19.779  49.948  48.726  1.00  0.00     0.026 A 
HETATM   26  C   UNL     1      18.604  49.904  49.501  1.00  0.00     0.080 A 
HETATM   27  C   UNL     1      17.875  51.066  49.787  1.00  0.00     0.037 A 
HETATM   28  C   UNL     1      18.284  52.294  49.275  1.00  0.00     0.003 A 
HETATM   29  C   UNL     1      19.428  52.365  48.487  1.00  0.00     0.001 A 
HETATM   30  C   UNL     1      20.165  51.208  48.219  1.00  0.00     0.016 A 
BRANCH  26  31
HETATM   31  O   UNL     1      18.196  48.723  50.072  1.00  0.00    -0.355 OA
HETATM   32  C   UNL     1      18.608  48.664  51.438  1.00  0.00     0.210 C 
ENDBRANCH  26  31
ENDBRANCH   9  25
TORSDOF 4
ENDMDL
MODEL 10
REMARK VINA RESULT:      -8.7      3.900      6.677
REMARK  4 active torsions:
REMARK  status: ('A' for Active; 'I' for Inactive)
REMARK       I    between atoms: C_2  and  N_3 
REMARK    1  A    between atoms: N_7  and  N_8 
REMARK       I    between atoms: N_8  and  C_9 
REMARK    2  A    between atoms: C_9  and  C_10 
REMARK    3  A    between atoms: C_18  and  C_19 
REMARK    4  A    between atoms: C_20  and  O_21 
ROOT
HETATM    1  C   UNL     1      22.796  46.891  48.740  1.00  0.00     0.048 A 
HETATM    2  C   UNL     1      23.364  48.171  48.547  1.00  0.00     0.009 A 
HETATM    3  C   UNL     1      22.482  49.172  48.096  1.00  0.00     0.068 A 
HETATM    4  C   UNL     1      22.978  50.443  47.844  1.00  0.00     0.032 A 
HETATM    5  C   UNL     1      24.320  50.770  48.050  1.00  0.00     0.002 A 
HETATM    6  C   UNL     1      25.191  49.810  48.542  1.00  0.00     0.001 A 
HETATM    7  C   UNL     1      24.718  48.524  48.799  1.00  0.00     0.015 A 
HETATM    8  N   UNL     1      21.168  48.965  47.912  1.00  0.00    -0.247 NA
HETATM    9  C   UNL     1      20.636  47.743  48.150  1.00  0.00     0.071 A 
HETATM   10  C   UNL     1      21.427  46.681  48.554  1.00  0.00     0.050 A 
ENDROOT
BRANCH   1  11
HETATM   11  C   UNL     1      23.569  45.702  49.178  1.00  0.00     0.272 C 
HETATM   12  N   UNL     1      23.957  45.699  50.511  1.00  0.00    -0.243 N 
HETATM   13  H   UNL     1      23.787  46.511  51.091  1.00  0.00     0.192 HD
HETATM   14  O   UNL     1      23.837  44.841  48.348  1.00  0.00    -0.266 OA
BRANCH  12  15
HETATM   15  N   UNL     1      24.725  44.679  50.972  1.00  0.00    -0.181 NA
HETATM   16  C   UNL     1      25.404  44.810  52.070  1.00  0.00     0.035 C 
HETATM   17  C   UNL     1      26.236  43.626  52.515  1.00  0.00     0.076 C 
HETATM   18  C   UNL     1      25.364  45.981  53.026  1.00  0.00     0.076 C 
HETATM   19  C   UNL     1      27.628  44.104  52.890  1.00  0.00     0.131 C 
HETATM   20  N   UNL     1      27.575  45.216  53.843  1.00  0.00    -0.352 N 
HETATM   21  C   UNL     1      28.518  45.247  54.865  1.00  0.00     0.215 C 
HETATM   22  C   UNL     1      26.783  46.372  53.417  1.00  0.00     0.131 C 
HETATM   23  C   UNL     1      28.506  46.444  55.782  1.00  0.00     0.117 C 
HETATM   24  O   UNL     1      29.329  44.340  55.052  1.00  0.00    -0.274 OA
ENDBRANCH  12  15
ENDBRANCH   1  11
BRANCH   9  25
HETATM   25  C   UNL     1      19.170  47.621  48.022  1.00  0.00     0.026 A 
HETATM   26  C   UNL     1      18.287  47.781  49.107  1.00  0.00     0.080 A 
HETATM   27  C   UNL     1      16.900  47.679  48.940  1.00  0.00     0.037 A 
HETATM   28  C   UNL     1      16.365  47.377  47.690  1.00  0.00     0.003 A 
HETATM   29  C   UNL     1      17.214  47.190  46.605  1.00  0.00     0.001 A 
HETATM   30  C   UNL     1      18.597  47.312  46.769  1.00  0.00     0.016 A 
BRANCH  26  31
HETATM   31  O   UNL     1      18.769  48.135  50.344  1.00  0.00    -0.355 OA
HETATM   32  C   UNL     1      18.631  49.542  50.547  1.00  0.00     0.210 C 
ENDBRANCH  26  31
ENDBRANCH   9  25
TORSDOF 4
ENDMDL
