MODEL 1
REMARK VINA RESULT:      -8.0      0.000      0.000
REMARK  4 active torsions:
REMARK  status: ('A' for Active; 'I' for Inactive)
REMARK    1  A    between atoms: C_2  and  N_3 
REMARK    2  A    between atoms: C_2  and  C_4 
REMARK    3  A    between atoms: C_7  and  C_10 
REMARK       I    between atoms: C_10  and  N_12 
REMARK    4  A    between atoms: N_12  and  C_13 
ROOT
HETATM    1  C   UNL     1      27.383  43.649  52.572  1.00  0.00     0.226 C 
HETATM    2  O   UNL     1      27.972  43.758  51.497  1.00  0.00    -0.273 OA
HETATM    3  N   UNL     1      26.002  43.619  52.675  1.00  0.00    -0.326 N 
HETATM    4  H   UNL     1      25.609  43.294  53.548  1.00  0.00     0.169 HD
ENDROOT
BRANCH   1   5
HETATM    5  C   UNL     1      28.152  43.639  53.908  1.00  0.00     0.078 C 
HETATM    6  C   UNL     1      28.262  45.080  54.438  1.00  0.00     0.014 C 
HETATM    7  C   UNL     1      29.008  45.166  55.767  1.00  0.00     0.007 C 
HETATM    8  C   UNL     1      30.405  44.531  55.678  1.00  0.00     0.018 C 
HETATM    9  C   UNL     1      30.277  43.078  55.192  1.00  0.00     0.007 C 
HETATM   10  C   UNL     1      29.540  42.987  53.854  1.00  0.00     0.014 C 
BRANCH   8  11
HETATM   11  C   UNL     1      31.194  44.684  57.006  1.00  0.00     0.218 C 
HETATM   12  C   UNL     1      30.397  45.292  58.160  1.00  0.00     0.043 C 
BRANCH  11  13
HETATM   13  N   UNL     1      31.715  43.383  57.432  1.00  0.00     0.082 N 
HETATM   14  H   UNL     1      31.240  43.084  58.284  1.00  0.00     0.313 HD
HETATM   15  H   UNL     1      32.700  43.469  57.678  1.00  0.00     0.313 HD
ENDBRANCH  11  13
ENDBRANCH   8  11
ENDBRANCH   1   5
BRANCH   3  16
HETATM   16  C   UNL     1      25.089  43.791  51.610  1.00  0.00     0.050 A 
HETATM   17  C   UNL     1      24.435  42.722  50.977  1.00  0.00     0.047 A 
HETATM   18  C   UNL     1      23.549  42.942  49.931  1.00  0.00     0.092 A 
HETATM   19  N   UNL     1      23.294  44.179  49.491  1.00  0.00    -0.351 N 
HETATM   20  H   UNL     1      22.639  44.326  48.725  1.00  0.00     0.166 HD
HETATM   21  C   UNL     1      23.925  45.228  50.081  1.00  0.00     0.117 A 
HETATM   22  N   UNL     1      23.791  46.556  49.774  1.00  0.00    -0.352 N 
HETATM   23  C   UNL     1      24.829  45.092  51.127  1.00  0.00     0.036 A 
HETATM   24  H   UNL     1      23.198  46.961  49.060  1.00  0.00     0.166 HD
HETATM   25  C   UNL     1      24.593  47.287  50.614  1.00  0.00     0.090 A 
HETATM   26  C   UNL     1      25.246  46.412  51.457  1.00  0.00     0.034 A 
ENDBRANCH   3  16
TORSDOF 4
ENDMDL
MODEL 2
REMARK VINA RESULT:      -8.0      0.528      2.060
REMARK  4 active torsions:
REMARK  status: ('A' for Active; 'I' for Inactive)
REMARK    1  A    between atoms: C_2  and  N_3 
REMARK    2  A    between atoms: C_2  and  C_4 
REMARK    3  A    between atoms: C_7  and  C_10 
REMARK       I    between atoms: C_10  and  N_12 
REMARK    4  A    between atoms: N_12  and  C_13 
ROOT
HETATM    1  C   UNL     1      27.391  44.341  52.599  1.00  0.00     0.226 C 
HETATM    2  O   UNL     1      27.869  44.079  51.495  1.00  0.00    -0.273 OA
HETATM    3  N   UNL     1      26.170  44.974  52.761  1.00  0.00    -0.326 N 
HETATM    4  H   UNL     1      25.747  44.939  53.679  1.00  0.00     0.169 HD
ENDROOT
BRANCH   1   5
HETATM    5  C   UNL     1      28.179  44.068  53.895  1.00  0.00     0.078 C 
HETATM    6  C   UNL     1      28.378  45.393  54.653  1.00  0.00     0.014 C 
HETATM    7  C   UNL     1      29.148  45.217  55.959  1.00  0.00     0.007 C 
HETATM    8  C   UNL     1      30.505  44.532  55.733  1.00  0.00     0.018 C 
HETATM    9  C   UNL     1      30.287  43.189  55.017  1.00  0.00     0.007 C 
HETATM   10  C   UNL     1      29.527  43.361  53.701  1.00  0.00     0.014 C 
BRANCH   8  11
HETATM   11  C   UNL     1      31.322  44.420  57.048  1.00  0.00     0.218 C 
HETATM   12  C   UNL     1      30.698  45.125  58.253  1.00  0.00     0.043 C 
BRANCH  11  13
HETATM   13  N   UNL     1      31.532  43.011  57.389  1.00  0.00     0.082 N 
HETATM   14  H   UNL     1      32.512  42.764  57.246  1.00  0.00     0.313 HD
HETATM   15  H   UNL     1      31.000  42.420  56.752  1.00  0.00     0.313 HD
ENDBRANCH  11  13
ENDBRANCH   8  11
ENDBRANCH   1   5
BRANCH   3  16
HETATM   16  C   UNL     1      25.354  45.476  51.722  1.00  0.00     0.050 A 
HETATM   17  C   UNL     1      25.293  46.837  51.382  1.00  0.00     0.047 A 
HETATM   18  C   UNL     1      24.472  47.283  50.355  1.00  0.00     0.092 A 
HETATM   19  N   UNL     1      23.712  46.431  49.660  1.00  0.00    -0.351 N 
HETATM   20  H   UNL     1      23.117  46.771  48.906  1.00  0.00     0.166 HD
HETATM   21  C   UNL     1      23.746  45.111  49.980  1.00  0.00     0.117 A 
HETATM   22  N   UNL     1      23.047  44.094  49.384  1.00  0.00    -0.352 N 
HETATM   23  C   UNL     1      24.533  44.586  50.996  1.00  0.00     0.036 A 
HETATM   24  H   UNL     1      22.397  44.171  48.611  1.00  0.00     0.166 HD
HETATM   25  C   UNL     1      23.376  42.912  49.997  1.00  0.00     0.090 A 
HETATM   26  C   UNL     1      24.289  43.183  50.995  1.00  0.00     0.034 A 
ENDBRANCH   3  16
TORSDOF 4
ENDMDL
MODEL 3
REMARK VINA RESULT:      -7.7      1.887      2.608
REMARK  4 active torsions:
REMARK  status: ('A' for Active; 'I' for Inactive)
REMARK    1  A    between atoms: C_2  and  N_3 
REMARK    2  A    between atoms: C_2  and  C_4 
REMARK    3  A    between atoms: C_7  and  C_10 
REMARK       I    between atoms: C_10  and  N_12 
REMARK    4  A    between atoms: N_12  and  C_13 
ROOT
HETATM    1  C   UNL     1      27.951  42.942  52.352  1.00  0.00     0.226 C 
HETATM    2  O   UNL     1      28.156  43.699  51.403  1.00  0.00    -0.273 OA
HETATM    3  N   UNL     1      27.226  41.768  52.236  1.00  0.00    -0.326 N 
HETATM    4  H   UNL     1      27.304  41.099  52.990  1.00  0.00     0.169 HD
ENDROOT
BRANCH   1   5
HETATM    5  C   UNL     1      28.410  43.306  53.777  1.00  0.00     0.078 C 
HETATM    6  C   UNL     1      28.053  44.777  54.063  1.00  0.00     0.014 C 
HETATM    7  C   UNL     1      28.468  45.225  55.461  1.00  0.00     0.007 C 
HETATM    8  C   UNL     1      29.965  44.989  55.715  1.00  0.00     0.018 C 
HETATM    9  C   UNL     1      30.298  43.508  55.472  1.00  0.00     0.007 C 
HETATM   10  C   UNL     1      29.896  43.056  54.067  1.00  0.00     0.014 C 
BRANCH   8  11
HETATM   11  C   UNL     1      30.405  45.513  57.108  1.00  0.00     0.218 C 
HETATM   12  C   UNL     1      29.268  46.046  57.982  1.00  0.00     0.043 C 
BRANCH  11  13
HETATM   13  N   UNL     1      31.103  44.456  57.844  1.00  0.00     0.082 N 
HETATM   14  H   UNL     1      31.383  43.715  57.200  1.00  0.00     0.313 HD
HETATM   15  H   UNL     1      30.466  44.021  58.509  1.00  0.00     0.313 HD
ENDBRANCH  11  13
ENDBRANCH   8  11
ENDBRANCH   1   5
BRANCH   3  16
HETATM   16  C   UNL     1      26.560  41.318  51.074  1.00  0.00     0.050 A 
HETATM   17  C   UNL     1      27.008  40.236  50.300  1.00  0.00     0.047 A 
HETATM   18  C   UNL     1      26.320  39.834  49.163  1.00  0.00     0.092 A 
HETATM   19  N   UNL     1      25.211  40.467  48.767  1.00  0.00    -0.351 N 
HETATM   20  H   UNL     1      24.715  40.160  47.933  1.00  0.00     0.166 HD
HETATM   21  C   UNL     1      24.766  41.525  49.494  1.00  0.00     0.117 A 
HETATM   22  N   UNL     1      23.656  42.290  49.251  1.00  0.00    -0.352 N 
HETATM   23  C   UNL     1      25.399  41.994  50.638  1.00  0.00     0.036 A 
HETATM   24  H   UNL     1      22.995  42.184  48.491  1.00  0.00     0.166 HD
HETATM   25  C   UNL     1      23.556  43.248  50.229  1.00  0.00     0.090 A 
HETATM   26  C   UNL     1      24.616  43.091  51.097  1.00  0.00     0.034 A 
ENDBRANCH   3  16
TORSDOF 4
ENDMDL
MODEL 4
REMARK VINA RESULT:      -7.7      1.960      3.181
REMARK  4 active torsions:
REMARK  status: ('A' for Active; 'I' for Inactive)
REMARK    1  A    between atoms: C_2  and  N_3 
REMARK    2  A    between atoms: C_2  and  C_4 
REMARK    3  A    between atoms: C_7  and  C_10 
REMARK       I    between atoms: C_10  and  N_12 
REMARK    4  A    between atoms: N_12  and  C_13 
ROOT
HETATM    1  C   UNL     1      27.632  43.329  52.346  1.00  0.00     0.226 C 
HETATM    2  O   UNL     1      28.001  44.021  51.397  1.00  0.00    -0.273 OA
HETATM    3  N   UNL     1      26.572  42.442  52.266  1.00  0.00    -0.326 N 
HETATM    4  H   UNL     1      26.486  41.754  53.001  1.00  0.00     0.169 HD
ENDROOT
BRANCH   1   5
HETATM    5  C   UNL     1      28.274  43.479  53.739  1.00  0.00     0.078 C 
HETATM    6  C   UNL     1      28.126  44.939  54.209  1.00  0.00     0.014 C 
HETATM    7  C   UNL     1      28.731  45.180  55.589  1.00  0.00     0.007 C 
HETATM    8  C   UNL     1      30.207  44.757  55.646  1.00  0.00     0.018 C 
HETATM    9  C   UNL     1      30.335  43.285  55.220  1.00  0.00     0.007 C 
HETATM   10  C   UNL     1      29.741  43.040  53.831  1.00  0.00     0.014 C 
BRANCH   8  11
HETATM   11  C   UNL     1      30.845  45.072  57.026  1.00  0.00     0.218 C 
HETATM   12  C   UNL     1      29.916  45.773  58.018  1.00  0.00     0.043 C 
BRANCH  11  13
HETATM   13  N   UNL     1      31.340  43.837  57.641  1.00  0.00     0.082 N 
HETATM   14  H   UNL     1      32.145  44.046  58.234  1.00  0.00     0.313 HD
HETATM   15  H   UNL     1      31.683  43.205  56.919  1.00  0.00     0.313 HD
ENDBRANCH  11  13
ENDBRANCH   8  11
ENDBRANCH   1   5
BRANCH   3  16
HETATM   16  C   UNL     1      25.725  42.265  51.150  1.00  0.00     0.050 A 
HETATM   17  C   UNL     1      24.651  43.121  50.853  1.00  0.00     0.047 A 
HETATM   18  C   UNL     1      23.844  42.902  49.745  1.00  0.00     0.092 A 
HETATM   19  N   UNL     1      24.060  41.867  48.927  1.00  0.00    -0.351 N 
HETATM   20  H   UNL     1      23.462  41.720  48.116  1.00  0.00     0.166 HD
HETATM   21  C   UNL     1      25.086  41.018  49.201  1.00  0.00     0.117 A 
HETATM   22  N   UNL     1      25.463  39.914  48.483  1.00  0.00    -0.352 N 
HETATM   23  C   UNL     1      25.934  41.163  50.292  1.00  0.00     0.036 A 
HETATM   24  H   UNL     1      25.035  39.561  47.636  1.00  0.00     0.166 HD
HETATM   25  C   UNL     1      26.552  39.342  49.091  1.00  0.00     0.090 A 
HETATM   26  C   UNL     1      26.864  40.089  50.208  1.00  0.00     0.034 A 
ENDBRANCH   3  16
TORSDOF 4
ENDMDL
MODEL 5
REMARK VINA RESULT:      -7.7      6.015     11.245
REMARK  4 active torsions:
REMARK  status: ('A' for Active; 'I' for Inactive)
REMARK    1  A    between atoms: C_2  and  N_3 
REMARK    2  A    between atoms: C_2  and  C_4 
REMARK    3  A    between atoms: C_7  and  C_10 
REMARK       I    between atoms: C_10  and  N_12 
REMARK    4  A    between atoms: N_12  and  C_13 
ROOT
HETATM    1  C   UNL     1      22.109  50.369  49.621  1.00  0.00     0.226 C 
HETATM    2  O   UNL     1      22.656  51.136  50.414  1.00  0.00    -0.273 OA
HETATM    3  N   UNL     1      22.805  49.426  48.883  1.00  0.00    -0.326 N 
HETATM    4  H   UNL     1      22.267  48.692  48.443  1.00  0.00     0.169 HD
ENDROOT
BRANCH   1   5
HETATM    5  C   UNL     1      20.602  50.475  49.317  1.00  0.00     0.078 C 
HETATM    6  C   UNL     1      20.317  51.831  48.645  1.00  0.00     0.014 C 
HETATM    7  C   UNL     1      18.842  52.023  48.302  1.00  0.00     0.007 C 
HETATM    8  C   UNL     1      17.943  51.848  49.536  1.00  0.00     0.018 C 
HETATM    9  C   UNL     1      18.204  50.472  50.169  1.00  0.00     0.007 C 
HETATM   10  C   UNL     1      19.679  50.279  50.527  1.00  0.00     0.014 C 
BRANCH   8  11
HETATM   11  C   UNL     1      16.450  52.117  49.204  1.00  0.00     0.218 C 
HETATM   12  C   UNL     1      15.857  53.358  49.873  1.00  0.00     0.043 C 
BRANCH  11  13
HETATM   13  N   UNL     1      16.273  52.238  47.755  1.00  0.00     0.082 N 
HETATM   14  H   UNL     1      17.174  52.132  47.287  1.00  0.00     0.313 HD
HETATM   15  H   UNL     1      15.948  53.175  47.525  1.00  0.00     0.313 HD
ENDBRANCH  11  13
ENDBRANCH   8  11
ENDBRANCH   1   5
BRANCH   3  16
HETATM   16  C   UNL     1      24.208  49.264  48.861  1.00  0.00     0.050 A 
HETATM   17  C   UNL     1      25.076  50.147  48.198  1.00  0.00     0.047 A 
HETATM   18  C   UNL     1      26.449  49.942  48.203  1.00  0.00     0.092 A 
HETATM   19  N   UNL     1      26.988  48.895  48.835  1.00  0.00    -0.351 N 
HETATM   20  H   UNL     1      27.998  48.759  48.833  1.00  0.00     0.166 HD
HETATM   21  C   UNL     1      26.167  48.020  49.473  1.00  0.00     0.117 A 
HETATM   22  N   UNL     1      26.531  46.900  50.173  1.00  0.00    -0.352 N 
HETATM   23  C   UNL     1      24.785  48.149  49.510  1.00  0.00     0.036 A 
HETATM   24  H   UNL     1      27.471  46.552  50.324  1.00  0.00     0.166 HD
HETATM   25  C   UNL     1      25.401  46.303  50.671  1.00  0.00     0.090 A 
HETATM   26  C   UNL     1      24.310  47.049  50.278  1.00  0.00     0.034 A 
ENDBRANCH   3  16
TORSDOF 4
ENDMDL
MODEL 6
REMARK VINA RESULT:      -7.6      5.922     11.222
REMARK  4 active torsions:
REMARK  status: ('A' for Active; 'I' for Inactive)
REMARK    1  A    between atoms: C_2  and  N_3 
REMARK    2  A    between atoms: C_2  and  C_4 
REMARK    3  A    between atoms: C_7  and  C_10 
REMARK       I    between atoms: C_10  and  N_12 
REMARK    4  A    between atoms: N_12  and  C_13 
ROOT
HETATM    1  C   UNL     1      22.344  50.120  49.216  1.00  0.00     0.226 C 
HETATM    2  O   UNL     1      22.768  50.695  50.218  1.00  0.00    -0.273 OA
HETATM    3  N   UNL     1      22.900  48.950  48.726  1.00  0.00    -0.326 N 
HETATM    4  H   UNL     1      22.357  48.425  48.055  1.00  0.00     0.169 HD
ENDROOT
BRANCH   1   5
HETATM    5  C   UNL     1      21.210  50.727  48.367  1.00  0.00     0.078 C 
HETATM    6  C   UNL     1      20.243  51.493  49.289  1.00  0.00     0.014 C 
HETATM    7  C   UNL     1      19.086  52.135  48.529  1.00  0.00     0.007 C 
HETATM    8  C   UNL     1      18.310  51.104  47.695  1.00  0.00     0.018 C 
HETATM    9  C   UNL     1      19.279  50.380  46.746  1.00  0.00     0.007 C 
HETATM   10  C   UNL     1      20.435  49.723  47.504  1.00  0.00     0.014 C 
BRANCH   8  11
HETATM   11  C   UNL     1      17.087  51.741  46.982  1.00  0.00     0.218 C 
HETATM   12  C   UNL     1      15.997  52.263  47.919  1.00  0.00     0.043 C 
BRANCH  11  13
HETATM   13  N   UNL     1      17.527  52.841  46.119  1.00  0.00     0.082 N 
HETATM   14  H   UNL     1      16.961  53.670  46.302  1.00  0.00     0.313 HD
HETATM   15  H   UNL     1      17.362  52.600  45.143  1.00  0.00     0.313 HD
ENDBRANCH  11  13
ENDBRANCH   8  11
ENDBRANCH   1   5
BRANCH   3  16
HETATM   16  C   UNL     1      24.052  48.307  49.232  1.00  0.00     0.050 A 
HETATM   17  C   UNL     1      24.006  47.111  49.967  1.00  0.00     0.047 A 
HETATM   18  C   UNL     1      25.168  46.520  50.446  1.00  0.00     0.092 A 
HETATM   19  N   UNL     1      26.365  47.072  50.226  1.00  0.00    -0.351 N 
HETATM   20  H   UNL     1      27.209  46.625  50.580  1.00  0.00     0.166 HD
HETATM   21  C   UNL     1      26.433  48.235  49.527  1.00  0.00     0.117 A 
HETATM   22  N   UNL     1      27.559  48.943  49.201  1.00  0.00    -0.352 N 
HETATM   23  C   UNL     1      25.319  48.894  49.020  1.00  0.00     0.036 A 
HETATM   24  H   UNL     1      28.517  48.706  49.430  1.00  0.00     0.166 HD
HETATM   25  C   UNL     1      27.192  50.052  48.481  1.00  0.00     0.090 A 
HETATM   26  C   UNL     1      25.818  50.049  48.355  1.00  0.00     0.034 A 
ENDBRANCH   3  16
TORSDOF 4
ENDMDL
MODEL 7
REMARK VINA RESULT:      -7.5      3.824      5.149
REMARK  4 active torsions:
REMARK  status: ('A' for Active; 'I' for Inactive)
REMARK    1  A    between atoms: C_2  and  N_3 
REMARK    2  A    between atoms: C_2  and  C_4 
REMARK    3  A    between atoms: C_7  and  C_10 
REMARK       I    between atoms: C_10  and  N_12 
REMARK    4  A    between atoms: N_12  and  C_13 
ROOT
HETATM    1  C   UNL     1      27.814  42.316  52.307  1.00  0.00     0.226 C 
HETATM    2  O   UNL     1      26.680  42.596  51.918  1.00  0.00    -0.273 OA
HETATM    3  N   UNL     1      28.661  41.467  51.614  1.00  0.00    -0.326 N 
HETATM    4  H   UNL     1      29.639  41.477  51.870  1.00  0.00     0.169 HD
ENDROOT
BRANCH   1   5
HETATM    5  C   UNL     1      28.339  42.820  53.665  1.00  0.00     0.078 C 
HETATM    6  C   UNL     1      27.901  44.283  53.865  1.00  0.00     0.014 C 
HETATM    7  C   UNL     1      28.375  44.866  55.193  1.00  0.00     0.007 C 
HETATM    8  C   UNL     1      29.898  44.747  55.357  1.00  0.00     0.018 C 
HETATM    9  C   UNL     1      30.316  43.276  55.202  1.00  0.00     0.007 C 
HETATM   10  C   UNL     1      29.855  42.689  53.866  1.00  0.00     0.014 C 
BRANCH   8  11
HETATM   11  C   UNL     1      30.391  45.408  56.672  1.00  0.00     0.218 C 
HETATM   12  C   UNL     1      29.289  46.035  57.528  1.00  0.00     0.043 C 
BRANCH  11  13
HETATM   13  N   UNL     1      31.112  44.425  57.486  1.00  0.00     0.082 N 
HETATM   14  H   UNL     1      31.260  44.798  58.425  1.00  0.00     0.313 HD
HETATM   15  H   UNL     1      32.041  44.272  57.098  1.00  0.00     0.313 HD
ENDBRANCH  11  13
ENDBRANCH   8  11
ENDBRANCH   1   5
BRANCH   3  16
HETATM   16  C   UNL     1      28.335  40.749  50.442  1.00  0.00     0.050 A 
HETATM   17  C   UNL     1      27.576  41.292  49.392  1.00  0.00     0.047 A 
HETATM   18  C   UNL     1      27.278  40.544  48.261  1.00  0.00     0.092 A 
HETATM   19  N   UNL     1      27.701  39.282  48.137  1.00  0.00    -0.351 N 
HETATM   20  H   UNL     1      27.478  38.746  47.301  1.00  0.00     0.166 HD
HETATM   21  C   UNL     1      28.426  38.731  49.146  1.00  0.00     0.117 A 
HETATM   22  N   UNL     1      28.946  37.466  49.199  1.00  0.00    -0.352 N 
HETATM   23  C   UNL     1      28.761  39.409  50.312  1.00  0.00     0.036 A 
HETATM   24  H   UNL     1      28.870  36.744  48.492  1.00  0.00     0.166 HD
HETATM   25  C   UNL     1      29.622  37.313  50.383  1.00  0.00     0.090 A 
HETATM   26  C   UNL     1      29.524  38.494  51.090  1.00  0.00     0.034 A 
ENDBRANCH   3  16
TORSDOF 4
ENDMDL
MODEL 8
REMARK VINA RESULT:      -7.2     12.776     13.673
REMARK  4 active torsions:
REMARK  status: ('A' for Active; 'I' for Inactive)
REMARK    1  A    between atoms: C_2  and  N_3 
REMARK    2  A    between atoms: C_2  and  C_4 
REMARK    3  A    between atoms: C_7  and  C_10 
REMARK       I    between atoms: C_10  and  N_12 
REMARK    4  A    between atoms: N_12  and  C_13 
ROOT
HETATM    1  C   UNL     1      32.048  49.768  41.470  1.00  0.00     0.226 C 
HETATM    2  O   UNL     1      31.970  49.761  40.242  1.00  0.00    -0.273 OA
HETATM    3  N   UNL     1      30.952  49.580  42.297  1.00  0.00    -0.326 N 
HETATM    4  H   UNL     1      31.136  49.367  43.268  1.00  0.00     0.169 HD
ENDROOT
BRANCH   1   5
HETATM    5  C   UNL     1      33.375  50.093  42.184  1.00  0.00     0.078 C 
HETATM    6  C   UNL     1      33.244  51.449  42.901  1.00  0.00     0.014 C 
HETATM    7  C   UNL     1      34.516  51.851  43.643  1.00  0.00     0.007 C 
HETATM    8  C   UNL     1      35.738  51.865  42.712  1.00  0.00     0.018 C 
HETATM    9  C   UNL     1      35.884  50.491  42.038  1.00  0.00     0.007 C 
HETATM   10  C   UNL     1      34.616  50.088  41.282  1.00  0.00     0.014 C 
BRANCH   8  11
HETATM   11  C   UNL     1      37.018  52.347  43.447  1.00  0.00     0.218 C 
HETATM   12  C   UNL     1      37.312  53.841  43.312  1.00  0.00     0.043 C 
BRANCH  11  13
HETATM   13  N   UNL     1      36.932  52.014  44.871  1.00  0.00     0.082 N 
HETATM   14  H   UNL     1      36.187  52.558  45.308  1.00  0.00     0.313 HD
HETATM   15  H   UNL     1      37.792  52.292  45.342  1.00  0.00     0.313 HD
ENDBRANCH  11  13
ENDBRANCH   8  11
ENDBRANCH   1   5
BRANCH   3  16
HETATM   16  C   UNL     1      29.612  49.442  41.874  1.00  0.00     0.050 A 
HETATM   17  C   UNL     1      28.993  48.198  41.667  1.00  0.00     0.047 A 
HETATM   18  C   UNL     1      27.672  48.116  41.247  1.00  0.00     0.092 A 
HETATM   19  N   UNL     1      26.949  49.217  41.023  1.00  0.00    -0.351 N 
HETATM   20  H   UNL     1      25.980  49.142  40.719  1.00  0.00     0.166 HD
HETATM   21  C   UNL     1      27.530  50.432  41.206  1.00  0.00     0.117 A 
HETATM   22  N   UNL     1      26.954  51.662  41.033  1.00  0.00    -0.352 N 
HETATM   23  C   UNL     1      28.846  50.601  41.617  1.00  0.00     0.036 A 
HETATM   24  H   UNL     1      26.003  51.856  40.742  1.00  0.00     0.166 HD
HETATM   25  C   UNL     1      27.878  52.631  41.333  1.00  0.00     0.090 A 
HETATM   26  C   UNL     1      29.054  52.007  41.695  1.00  0.00     0.034 A 
ENDBRANCH   3  16
TORSDOF 4
ENDMDL
MODEL 9
REMARK VINA RESULT:      -7.2      3.562      7.269
REMARK  4 active torsions:
REMARK  status: ('A' for Active; 'I' for Inactive)
REMARK    1  A    between atoms: C_2  and  N_3 
REMARK    2  A    between atoms: C_2  and  C_4 
REMARK    3  A    between atoms: C_7  and  C_10 
REMARK       I    between atoms: C_10  and  N_12 
REMARK    4  A    between atoms: N_12  and  C_13 
ROOT
HETATM    1  C   UNL     1      27.545  42.945  52.193  1.00  0.00     0.226 C 
HETATM    2  O   UNL     1      27.857  43.839  51.407  1.00  0.00    -0.273 OA
HETATM    3  N   UNL     1      27.441  43.144  53.560  1.00  0.00    -0.326 N 
HETATM    4  H   UNL     1      26.959  42.436  54.096  1.00  0.00     0.169 HD
ENDROOT
BRANCH   1   5
HETATM    5  C   UNL     1      27.343  41.494  51.712  1.00  0.00     0.078 C 
HETATM    6  C   UNL     1      28.704  40.907  51.294  1.00  0.00     0.014 C 
HETATM    7  C   UNL     1      28.600  39.464  50.807  1.00  0.00     0.007 C 
HETATM    8  C   UNL     1      27.591  39.322  49.657  1.00  0.00     0.018 C 
HETATM    9  C   UNL     1      26.225  39.870  50.103  1.00  0.00     0.007 C 
HETATM   10  C   UNL     1      26.321  41.320  50.581  1.00  0.00     0.014 C 
BRANCH   8  11
HETATM   11  C   UNL     1      27.540  37.871  49.109  1.00  0.00     0.218 C 
HETATM   12  C   UNL     1      28.360  37.634  47.840  1.00  0.00     0.043 C 
BRANCH  11  13
HETATM   13  N   UNL     1      27.991  36.931  50.139  1.00  0.00     0.082 N 
HETATM   14  H   UNL     1      28.800  36.409  49.799  1.00  0.00     0.313 HD
HETATM   15  H   UNL     1      27.266  36.237  50.314  1.00  0.00     0.313 HD
ENDBRANCH  11  13
ENDBRANCH   8  11
ENDBRANCH   1   5
BRANCH   3  16
HETATM   16  C   UNL     1      27.751  44.338  54.247  1.00  0.00     0.050 A 
HETATM   17  C   UNL     1      26.898  45.454  54.275  1.00  0.00     0.047 A 
HETATM   18  C   UNL     1      27.250  46.608  54.963  1.00  0.00     0.092 A 
HETATM   19  N   UNL     1      28.414  46.695  55.616  1.00  0.00    -0.351 N 
HETATM   20  H   UNL     1      28.657  47.546  56.119  1.00  0.00     0.166 HD
HETATM   21  C   UNL     1      29.260  45.632  55.592  1.00  0.00     0.117 A 
HETATM   22  N   UNL     1      30.483  45.532  56.200  1.00  0.00    -0.352 N 
HETATM   23  C   UNL     1      28.987  44.446  54.923  1.00  0.00     0.036 A 
HETATM   24  H   UNL     1      30.946  46.236  56.762  1.00  0.00     0.166 HD
HETATM   25  C   UNL     1      31.007  44.291  55.939  1.00  0.00     0.090 A 
HETATM   26  C   UNL     1      30.108  43.600  55.154  1.00  0.00     0.034 A 
ENDBRANCH   3  16
TORSDOF 4
ENDMDL
MODEL 10
REMARK VINA RESULT:      -7.1     12.769     14.006
REMARK  4 active torsions:
REMARK  status: ('A' for Active; 'I' for Inactive)
REMARK    1  A    between atoms: C_2  and  N_3 
REMARK    2  A    between atoms: C_2  and  C_4 
REMARK    3  A    between atoms: C_7  and  C_10 
REMARK       I    between atoms: C_10  and  N_12 
REMARK    4  A    between atoms: N_12  and  C_13 
ROOT
HETATM    1  C   UNL     1      32.427  50.985  42.870  1.00  0.00     0.226 C 
HETATM    2  O   UNL     1      32.046  50.726  44.011  1.00  0.00    -0.273 OA
HETATM    3  N   UNL     1      31.625  50.824  41.752  1.00  0.00    -0.326 N 
HETATM    4  H   UNL     1      31.925  51.275  40.898  1.00  0.00     0.169 HD
ENDROOT
BRANCH   1   5
HETATM    5  C   UNL     1      33.880  51.418  42.592  1.00  0.00     0.078 C 
HETATM    6  C   UNL     1      34.644  50.243  41.954  1.00  0.00     0.014 C 
HETATM    7  C   UNL     1      36.098  50.585  41.639  1.00  0.00     0.007 C 
HETATM    8  C   UNL     1      36.849  51.086  42.883  1.00  0.00     0.018 C 
HETATM    9  C   UNL     1      36.101  52.288  43.483  1.00  0.00     0.007 C 
HETATM   10  C   UNL     1      34.646  51.947  43.812  1.00  0.00     0.014 C 
BRANCH   8  11
HETATM   11  C   UNL     1      38.346  51.362  42.582  1.00  0.00     0.218 C 
HETATM   12  C   UNL     1      39.313  50.927  43.684  1.00  0.00     0.043 C 
BRANCH  11  13
HETATM   13  N   UNL     1      38.736  50.702  41.332  1.00  0.00     0.082 N 
HETATM   14  H   UNL     1      38.758  51.386  40.574  1.00  0.00     0.313 HD
HETATM   15  H   UNL     1      38.028  50.018  41.069  1.00  0.00     0.313 HD
ENDBRANCH  11  13
ENDBRANCH   8  11
ENDBRANCH   1   5
BRANCH   3  16
HETATM   16  C   UNL     1      30.324  50.276  41.740  1.00  0.00     0.050 A 
HETATM   17  C   UNL     1      30.065  48.905  41.901  1.00  0.00     0.047 A 
HETATM   18  C   UNL     1      28.767  48.413  41.877  1.00  0.00     0.092 A 
HETATM   19  N   UNL     1      27.723  49.229  41.698  1.00  0.00    -0.351 N 
HETATM   20  H   UNL     1      26.775  48.855  41.686  1.00  0.00     0.166 HD
HETATM   21  C   UNL     1      27.950  50.558  41.528  1.00  0.00     0.117 A 
HETATM   22  N   UNL     1      27.017  51.541  41.337  1.00  0.00    -0.352 N 
HETATM   23  C   UNL     1      29.217  51.128  41.531  1.00  0.00     0.036 A 
HETATM   24  H   UNL     1      26.011  51.429  41.293  1.00  0.00     0.166 HD
HETATM   25  C   UNL     1      27.662  52.747  41.222  1.00  0.00     0.090 A 
HETATM   26  C   UNL     1      29.018  52.523  41.336  1.00  0.00     0.034 A 
ENDBRANCH   3  16
TORSDOF 4
ENDMDL
