MODEL 1
REMARK VINA RESULT:      -9.0      0.000      0.000
REMARK  7 active torsions:
REMARK  status: ('A' for Active; 'I' for Inactive)
REMARK    1  A    between atoms: O_2  and  C_3 
REMARK    2  A    between atoms: C_3  and  C_4 
REMARK    3  A    between atoms: C_4  and  N_5 
REMARK    4  A    between atoms: C_4  and  C_21 
REMARK    5  A    between atoms: N_5  and  C_6 
REMARK    6  A    between atoms: C_21  and  C_22 
REMARK    7  A    between atoms: C_25  and  O_26 
ROOT
HETATM    1  N   UNL     1      25.959  44.526  51.937  1.00  0.00    -0.277 NA
HETATM    2  H   UNL     1      25.768  43.522  51.845  1.00  0.00     0.128 HD
ENDROOT
BRANCH   1   3
HETATM    3  C   UNL     1      26.127  45.126  50.583  1.00  0.00     0.164 C 
BRANCH   3   4
HETATM    4  C   UNL     1      25.855  44.085  49.478  1.00  0.00     0.276 C 
HETATM    5  O   UNL     1      24.768  43.924  48.941  1.00  0.00    -0.263 OA
BRANCH   4   6
HETATM    6  O   UNL     1      26.991  43.385  49.175  1.00  0.00    -0.325 OA
HETATM    7  C   UNL     1      26.778  41.991  48.941  1.00  0.00     0.213 C 
ENDBRANCH   4   6
ENDBRANCH   3   4
BRANCH   3   8
HETATM    8  C   UNL     1      25.086  46.239  50.351  1.00  0.00     0.068 C 
BRANCH   8   9
HETATM    9  C   UNL     1      25.602  47.489  49.678  1.00  0.00    -0.056 A 
HETATM   10  C   UNL     1      24.719  48.450  49.165  1.00  0.00     0.010 A 
HETATM   11  C   UNL     1      25.207  49.630  48.596  1.00  0.00     0.037 A 
HETATM   12  C   UNL     1      26.579  49.849  48.543  1.00  0.00     0.065 A 
HETATM   13  C   UNL     1      27.469  48.910  49.048  1.00  0.00     0.037 A 
HETATM   14  C   UNL     1      26.982  47.736  49.622  1.00  0.00     0.010 A 
BRANCH  12  15
HETATM   15  O   UNL     1      27.100  50.989  48.007  1.00  0.00    -0.361 OA
HETATM   16  H   UNL     1      27.270  50.841  47.062  1.00  0.00     0.217 HD
ENDBRANCH  12  15
ENDBRANCH   8   9
ENDBRANCH   3   8
ENDBRANCH   1   3
BRANCH   1  17
HETATM   17  C   UNL     1      26.820  44.769  53.023  1.00  0.00     0.034 A 
HETATM   18  C   UNL     1      27.925  43.872  53.149  1.00  0.00     0.013 A 
HETATM   19  C   UNL     1      28.934  44.144  54.092  1.00  0.00     0.044 A 
HETATM   20  C   UNL     1      28.076  42.696  52.380  1.00  0.00     0.015 A 
HETATM   21  C   UNL     1      30.041  43.292  54.247  1.00  0.00     0.030 A 
HETATM   22  N   UNL     1      28.844  45.246  54.845  1.00  0.00    -0.355 N 
HETATM   23  C   UNL     1      30.158  42.143  53.470  1.00  0.00     0.002 A 
HETATM   24  C   UNL     1      29.172  41.843  52.541  1.00  0.00     0.001 A 
HETATM   25  H   UNL     1      29.591  45.424  55.510  1.00  0.00     0.166 HD
HETATM   26  C   UNL     1      27.849  46.141  54.765  1.00  0.00     0.044 A 
HETATM   27  C   UNL     1      26.789  45.943  53.846  1.00  0.00     0.013 A 
HETATM   28  C   UNL     1      27.912  47.277  55.598  1.00  0.00     0.030 A 
HETATM   29  C   UNL     1      25.808  46.967  53.829  1.00  0.00     0.015 A 
HETATM   30  C   UNL     1      25.869  48.091  54.662  1.00  0.00     0.001 A 
HETATM   31  C   UNL     1      26.922  48.250  55.545  1.00  0.00     0.002 A 
ENDBRANCH   1  17
TORSDOF 7
ENDMDL
MODEL 2
REMARK VINA RESULT:      -9.0      1.808      4.143
REMARK  7 active torsions:
REMARK  status: ('A' for Active; 'I' for Inactive)
REMARK    1  A    between atoms: O_2  and  C_3 
REMARK    2  A    between atoms: C_3  and  C_4 
REMARK    3  A    between atoms: C_4  and  N_5 
REMARK    4  A    between atoms: C_4  and  C_21 
REMARK    5  A    between atoms: N_5  and  C_6 
REMARK    6  A    between atoms: C_21  and  C_22 
REMARK    7  A    between atoms: C_25  and  O_26 
ROOT
HETATM    1  N   UNL     1      27.311  43.549  53.294  1.00  0.00    -0.277 NA
HETATM    2  H   UNL     1      27.173  42.674  53.813  1.00  0.00     0.128 HD
ENDROOT
BRANCH   1   3
HETATM    3  C   UNL     1      27.657  43.236  51.878  1.00  0.00     0.164 C 
BRANCH   3   4
HETATM    4  C   UNL     1      28.141  41.779  51.734  1.00  0.00     0.276 C 
HETATM    5  O   UNL     1      28.572  41.106  52.659  1.00  0.00    -0.263 OA
BRANCH   4   6
HETATM    6  O   UNL     1      28.008  41.345  50.444  1.00  0.00    -0.325 OA
HETATM    7  C   UNL     1      28.356  39.972  50.246  1.00  0.00     0.213 C 
ENDBRANCH   4   6
ENDBRANCH   3   4
BRANCH   3   8
HETATM    8  C   UNL     1      26.407  43.335  50.982  1.00  0.00     0.068 C 
BRANCH   8   9
HETATM    9  C   UNL     1      26.029  44.728  50.535  1.00  0.00    -0.056 A 
HETATM   10  C   UNL     1      24.702  45.176  50.610  1.00  0.00     0.010 A 
HETATM   11  C   UNL     1      24.373  46.486  50.249  1.00  0.00     0.037 A 
HETATM   12  C   UNL     1      25.374  47.348  49.815  1.00  0.00     0.065 A 
HETATM   13  C   UNL     1      26.693  46.923  49.735  1.00  0.00     0.037 A 
HETATM   14  C   UNL     1      27.022  45.619  50.103  1.00  0.00     0.010 A 
BRANCH  12  15
HETATM   15  O   UNL     1      25.103  48.636  49.462  1.00  0.00    -0.361 OA
HETATM   16  H   UNL     1      25.649  49.231  50.002  1.00  0.00     0.217 HD
ENDBRANCH  12  15
ENDBRANCH   8   9
ENDBRANCH   3   8
ENDBRANCH   1   3
BRANCH   1  17
HETATM   17  C   UNL     1      27.992  44.492  54.085  1.00  0.00     0.034 A 
HETATM   18  C   UNL     1      27.332  45.748  54.255  1.00  0.00     0.013 A 
HETATM   19  C   UNL     1      27.847  46.684  55.172  1.00  0.00     0.044 A 
HETATM   20  C   UNL     1      26.172  46.131  53.543  1.00  0.00     0.015 A 
HETATM   21  C   UNL     1      27.229  47.929  55.376  1.00  0.00     0.030 A 
HETATM   22  N   UNL     1      28.941  46.371  55.877  1.00  0.00    -0.355 N 
HETATM   23  C   UNL     1      26.086  48.271  54.658  1.00  0.00     0.002 A 
HETATM   24  C   UNL     1      25.562  47.374  53.738  1.00  0.00     0.001 A 
HETATM   25  H   UNL     1      29.286  47.061  56.540  1.00  0.00     0.166 HD
HETATM   26  C   UNL     1      29.598  45.207  55.784  1.00  0.00     0.044 A 
HETATM   27  C   UNL     1      29.150  44.211  54.882  1.00  0.00     0.013 A 
HETATM   28  C   UNL     1      30.713  45.007  56.623  1.00  0.00     0.030 A 
HETATM   29  C   UNL     1      29.904  43.009  54.890  1.00  0.00     0.015 A 
HETATM   30  C   UNL     1      31.016  42.816  55.718  1.00  0.00     0.001 A 
HETATM   31  C   UNL     1      31.421  43.812  56.588  1.00  0.00     0.002 A 
ENDBRANCH   1  17
TORSDOF 7
ENDMDL
MODEL 3
REMARK VINA RESULT:      -9.0      1.059      3.763
REMARK  7 active torsions:
REMARK  status: ('A' for Active; 'I' for Inactive)
REMARK    1  A    between atoms: O_2  and  C_3 
REMARK    2  A    between atoms: C_3  and  C_4 
REMARK    3  A    between atoms: C_4  and  N_5 
REMARK    4  A    between atoms: C_4  and  C_21 
REMARK    5  A    between atoms: N_5  and  C_6 
REMARK    6  A    between atoms: C_21  and  C_22 
REMARK    7  A    between atoms: C_25  and  O_26 
ROOT
HETATM    1  N   UNL     1      25.188  44.690  52.089  1.00  0.00    -0.277 NA
HETATM    2  H   UNL     1      24.643  43.856  52.336  1.00  0.00     0.128 HD
ENDROOT
BRANCH   1   3
HETATM    3  C   UNL     1      24.982  45.009  50.648  1.00  0.00     0.164 C 
BRANCH   3   4
HETATM    4  C   UNL     1      24.053  43.976  49.978  1.00  0.00     0.276 C 
HETATM    5  O   UNL     1      23.182  43.355  50.569  1.00  0.00    -0.263 OA
BRANCH   4   6
HETATM    6  O   UNL     1      24.329  43.863  48.643  1.00  0.00    -0.325 OA
HETATM    7  C   UNL     1      23.216  44.133  47.788  1.00  0.00     0.213 C 
ENDBRANCH   4   6
ENDBRANCH   3   4
BRANCH   3   8
HETATM    8  C   UNL     1      24.258  46.361  50.492  1.00  0.00     0.068 C 
BRANCH   8   9
HETATM    9  C   UNL     1      25.076  47.477  49.884  1.00  0.00    -0.056 A 
HETATM   10  C   UNL     1      26.477  47.449  49.920  1.00  0.00     0.010 A 
HETATM   11  C   UNL     1      27.224  48.456  49.304  1.00  0.00     0.037 A 
HETATM   12  C   UNL     1      26.567  49.493  48.650  1.00  0.00     0.065 A 
HETATM   13  C   UNL     1      25.180  49.537  48.601  1.00  0.00     0.037 A 
HETATM   14  C   UNL     1      24.435  48.527  49.209  1.00  0.00     0.010 A 
BRANCH  12  15
HETATM   15  O   UNL     1      27.254  50.492  48.026  1.00  0.00    -0.361 OA
HETATM   16  H   UNL     1      26.962  51.345  48.389  1.00  0.00     0.217 HD
ENDBRANCH  12  15
ENDBRANCH   8   9
ENDBRANCH   3   8
ENDBRANCH   1   3
BRANCH   1  17
HETATM   17  C   UNL     1      26.444  44.667  52.723  1.00  0.00     0.034 A 
HETATM   18  C   UNL     1      26.711  45.759  53.607  1.00  0.00     0.013 A 
HETATM   19  C   UNL     1      27.861  45.727  54.419  1.00  0.00     0.044 A 
HETATM   20  C   UNL     1      25.886  46.900  53.719  1.00  0.00     0.015 A 
HETATM   21  C   UNL     1      28.161  46.775  55.305  1.00  0.00     0.030 A 
HETATM   22  N   UNL     1      28.675  44.668  54.356  1.00  0.00    -0.355 N 
HETATM   23  C   UNL     1      27.324  47.884  55.391  1.00  0.00     0.002 A 
HETATM   24  C   UNL     1      26.190  47.948  54.594  1.00  0.00     0.001 A 
HETATM   25  H   UNL     1      29.493  44.666  54.960  1.00  0.00     0.166 HD
HETATM   26  C   UNL     1      28.476  43.602  53.568  1.00  0.00     0.044 A 
HETATM   27  C   UNL     1      27.346  43.553  52.714  1.00  0.00     0.013 A 
HETATM   28  C   UNL     1      29.403  42.542  53.641  1.00  0.00     0.030 A 
HETATM   29  C   UNL     1      27.222  42.366  51.948  1.00  0.00     0.015 A 
HETATM   30  C   UNL     1      28.147  41.317  52.016  1.00  0.00     0.001 A 
HETATM   31  C   UNL     1      29.237  41.401  52.865  1.00  0.00     0.002 A 
ENDBRANCH   1  17
TORSDOF 7
ENDMDL
MODEL 4
REMARK VINA RESULT:      -8.7      2.073      3.692
REMARK  7 active torsions:
REMARK  status: ('A' for Active; 'I' for Inactive)
REMARK    1  A    between atoms: O_2  and  C_3 
REMARK    2  A    between atoms: C_3  and  C_4 
REMARK    3  A    between atoms: C_4  and  N_5 
REMARK    4  A    between atoms: C_4  and  C_21 
REMARK    5  A    between atoms: N_5  and  C_6 
REMARK    6  A    between atoms: C_21  and  C_22 
REMARK    7  A    between atoms: C_25  and  O_26 
ROOT
HETATM    1  N   UNL     1      26.748  44.468  50.433  1.00  0.00    -0.277 NA
HETATM    2  H   UNL     1      27.382  45.276  50.435  1.00  0.00     0.128 HD
ENDROOT
BRANCH   1   3
HETATM    3  C   UNL     1      25.358  44.929  50.709  1.00  0.00     0.164 C 
BRANCH   3   4
HETATM    4  C   UNL     1      24.681  44.044  51.775  1.00  0.00     0.276 C 
HETATM    5  O   UNL     1      24.673  44.298  52.971  1.00  0.00    -0.263 OA
BRANCH   4   6
HETATM    6  O   UNL     1      24.086  42.955  51.201  1.00  0.00    -0.325 OA
HETATM    7  C   UNL     1      23.190  43.270  50.132  1.00  0.00     0.213 C 
ENDBRANCH   4   6
ENDBRANCH   3   4
BRANCH   3   8
HETATM    8  C   UNL     1      25.368  46.348  51.311  1.00  0.00     0.068 C 
BRANCH   8   9
HETATM    9  C   UNL     1      25.443  47.482  50.316  1.00  0.00    -0.056 A 
HETATM   10  C   UNL     1      26.679  48.002  49.904  1.00  0.00     0.010 A 
HETATM   11  C   UNL     1      26.738  49.012  48.940  1.00  0.00     0.037 A 
HETATM   12  C   UNL     1      25.560  49.500  48.386  1.00  0.00     0.065 A 
HETATM   13  C   UNL     1      24.327  48.997  48.779  1.00  0.00     0.037 A 
HETATM   14  C   UNL     1      24.268  47.984  49.736  1.00  0.00     0.010 A 
BRANCH  12  15
HETATM   15  O   UNL     1      25.569  50.477  47.435  1.00  0.00    -0.361 OA
HETATM   16  H   UNL     1      24.654  50.666  47.171  1.00  0.00     0.217 HD
ENDBRANCH  12  15
ENDBRANCH   8   9
ENDBRANCH   3   8
ENDBRANCH   1   3
BRANCH   1  17
HETATM   17  C   UNL     1      27.354  43.362  51.056  1.00  0.00     0.034 A 
HETATM   18  C   UNL     1      27.442  42.176  50.263  1.00  0.00     0.013 A 
HETATM   19  C   UNL     1      28.189  41.080  50.735  1.00  0.00     0.044 A 
HETATM   20  C   UNL     1      26.808  42.020  49.009  1.00  0.00     0.015 A 
HETATM   21  C   UNL     1      28.307  39.897  49.986  1.00  0.00     0.030 A 
HETATM   22  N   UNL     1      28.814  41.176  51.914  1.00  0.00    -0.355 N 
HETATM   23  C   UNL     1      27.671  39.779  48.753  1.00  0.00     0.002 A 
HETATM   24  C   UNL     1      26.917  40.838  48.269  1.00  0.00     0.001 A 
HETATM   25  H   UNL     1      29.354  40.373  52.225  1.00  0.00     0.166 HD
HETATM   26  C   UNL     1      28.792  42.261  52.699  1.00  0.00     0.044 A 
HETATM   27  C   UNL     1      28.060  43.408  52.303  1.00  0.00     0.013 A 
HETATM   28  C   UNL     1      29.534  42.227  53.898  1.00  0.00     0.030 A 
HETATM   29  C   UNL     1      28.132  44.507  53.198  1.00  0.00     0.015 A 
HETATM   30  C   UNL     1      28.863  44.467  54.392  1.00  0.00     0.001 A 
HETATM   31  C   UNL     1      29.568  43.329  54.742  1.00  0.00     0.002 A 
ENDBRANCH   1  17
TORSDOF 7
ENDMDL
MODEL 5
REMARK VINA RESULT:      -8.7      2.350      4.683
REMARK  7 active torsions:
REMARK  status: ('A' for Active; 'I' for Inactive)
REMARK    1  A    between atoms: O_2  and  C_3 
REMARK    2  A    between atoms: C_3  and  C_4 
REMARK    3  A    between atoms: C_4  and  N_5 
REMARK    4  A    between atoms: C_4  and  C_21 
REMARK    5  A    between atoms: N_5  and  C_6 
REMARK    6  A    between atoms: C_21  and  C_22 
REMARK    7  A    between atoms: C_25  and  O_26 
ROOT
HETATM    1  N   UNL     1      25.350  44.936  52.857  1.00  0.00    -0.277 NA
HETATM    2  H   UNL     1      24.458  44.713  53.314  1.00  0.00     0.128 HD
ENDROOT
BRANCH   1   3
HETATM    3  C   UNL     1      25.363  46.375  52.470  1.00  0.00     0.164 C 
BRANCH   3   4
HETATM    4  C   UNL     1      25.943  47.248  53.601  1.00  0.00     0.276 C 
HETATM    5  O   UNL     1      25.341  48.172  54.130  1.00  0.00    -0.263 OA
BRANCH   4   6
HETATM    6  O   UNL     1      27.204  46.840  53.935  1.00  0.00    -0.325 OA
HETATM    7  C   UNL     1      27.804  47.590  54.995  1.00  0.00     0.213 C 
ENDBRANCH   4   6
ENDBRANCH   3   4
BRANCH   3   8
HETATM    8  C   UNL     1      26.298  46.603  51.266  1.00  0.00     0.068 C 
BRANCH   8   9
HETATM    9  C   UNL     1      25.836  47.632  50.262  1.00  0.00    -0.056 A 
HETATM   10  C   UNL     1      26.754  48.454  49.593  1.00  0.00     0.010 A 
HETATM   11  C   UNL     1      26.320  49.363  48.624  1.00  0.00     0.037 A 
HETATM   12  C   UNL     1      24.965  49.447  48.322  1.00  0.00     0.065 A 
HETATM   13  C   UNL     1      24.041  48.641  48.972  1.00  0.00     0.037 A 
HETATM   14  C   UNL     1      24.475  47.728  49.933  1.00  0.00     0.010 A 
BRANCH  12  15
HETATM   15  O   UNL     1      24.497  50.311  47.378  1.00  0.00    -0.361 OA
HETATM   16  H   UNL     1      24.455  49.848  46.524  1.00  0.00     0.217 HD
ENDBRANCH  12  15
ENDBRANCH   8   9
ENDBRANCH   3   8
ENDBRANCH   1   3
BRANCH   1  17
HETATM   17  C   UNL     1      25.749  43.885  52.010  1.00  0.00     0.034 A 
HETATM   18  C   UNL     1      26.956  43.215  52.382  1.00  0.00     0.013 A 
HETATM   19  C   UNL     1      27.335  42.041  51.703  1.00  0.00     0.044 A 
HETATM   20  C   UNL     1      27.822  43.663  53.405  1.00  0.00     0.015 A 
HETATM   21  C   UNL     1      28.510  41.348  52.038  1.00  0.00     0.030 A 
HETATM   22  N   UNL     1      26.549  41.569  50.728  1.00  0.00    -0.355 N 
HETATM   23  C   UNL     1      29.338  41.818  53.053  1.00  0.00     0.002 A 
HETATM   24  C   UNL     1      28.996  42.979  53.732  1.00  0.00     0.001 A 
HETATM   25  H   UNL     1      26.842  40.715  50.261  1.00  0.00     0.166 HD
HETATM   26  C   UNL     1      25.396  42.133  50.342  1.00  0.00     0.044 A 
HETATM   27  C   UNL     1      24.942  43.319  50.969  1.00  0.00     0.013 A 
HETATM   28  C   UNL     1      24.656  41.495  49.325  1.00  0.00     0.030 A 
HETATM   29  C   UNL     1      23.696  43.809  50.500  1.00  0.00     0.015 A 
HETATM   30  C   UNL     1      22.966  43.179  49.484  1.00  0.00     0.001 A 
HETATM   31  C   UNL     1      23.442  42.019  48.898  1.00  0.00     0.002 A 
ENDBRANCH   1  17
TORSDOF 7
ENDMDL
MODEL 6
REMARK VINA RESULT:      -8.6      1.612      3.880
REMARK  7 active torsions:
REMARK  status: ('A' for Active; 'I' for Inactive)
REMARK    1  A    between atoms: O_2  and  C_3 
REMARK    2  A    between atoms: C_3  and  C_4 
REMARK    3  A    between atoms: C_4  and  N_5 
REMARK    4  A    between atoms: C_4  and  C_21 
REMARK    5  A    between atoms: N_5  and  C_6 
REMARK    6  A    between atoms: C_21  and  C_22 
REMARK    7  A    between atoms: C_25  and  O_26 
ROOT
HETATM    1  N   UNL     1      26.194  44.495  52.578  1.00  0.00    -0.277 NA
HETATM    2  H   UNL     1      25.376  43.966  52.900  1.00  0.00     0.128 HD
ENDROOT
BRANCH   1   3
HETATM    3  C   UNL     1      25.850  45.229  51.327  1.00  0.00     0.164 C 
BRANCH   3   4
HETATM    4  C   UNL     1      24.669  44.558  50.597  1.00  0.00     0.276 C 
HETATM    5  O   UNL     1      23.654  44.166  51.154  1.00  0.00    -0.263 OA
BRANCH   4   6
HETATM    6  O   UNL     1      24.909  44.475  49.253  1.00  0.00    -0.325 OA
HETATM    7  C   UNL     1      24.433  43.273  48.643  1.00  0.00     0.213 C 
ENDBRANCH   4   6
ENDBRANCH   3   4
BRANCH   3   8
HETATM    8  C   UNL     1      25.364  46.655  51.653  1.00  0.00     0.068 C 
BRANCH   8   9
HETATM    9  C   UNL     1      25.491  47.663  50.535  1.00  0.00    -0.056 A 
HETATM   10  C   UNL     1      26.749  48.078  50.075  1.00  0.00     0.010 A 
HETATM   11  C   UNL     1      26.855  48.967  49.002  1.00  0.00     0.037 A 
HETATM   12  C   UNL     1      25.700  49.439  48.387  1.00  0.00     0.065 A 
HETATM   13  C   UNL     1      24.446  49.038  48.827  1.00  0.00     0.037 A 
HETATM   14  C   UNL     1      24.341  48.145  49.893  1.00  0.00     0.010 A 
BRANCH  12  15
HETATM   15  O   UNL     1      25.755  50.299  47.331  1.00  0.00    -0.361 OA
HETATM   16  H   UNL     1      26.576  50.815  47.390  1.00  0.00     0.217 HD
ENDBRANCH  12  15
ENDBRANCH   8   9
ENDBRANCH   3   8
ENDBRANCH   1   3
BRANCH   1  17
HETATM   17  C   UNL     1      27.371  43.745  52.758  1.00  0.00     0.034 A 
HETATM   18  C   UNL     1      28.226  44.179  53.817  1.00  0.00     0.013 A 
HETATM   19  C   UNL     1      29.330  43.387  54.187  1.00  0.00     0.044 A 
HETATM   20  C   UNL     1      28.043  45.384  54.533  1.00  0.00     0.015 A 
HETATM   21  C   UNL     1      30.194  43.773  55.225  1.00  0.00     0.030 A 
HETATM   22  N   UNL     1      29.548  42.233  53.545  1.00  0.00    -0.355 N 
HETATM   23  C   UNL     1      29.981  44.965  55.910  1.00  0.00     0.002 A 
HETATM   24  C   UNL     1      28.909  45.774  55.560  1.00  0.00     0.001 A 
HETATM   25  H   UNL     1      30.346  41.676  53.839  1.00  0.00     0.166 HD
HETATM   26  C   UNL     1      28.777  41.755  52.559  1.00  0.00     0.044 A 
HETATM   27  C   UNL     1      27.649  42.490  52.121  1.00  0.00     0.013 A 
HETATM   28  C   UNL     1      29.112  40.502  52.005  1.00  0.00     0.030 A 
HETATM   29  C   UNL     1      26.890  41.874  51.093  1.00  0.00     0.015 A 
HETATM   30  C   UNL     1      27.229  40.634  50.539  1.00  0.00     0.001 A 
HETATM   31  C   UNL     1      28.338  39.944  50.996  1.00  0.00     0.002 A 
ENDBRANCH   1  17
TORSDOF 7
ENDMDL
MODEL 7
REMARK VINA RESULT:      -8.4      2.453      4.626
REMARK  7 active torsions:
REMARK  status: ('A' for Active; 'I' for Inactive)
REMARK    1  A    between atoms: O_2  and  C_3 
REMARK    2  A    between atoms: C_3  and  C_4 
REMARK    3  A    between atoms: C_4  and  N_5 
REMARK    4  A    between atoms: C_4  and  C_21 
REMARK    5  A    between atoms: N_5  and  C_6 
REMARK    6  A    between atoms: C_21  and  C_22 
REMARK    7  A    between atoms: C_25  and  O_26 
ROOT
HETATM    1  N   UNL     1      27.333  42.929  53.243  1.00  0.00    -0.277 NA
HETATM    2  H   UNL     1      27.374  42.105  53.855  1.00  0.00     0.128 HD
ENDROOT
BRANCH   1   3
HETATM    3  C   UNL     1      27.614  42.518  51.838  1.00  0.00     0.164 C 
BRANCH   3   4
HETATM    4  C   UNL     1      28.525  41.274  51.796  1.00  0.00     0.276 C 
HETATM    5  O   UNL     1      29.043  40.770  52.782  1.00  0.00    -0.263 OA
BRANCH   4   6
HETATM    6  O   UNL     1      28.660  40.810  50.516  1.00  0.00    -0.325 OA
HETATM    7  C   UNL     1      28.633  39.386  50.400  1.00  0.00     0.213 C 
ENDBRANCH   4   6
ENDBRANCH   3   4
BRANCH   3   8
HETATM    8  C   UNL     1      26.314  42.088  51.131  1.00  0.00     0.068 C 
BRANCH   8   9
HETATM    9  C   UNL     1      25.464  43.210  50.582  1.00  0.00    -0.056 A 
HETATM   10  C   UNL     1      24.080  43.243  50.801  1.00  0.00     0.010 A 
HETATM   11  C   UNL     1      23.313  44.316  50.339  1.00  0.00     0.037 A 
HETATM   12  C   UNL     1      23.933  45.358  49.657  1.00  0.00     0.065 A 
HETATM   13  C   UNL     1      25.302  45.344  49.432  1.00  0.00     0.037 A 
HETATM   14  C   UNL     1      26.069  44.277  49.900  1.00  0.00     0.010 A 
BRANCH  12  15
HETATM   15  O   UNL     1      23.227  46.429  49.197  1.00  0.00    -0.361 OA
HETATM   16  H   UNL     1      22.541  46.113  48.585  1.00  0.00     0.217 HD
ENDBRANCH  12  15
ENDBRANCH   8   9
ENDBRANCH   3   8
ENDBRANCH   1   3
BRANCH   1  17
HETATM   17  C   UNL     1      27.917  44.043  53.874  1.00  0.00     0.034 A 
HETATM   18  C   UNL     1      27.158  45.253  53.819  1.00  0.00     0.013 A 
HETATM   19  C   UNL     1      27.574  46.367  54.573  1.00  0.00     0.044 A 
HETATM   20  C   UNL     1      25.993  45.417  53.035  1.00  0.00     0.015 A 
HETATM   21  C   UNL     1      26.856  47.575  54.553  1.00  0.00     0.030 A 
HETATM   22  N   UNL     1      28.667  46.266  55.337  1.00  0.00    -0.355 N 
HETATM   23  C   UNL     1      25.712  47.699  53.770  1.00  0.00     0.002 A 
HETATM   24  C   UNL     1      25.284  46.622  53.007  1.00  0.00     0.001 A 
HETATM   25  H   UNL     1      28.939  47.082  55.878  1.00  0.00     0.166 HD
HETATM   26  C   UNL     1      29.414  45.159  55.452  1.00  0.00     0.044 A 
HETATM   27  C   UNL     1      29.069  43.993  54.725  1.00  0.00     0.013 A 
HETATM   28  C   UNL     1      30.517  45.192  56.330  1.00  0.00     0.030 A 
HETATM   29  C   UNL     1      29.912  42.874  54.947  1.00  0.00     0.015 A 
HETATM   30  C   UNL     1      31.012  42.912  55.813  1.00  0.00     0.001 A 
HETATM   31  C   UNL     1      31.314  44.069  56.509  1.00  0.00     0.002 A 
ENDBRANCH   1  17
TORSDOF 7
ENDMDL
MODEL 8
REMARK VINA RESULT:      -8.4      2.608      4.827
REMARK  7 active torsions:
REMARK  status: ('A' for Active; 'I' for Inactive)
REMARK    1  A    between atoms: O_2  and  C_3 
REMARK    2  A    between atoms: C_3  and  C_4 
REMARK    3  A    between atoms: C_4  and  N_5 
REMARK    4  A    between atoms: C_4  and  C_21 
REMARK    5  A    between atoms: N_5  and  C_6 
REMARK    6  A    between atoms: C_21  and  C_22 
REMARK    7  A    between atoms: C_25  and  O_26 
ROOT
HETATM    1  N   UNL     1      27.794  45.637  53.337  1.00  0.00    -0.277 NA
HETATM    2  H   UNL     1      28.486  46.366  53.130  1.00  0.00     0.128 HD
ENDROOT
BRANCH   1   3
HETATM    3  C   UNL     1      26.576  46.262  53.926  1.00  0.00     0.164 C 
BRANCH   3   4
HETATM    4  C   UNL     1      26.945  47.462  54.821  1.00  0.00     0.276 C 
HETATM    5  O   UNL     1      28.014  48.053  54.766  1.00  0.00    -0.263 OA
BRANCH   4   6
HETATM    6  O   UNL     1      25.916  47.777  55.665  1.00  0.00    -0.325 OA
HETATM    7  C   UNL     1      26.100  48.998  56.386  1.00  0.00     0.213 C 
ENDBRANCH   4   6
ENDBRANCH   3   4
BRANCH   3   8
HETATM    8  C   UNL     1      25.680  46.848  52.816  1.00  0.00     0.068 C 
BRANCH   8   9
HETATM    9  C   UNL     1      25.424  45.944  51.634  1.00  0.00    -0.056 A 
HETATM   10  C   UNL     1      24.455  44.932  51.693  1.00  0.00     0.010 A 
HETATM   11  C   UNL     1      24.187  44.139  50.573  1.00  0.00     0.037 A 
HETATM   12  C   UNL     1      24.888  44.361  49.393  1.00  0.00     0.065 A 
HETATM   13  C   UNL     1      25.850  45.358  49.315  1.00  0.00     0.037 A 
HETATM   14  C   UNL     1      26.112  46.155  50.429  1.00  0.00     0.010 A 
BRANCH  12  15
HETATM   15  O   UNL     1      24.653  43.620  48.274  1.00  0.00    -0.361 OA
HETATM   16  H   UNL     1      24.216  42.791  48.533  1.00  0.00     0.217 HD
ENDBRANCH  12  15
ENDBRANCH   8   9
ENDBRANCH   3   8
ENDBRANCH   1   3
BRANCH   1  17
HETATM   17  C   UNL     1      28.423  44.489  53.854  1.00  0.00     0.034 A 
HETATM   18  C   UNL     1      28.314  43.310  53.053  1.00  0.00     0.013 A 
HETATM   19  C   UNL     1      29.059  42.166  53.398  1.00  0.00     0.044 A 
HETATM   20  C   UNL     1      27.482  43.206  51.915  1.00  0.00     0.015 A 
HETATM   21  C   UNL     1      28.986  40.987  52.637  1.00  0.00     0.030 A 
HETATM   22  N   UNL     1      29.867  42.211  54.463  1.00  0.00    -0.355 N 
HETATM   23  C   UNL     1      28.158  40.921  51.520  1.00  0.00     0.002 A 
HETATM   24  C   UNL     1      27.401  42.029  51.164  1.00  0.00     0.001 A 
HETATM   25  H   UNL     1      30.401  41.374  54.684  1.00  0.00     0.166 HD
HETATM   26  C   UNL     1      30.034  43.287  55.245  1.00  0.00     0.044 A 
HETATM   27  C   UNL     1      29.319  44.479  54.973  1.00  0.00     0.013 A 
HETATM   28  C   UNL     1      30.953  43.194  56.311  1.00  0.00     0.030 A 
HETATM   29  C   UNL     1      29.597  45.560  55.848  1.00  0.00     0.015 A 
HETATM   30  C   UNL     1      30.504  45.464  56.911  1.00  0.00     0.001 A 
HETATM   31  C   UNL     1      31.186  44.282  57.142  1.00  0.00     0.002 A 
ENDBRANCH   1  17
TORSDOF 7
ENDMDL
MODEL 9
REMARK VINA RESULT:      -8.3      3.287      7.684
REMARK  7 active torsions:
REMARK  status: ('A' for Active; 'I' for Inactive)
REMARK    1  A    between atoms: O_2  and  C_3 
REMARK    2  A    between atoms: C_3  and  C_4 
REMARK    3  A    between atoms: C_4  and  N_5 
REMARK    4  A    between atoms: C_4  and  C_21 
REMARK    5  A    between atoms: N_5  and  C_6 
REMARK    6  A    between atoms: C_21  and  C_22 
REMARK    7  A    between atoms: C_25  and  O_26 
ROOT
HETATM    1  N   UNL     1      28.363  43.809  51.881  1.00  0.00    -0.277 NA
HETATM    2  H   UNL     1      29.158  43.305  51.471  1.00  0.00     0.128 HD
ENDROOT
BRANCH   1   3
HETATM    3  C   UNL     1      28.466  43.771  53.368  1.00  0.00     0.164 C 
BRANCH   3   4
HETATM    4  C   UNL     1      27.595  42.641  53.955  1.00  0.00     0.276 C 
HETATM    5  O   UNL     1      27.908  41.459  53.942  1.00  0.00    -0.263 OA
BRANCH   4   6
HETATM    6  O   UNL     1      26.444  43.142  54.497  1.00  0.00    -0.325 OA
HETATM    7  C   UNL     1      26.540  44.502  54.928  1.00  0.00     0.213 C 
ENDBRANCH   4   6
ENDBRANCH   3   4
BRANCH   3   8
HETATM    8  C   UNL     1      29.906  43.436  53.802  1.00  0.00     0.068 C 
BRANCH   8   9
HETATM    9  C   UNL     1      30.279  43.845  55.208  1.00  0.00    -0.056 A 
HETATM   10  C   UNL     1      31.075  43.019  56.015  1.00  0.00     0.010 A 
HETATM   11  C   UNL     1      31.462  43.433  57.292  1.00  0.00     0.037 A 
HETATM   12  C   UNL     1      31.054  44.677  57.761  1.00  0.00     0.065 A 
HETATM   13  C   UNL     1      30.267  45.510  56.977  1.00  0.00     0.037 A 
HETATM   14  C   UNL     1      29.888  45.100  55.699  1.00  0.00     0.010 A 
BRANCH  12  15
HETATM   15  O   UNL     1      31.415  45.128  58.996  1.00  0.00    -0.361 OA
HETATM   16  H   UNL     1      30.721  44.887  59.632  1.00  0.00     0.217 HD
ENDBRANCH  12  15
ENDBRANCH   8   9
ENDBRANCH   3   8
ENDBRANCH   1   3
BRANCH   1  17
HETATM   17  C   UNL     1      27.184  43.544  51.162  1.00  0.00     0.034 A 
HETATM   18  C   UNL     1      26.323  44.666  50.949  1.00  0.00     0.013 A 
HETATM   19  C   UNL     1      25.216  44.536  50.090  1.00  0.00     0.044 A 
HETATM   20  C   UNL     1      26.506  45.925  51.564  1.00  0.00     0.015 A 
HETATM   21  C   UNL     1      24.346  45.613  49.848  1.00  0.00     0.030 A 
HETATM   22  N   UNL     1      24.998  43.367  49.478  1.00  0.00    -0.355 N 
HETATM   23  C   UNL     1      24.558  46.841  50.469  1.00  0.00     0.002 A 
HETATM   24  C   UNL     1      25.635  46.994  51.331  1.00  0.00     0.001 A 
HETATM   25  H   UNL     1      24.197  43.304  48.855  1.00  0.00     0.166 HD
HETATM   26  C   UNL     1      25.774  42.282  49.614  1.00  0.00     0.044 A 
HETATM   27  C   UNL     1      26.907  42.323  50.463  1.00  0.00     0.013 A 
HETATM   28  C   UNL     1      25.439  41.131  48.871  1.00  0.00     0.030 A 
HETATM   29  C   UNL     1      27.670  41.128  50.507  1.00  0.00     0.015 A 
HETATM   30  C   UNL     1      27.331  39.983  49.775  1.00  0.00     0.001 A 
HETATM   31  C   UNL     1      26.217  39.984  48.953  1.00  0.00     0.002 A 
ENDBRANCH   1  17
TORSDOF 7
ENDMDL
MODEL 10
REMARK VINA RESULT:      -8.2      1.869      2.862
REMARK  7 active torsions:
REMARK  status: ('A' for Active; 'I' for Inactive)
REMARK    1  A    between atoms: O_2  and  C_3 
REMARK    2  A    between atoms: C_3  and  C_4 
REMARK    3  A    between atoms: C_4  and  N_5 
REMARK    4  A    between atoms: C_4  and  C_21 
REMARK    5  A    between atoms: N_5  and  C_6 
REMARK    6  A    between atoms: C_21  and  C_22 
REMARK    7  A    between atoms: C_25  and  O_26 
ROOT
HETATM    1  N   UNL     1      23.977  44.795  51.204  1.00  0.00    -0.277 NA
HETATM    2  H   UNL     1      23.289  44.034  51.243  1.00  0.00     0.128 HD
ENDROOT
BRANCH   1   3
HETATM    3  C   UNL     1      24.018  45.355  49.823  1.00  0.00     0.164 C 
BRANCH   3   4
HETATM    4  C   UNL     1      22.854  44.811  48.969  1.00  0.00     0.276 C 
HETATM    5  O   UNL     1      22.627  43.622  48.799  1.00  0.00    -0.263 OA
BRANCH   4   6
HETATM    6  O   UNL     1      22.112  45.834  48.446  1.00  0.00    -0.325 OA
HETATM    7  C   UNL     1      21.044  45.411  47.596  1.00  0.00     0.213 C 
ENDBRANCH   4   6
ENDBRANCH   3   4
BRANCH   3   8
HETATM    8  C   UNL     1      23.814  46.883  49.854  1.00  0.00     0.068 C 
BRANCH   8   9
HETATM    9  C   UNL     1      25.045  47.714  49.577  1.00  0.00    -0.056 A 
HETATM   10  C   UNL     1      26.329  47.212  49.834  1.00  0.00     0.010 A 
HETATM   11  C   UNL     1      27.463  47.967  49.519  1.00  0.00     0.037 A 
HETATM   12  C   UNL     1      27.310  49.225  48.945  1.00  0.00     0.065 A 
HETATM   13  C   UNL     1      26.047  49.738  48.682  1.00  0.00     0.037 A 
HETATM   14  C   UNL     1      24.917  48.981  48.988  1.00  0.00     0.010 A 
BRANCH  12  15
HETATM   15  O   UNL     1      28.386  49.993  48.612  1.00  0.00    -0.361 OA
HETATM   16  H   UNL     1      29.113  49.410  48.336  1.00  0.00     0.217 HD
ENDBRANCH  12  15
ENDBRANCH   8   9
ENDBRANCH   3   8
ENDBRANCH   1   3
BRANCH   1  17
HETATM   17  C   UNL     1      25.118  44.471  51.961  1.00  0.00     0.034 A 
HETATM   18  C   UNL     1      25.751  43.233  51.628  1.00  0.00     0.013 A 
HETATM   19  C   UNL     1      26.994  42.914  52.205  1.00  0.00     0.044 A 
HETATM   20  C   UNL     1      25.197  42.279  50.744  1.00  0.00     0.015 A 
HETATM   21  C   UNL     1      27.655  41.711  51.903  1.00  0.00     0.030 A 
HETATM   22  N   UNL     1      27.566  43.783  53.046  1.00  0.00    -0.355 N 
HETATM   23  C   UNL     1      27.081  40.795  51.026  1.00  0.00     0.002 A 
HETATM   24  C   UNL     1      25.850  41.077  50.452  1.00  0.00     0.001 A 
HETATM   25  H   UNL     1      28.469  43.532  53.440  1.00  0.00     0.166 HD
HETATM   26  C   UNL     1      27.041  44.969  53.386  1.00  0.00     0.044 A 
HETATM   27  C   UNL     1      25.790  45.368  52.855  1.00  0.00     0.013 A 
HETATM   28  C   UNL     1      27.782  45.796  54.254  1.00  0.00     0.030 A 
HETATM   29  C   UNL     1      25.346  46.652  53.261  1.00  0.00     0.015 A 
HETATM   30  C   UNL     1      26.080  47.470  54.130  1.00  0.00     0.001 A 
HETATM   31  C   UNL     1      27.300  47.046  54.625  1.00  0.00     0.002 A 
ENDBRANCH   1  17
TORSDOF 7
ENDMDL
