MODEL 1
REMARK VINA RESULT:     -10.5      0.000      0.000
REMARK  3 active torsions:
REMARK  status: ('A' for Active; 'I' for Inactive)
REMARK    1  A    between atoms: N_12  and  C_13 
REMARK    2  A    between atoms: C_13  and  C_14 
REMARK       I    between atoms: C_14  and  N_15 
REMARK    3  A    between atoms: N_15  and  C_16 
ROOT
HETATM    1  C   UNL     1      32.319  43.107  57.263  1.00  0.00     0.048 C 
HETATM    2  C   UNL     1      31.170  44.031  56.982  1.00  0.00    -0.061 A 
HETATM    3  C   UNL     1      30.441  43.921  55.786  1.00  0.00     0.021 A 
HETATM    4  C   UNL     1      29.362  44.794  55.540  1.00  0.00     0.005 A 
HETATM    5  C   UNL     1      29.046  45.763  56.499  1.00  0.00     0.044 A 
HETATM    6  N   UNL     1      27.956  46.469  56.031  1.00  0.00    -0.350 N 
HETATM    7  H   UNL     1      27.493  47.227  56.517  1.00  0.00     0.166 HD
HETATM    8  C   UNL     1      27.575  45.972  54.817  1.00  0.00     0.116 A 
HETATM    9  C   UNL     1      28.427  44.949  54.487  1.00  0.00     0.028 A 
HETATM   10  C   UNL     1      26.477  46.381  53.990  1.00  0.00     0.291 A 
HETATM   11  O   UNL     1      25.697  47.271  54.309  1.00  0.00    -0.264 OA
HETATM   12  N   UNL     1      26.405  45.659  52.782  1.00  0.00    -0.224 N 
HETATM   13  N   UNL     1      27.260  44.586  52.446  1.00  0.00    -0.180 NA
HETATM   14  C   UNL     1      28.227  44.252  53.250  1.00  0.00     0.153 A 
HETATM   15  C   UNL     1      29.766  45.902  57.689  1.00  0.00     0.031 A 
HETATM   16  C   UNL     1      30.830  45.020  57.912  1.00  0.00     0.009 A 
ENDROOT
BRANCH  12  17
HETATM   17  C   UNL     1      25.228  45.819  51.943  1.00  0.00     0.258 C 
BRANCH  17  18
HETATM   18  C   UNL     1      25.085  46.983  50.943  1.00  0.00     0.244 C 
HETATM   19  N   UNL     1      24.129  46.942  49.917  1.00  0.00    -0.321 N 
HETATM   20  C   UNL     1      23.413  45.724  49.552  1.00  0.00     0.159 C 
HETATM   21  O   UNL     1      25.756  47.997  51.187  1.00  0.00    -0.271 OA
BRANCH  19  22
HETATM   22  C   UNL     1      23.839  48.119  49.138  1.00  0.00     0.036 A 
HETATM   23  C   UNL     1      24.869  48.954  48.680  1.00  0.00     0.029 A 
HETATM   24  C   UNL     1      24.590  50.128  47.971  1.00  0.00     0.002 A 
HETATM   25  C   UNL     1      23.271  50.483  47.701  1.00  0.00     0.000 A 
HETATM   26  C   UNL     1      22.235  49.664  48.140  1.00  0.00     0.002 A 
HETATM   27  C   UNL     1      22.517  48.496  48.857  1.00  0.00     0.029 A 
ENDBRANCH  19  22
ENDBRANCH  17  18
ENDBRANCH  12  17
TORSDOF 3
ENDMDL
MODEL 2
REMARK VINA RESULT:     -10.4      1.334      2.143
REMARK  3 active torsions:
REMARK  status: ('A' for Active; 'I' for Inactive)
REMARK    1  A    between atoms: N_12  and  C_13 
REMARK    2  A    between atoms: C_13  and  C_14 
REMARK       I    between atoms: C_14  and  N_15 
REMARK    3  A    between atoms: N_15  and  C_16 
ROOT
HETATM    1  C   UNL     1      30.761  45.797  58.189  1.00  0.00     0.048 C 
HETATM    2  C   UNL     1      30.269  45.191  56.907  1.00  0.00    -0.061 A 
HETATM    3  C   UNL     1      29.094  45.665  56.298  1.00  0.00     0.021 A 
HETATM    4  C   UNL     1      28.648  45.088  55.092  1.00  0.00     0.005 A 
HETATM    5  C   UNL     1      29.389  44.042  54.530  1.00  0.00     0.044 A 
HETATM    6  N   UNL     1      28.757  43.669  53.360  1.00  0.00    -0.350 N 
HETATM    7  H   UNL     1      29.071  42.943  52.727  1.00  0.00     0.166 HD
HETATM    8  C   UNL     1      27.652  44.448  53.167  1.00  0.00     0.116 A 
HETATM    9  C   UNL     1      27.556  45.322  54.221  1.00  0.00     0.028 A 
HETATM   10  C   UNL     1      26.727  44.429  52.072  1.00  0.00     0.291 A 
HETATM   11  O   UNL     1      26.840  43.670  51.116  1.00  0.00    -0.264 OA
HETATM   12  N   UNL     1      25.681  45.361  52.225  1.00  0.00    -0.224 N 
HETATM   13  N   UNL     1      25.589  46.284  53.290  1.00  0.00    -0.180 NA
HETATM   14  C   UNL     1      26.473  46.262  54.245  1.00  0.00     0.153 A 
HETATM   15  C   UNL     1      30.551  43.543  55.125  1.00  0.00     0.031 A 
HETATM   16  C   UNL     1      30.976  44.136  56.320  1.00  0.00     0.009 A 
ENDROOT
BRANCH  12  17
HETATM   17  C   UNL     1      24.790  45.600  51.101  1.00  0.00     0.258 C 
BRANCH  17  18
HETATM   18  C   UNL     1      24.640  46.990  50.452  1.00  0.00     0.244 C 
HETATM   19  N   UNL     1      23.654  47.235  49.484  1.00  0.00    -0.321 N 
HETATM   20  C   UNL     1      22.905  46.167  48.832  1.00  0.00     0.159 C 
HETATM   21  O   UNL     1      25.338  47.895  50.935  1.00  0.00    -0.271 OA
BRANCH  19  22
HETATM   22  C   UNL     1      23.366  48.580  49.058  1.00  0.00     0.036 A 
HETATM   23  C   UNL     1      24.285  49.307  48.286  1.00  0.00     0.029 A 
HETATM   24  C   UNL     1      24.032  50.634  47.917  1.00  0.00     0.002 A 
HETATM   25  C   UNL     1      22.849  51.253  48.308  1.00  0.00     0.000 A 
HETATM   26  C   UNL     1      21.920  50.548  49.066  1.00  0.00     0.002 A 
HETATM   27  C   UNL     1      22.180  49.225  49.443  1.00  0.00     0.029 A 
ENDBRANCH  19  22
ENDBRANCH  17  18
ENDBRANCH  12  17
TORSDOF 3
ENDMDL
MODEL 3
REMARK VINA RESULT:      -9.6      2.010      2.908
REMARK  3 active torsions:
REMARK  status: ('A' for Active; 'I' for Inactive)
REMARK    1  A    between atoms: N_12  and  C_13 
REMARK    2  A    between atoms: C_13  and  C_14 
REMARK       I    between atoms: C_14  and  N_15 
REMARK    3  A    between atoms: N_15  and  C_16 
ROOT
HETATM    1  C   UNL     1      30.361  46.300  58.247  1.00  0.00     0.048 C 
HETATM    2  C   UNL     1      30.212  45.333  57.108  1.00  0.00    -0.061 A 
HETATM    3  C   UNL     1      29.188  45.499  56.161  1.00  0.00     0.021 A 
HETATM    4  C   UNL     1      29.065  44.585  55.095  1.00  0.00     0.005 A 
HETATM    5  C   UNL     1      29.971  43.521  55.010  1.00  0.00     0.044 A 
HETATM    6  N   UNL     1      29.649  42.791  53.883  1.00  0.00    -0.350 N 
HETATM    7  H   UNL     1      30.139  41.968  53.555  1.00  0.00     0.166 HD
HETATM    8  C   UNL     1      28.578  43.364  53.257  1.00  0.00     0.116 A 
HETATM    9  C   UNL     1      28.193  44.462  53.985  1.00  0.00     0.028 A 
HETATM   10  C   UNL     1      27.935  42.959  52.041  1.00  0.00     0.291 A 
HETATM   11  O   UNL     1      28.307  41.999  51.376  1.00  0.00    -0.264 OA
HETATM   12  N   UNL     1      26.834  43.774  51.709  1.00  0.00    -0.224 N 
HETATM   13  N   UNL     1      26.447  44.921  52.435  1.00  0.00    -0.180 NA
HETATM   14  C   UNL     1      27.086  45.246  53.522  1.00  0.00     0.153 A 
HETATM   15  C   UNL     1      30.989  43.327  55.948  1.00  0.00     0.031 A 
HETATM   16  C   UNL     1      31.092  44.251  56.995  1.00  0.00     0.009 A 
ENDROOT
BRANCH  12  17
HETATM   17  C   UNL     1      26.216  43.613  50.402  1.00  0.00     0.258 C 
BRANCH  17  18
HETATM   18  C   UNL     1      25.536  44.784  49.666  1.00  0.00     0.244 C 
HETATM   19  N   UNL     1      24.146  44.964  49.720  1.00  0.00    -0.321 N 
HETATM   20  C   UNL     1      23.236  43.941  50.222  1.00  0.00     0.159 C 
HETATM   21  O   UNL     1      26.296  45.620  49.153  1.00  0.00    -0.271 OA
BRANCH  19  22
HETATM   22  C   UNL     1      23.546  46.180  49.233  1.00  0.00     0.036 A 
HETATM   23  C   UNL     1      22.581  46.153  48.215  1.00  0.00     0.029 A 
HETATM   24  C   UNL     1      22.036  47.336  47.701  1.00  0.00     0.002 A 
HETATM   25  C   UNL     1      22.443  48.568  48.205  1.00  0.00     0.000 A 
HETATM   26  C   UNL     1      23.393  48.616  49.220  1.00  0.00     0.002 A 
HETATM   27  C   UNL     1      23.944  47.433  49.725  1.00  0.00     0.029 A 
ENDBRANCH  19  22
ENDBRANCH  17  18
ENDBRANCH  12  17
TORSDOF 3
ENDMDL
MODEL 4
REMARK VINA RESULT:      -9.5      2.296      3.922
REMARK  3 active torsions:
REMARK  status: ('A' for Active; 'I' for Inactive)
REMARK    1  A    between atoms: N_12  and  C_13 
REMARK    2  A    between atoms: C_13  and  C_14 
REMARK       I    between atoms: C_14  and  N_15 
REMARK    3  A    between atoms: N_15  and  C_16 
ROOT
HETATM    1  C   UNL     1      32.423  43.231  57.321  1.00  0.00     0.048 C 
HETATM    2  C   UNL     1      31.273  44.145  57.011  1.00  0.00    -0.061 A 
HETATM    3  C   UNL     1      30.518  43.970  55.839  1.00  0.00     0.021 A 
HETATM    4  C   UNL     1      29.439  44.834  55.565  1.00  0.00     0.005 A 
HETATM    5  C   UNL     1      29.149  45.860  56.472  1.00  0.00     0.044 A 
HETATM    6  N   UNL     1      28.053  46.544  55.986  1.00  0.00    -0.350 N 
HETATM    7  H   UNL     1      27.604  47.332  56.436  1.00  0.00     0.166 HD
HETATM    8  C   UNL     1      27.643  45.980  54.811  1.00  0.00     0.116 A 
HETATM    9  C   UNL     1      28.483  44.933  54.524  1.00  0.00     0.028 A 
HETATM   10  C   UNL     1      26.531  46.347  53.985  1.00  0.00     0.291 A 
HETATM   11  O   UNL     1      25.763  47.259  54.267  1.00  0.00    -0.264 OA
HETATM   12  N   UNL     1      26.429  45.556  52.823  1.00  0.00    -0.224 N 
HETATM   13  N   UNL     1      27.270  44.459  52.533  1.00  0.00    -0.180 NA
HETATM   14  C   UNL     1      28.253  44.166  53.335  1.00  0.00     0.153 A 
HETATM   15  C   UNL     1      29.895  46.063  57.637  1.00  0.00     0.031 A 
HETATM   16  C   UNL     1      30.959  45.189  57.888  1.00  0.00     0.009 A 
ENDROOT
BRANCH  12  17
HETATM   17  C   UNL     1      25.235  45.674  52.001  1.00  0.00     0.258 C 
BRANCH  17  18
HETATM   18  C   UNL     1      24.632  44.470  51.251  1.00  0.00     0.244 C 
HETATM   19  N   UNL     1      24.610  44.428  49.849  1.00  0.00    -0.321 N 
HETATM   20  C   UNL     1      24.887  45.595  49.019  1.00  0.00     0.159 C 
HETATM   21  O   UNL     1      24.306  43.499  51.951  1.00  0.00    -0.271 OA
BRANCH  19  22
HETATM   22  C   UNL     1      24.266  43.211  49.159  1.00  0.00     0.036 A 
HETATM   23  C   UNL     1      22.937  42.928  48.811  1.00  0.00     0.029 A 
HETATM   24  C   UNL     1      22.591  41.722  48.191  1.00  0.00     0.002 A 
HETATM   25  C   UNL     1      23.574  40.781  47.899  1.00  0.00     0.000 A 
HETATM   26  C   UNL     1      24.899  41.045  48.227  1.00  0.00     0.002 A 
HETATM   27  C   UNL     1      25.241  42.248  48.857  1.00  0.00     0.029 A 
ENDBRANCH  19  22
ENDBRANCH  17  18
ENDBRANCH  12  17
TORSDOF 3
ENDMDL
MODEL 5
REMARK VINA RESULT:      -9.4      2.302      4.146
REMARK  3 active torsions:
REMARK  status: ('A' for Active; 'I' for Inactive)
REMARK    1  A    between atoms: N_12  and  C_13 
REMARK    2  A    between atoms: C_13  and  C_14 
REMARK       I    between atoms: C_14  and  N_15 
REMARK    3  A    between atoms: N_15  and  C_16 
ROOT
HETATM    1  C   UNL     1      29.170  45.665  56.330  1.00  0.00     0.048 C 
HETATM    2  C   UNL     1      28.567  45.196  55.038  1.00  0.00    -0.061 A 
HETATM    3  C   UNL     1      27.638  45.997  54.352  1.00  0.00     0.021 A 
HETATM    4  C   UNL     1      27.084  45.544  53.138  1.00  0.00     0.005 A 
HETATM    5  C   UNL     1      27.472  44.293  52.645  1.00  0.00     0.044 A 
HETATM    6  N   UNL     1      26.808  44.094  51.451  1.00  0.00    -0.350 N 
HETATM    7  H   UNL     1      26.898  43.280  50.855  1.00  0.00     0.166 HD
HETATM    8  C   UNL     1      26.023  45.178  51.176  1.00  0.00     0.116 A 
HETATM    9  C   UNL     1      26.167  46.080  52.201  1.00  0.00     0.028 A 
HETATM   10  C   UNL     1      25.192  45.411  50.032  1.00  0.00     0.291 A 
HETATM   11  O   UNL     1      25.098  44.617  49.103  1.00  0.00    -0.264 OA
HETATM   12  N   UNL     1      24.498  46.635  50.102  1.00  0.00    -0.224 N 
HETATM   13  N   UNL     1      24.660  47.583  51.137  1.00  0.00    -0.180 NA
HETATM   14  C   UNL     1      25.446  47.318  52.140  1.00  0.00     0.153 A 
HETATM   15  C   UNL     1      28.383  43.472  53.316  1.00  0.00     0.031 A 
HETATM   16  C   UNL     1      28.921  43.946  54.518  1.00  0.00     0.009 A 
ENDROOT
BRANCH  12  17
HETATM   17  C   UNL     1      23.783  47.101  48.923  1.00  0.00     0.258 C 
BRANCH  17  18
HETATM   18  C   UNL     1      22.545  48.014  49.021  1.00  0.00     0.244 C 
HETATM   19  N   UNL     1      22.651  49.400  48.830  1.00  0.00    -0.321 N 
HETATM   20  C   UNL     1      23.932  50.098  48.803  1.00  0.00     0.159 C 
HETATM   21  O   UNL     1      21.452  47.439  49.135  1.00  0.00    -0.271 OA
BRANCH  19  22
HETATM   22  C   UNL     1      21.470  50.211  48.688  1.00  0.00     0.036 A 
HETATM   23  C   UNL     1      20.919  50.886  49.788  1.00  0.00     0.029 A 
HETATM   24  C   UNL     1      19.740  51.630  49.667  1.00  0.00     0.002 A 
HETATM   25  C   UNL     1      19.095  51.719  48.437  1.00  0.00     0.000 A 
HETATM   26  C   UNL     1      19.629  51.065  47.331  1.00  0.00     0.002 A 
HETATM   27  C   UNL     1      20.803  50.313  47.457  1.00  0.00     0.029 A 
ENDBRANCH  19  22
ENDBRANCH  17  18
ENDBRANCH  12  17
TORSDOF 3
ENDMDL
MODEL 6
REMARK VINA RESULT:      -9.3      4.873      6.712
REMARK  3 active torsions:
REMARK  status: ('A' for Active; 'I' for Inactive)
REMARK    1  A    between atoms: N_12  and  C_13 
REMARK    2  A    between atoms: C_13  and  C_14 
REMARK       I    between atoms: C_14  and  N_15 
REMARK    3  A    between atoms: N_15  and  C_16 
ROOT
HETATM    1  C   UNL     1      32.127  43.393  57.442  1.00  0.00     0.048 C 
HETATM    2  C   UNL     1      31.040  43.941  56.564  1.00  0.00    -0.061 A 
HETATM    3  C   UNL     1      30.651  43.259  55.399  1.00  0.00     0.021 A 
HETATM    4  C   UNL     1      29.625  43.785  54.588  1.00  0.00     0.005 A 
HETATM    5  C   UNL     1      29.018  44.989  54.964  1.00  0.00     0.044 A 
HETATM    6  N   UNL     1      28.048  45.275  54.025  1.00  0.00    -0.350 N 
HETATM    7  H   UNL     1      27.433  46.080  54.039  1.00  0.00     0.166 HD
HETATM    8  C   UNL     1      28.022  44.291  53.078  1.00  0.00     0.116 A 
HETATM    9  C   UNL     1      28.987  43.367  53.395  1.00  0.00     0.028 A 
HETATM   10  C   UNL     1      27.153  44.166  51.945  1.00  0.00     0.291 A 
HETATM   11  O   UNL     1      26.269  44.975  51.689  1.00  0.00    -0.264 OA
HETATM   12  N   UNL     1      27.436  43.028  51.163  1.00  0.00    -0.224 N 
HETATM   13  N   UNL     1      28.407  42.058  51.495  1.00  0.00    -0.180 NA
HETATM   14  C   UNL     1      29.151  42.220  52.550  1.00  0.00     0.153 A 
HETATM   15  C   UNL     1      29.398  45.694  56.111  1.00  0.00     0.031 A 
HETATM   16  C   UNL     1      30.416  45.148  56.901  1.00  0.00     0.009 A 
ENDROOT
BRANCH  12  17
HETATM   17  C   UNL     1      26.508  42.660  50.105  1.00  0.00     0.258 C 
BRANCH  17  18
HETATM   18  C   UNL     1      26.190  41.190  49.766  1.00  0.00     0.244 C 
HETATM   19  N   UNL     1      26.869  40.521  48.736  1.00  0.00    -0.321 N 
HETATM   20  C   UNL     1      27.697  41.214  47.756  1.00  0.00     0.159 C 
HETATM   21  O   UNL     1      25.415  40.608  50.541  1.00  0.00    -0.271 OA
BRANCH  19  22
HETATM   22  C   UNL     1      26.739  39.095  48.581  1.00  0.00     0.036 A 
HETATM   23  C   UNL     1      26.062  38.546  47.481  1.00  0.00     0.029 A 
HETATM   24  C   UNL     1      25.886  37.163  47.355  1.00  0.00     0.002 A 
HETATM   25  C   UNL     1      26.394  36.304  48.325  1.00  0.00     0.000 A 
HETATM   26  C   UNL     1      27.077  36.827  49.418  1.00  0.00     0.002 A 
HETATM   27  C   UNL     1      27.242  38.211  49.548  1.00  0.00     0.029 A 
ENDBRANCH  19  22
ENDBRANCH  17  18
ENDBRANCH  12  17
TORSDOF 3
ENDMDL
MODEL 7
REMARK VINA RESULT:      -9.3      4.837      6.160
REMARK  3 active torsions:
REMARK  status: ('A' for Active; 'I' for Inactive)
REMARK    1  A    between atoms: N_12  and  C_13 
REMARK    2  A    between atoms: C_13  and  C_14 
REMARK       I    between atoms: C_14  and  N_15 
REMARK    3  A    between atoms: N_15  and  C_16 
ROOT
HETATM    1  C   UNL     1      32.122  43.757  57.404  1.00  0.00     0.048 C 
HETATM    2  C   UNL     1      31.001  44.064  56.455  1.00  0.00    -0.061 A 
HETATM    3  C   UNL     1      30.604  43.122  55.491  1.00  0.00     0.021 A 
HETATM    4  C   UNL     1      29.546  43.424  54.610  1.00  0.00     0.005 A 
HETATM    5  C   UNL     1      28.916  44.669  54.714  1.00  0.00     0.044 A 
HETATM    6  N   UNL     1      27.917  44.709  53.762  1.00  0.00    -0.350 N 
HETATM    7  H   UNL     1      27.281  45.482  53.608  1.00  0.00     0.166 HD
HETATM    8  C   UNL     1      27.895  43.531  53.070  1.00  0.00     0.116 A 
HETATM    9  C   UNL     1      28.892  42.727  53.564  1.00  0.00     0.028 A 
HETATM   10  C   UNL     1      27.005  43.128  52.022  1.00  0.00     0.291 A 
HETATM   11  O   UNL     1      26.094  43.837  51.611  1.00  0.00    -0.264 OA
HETATM   12  N   UNL     1      27.301  41.846  51.517  1.00  0.00    -0.224 N 
HETATM   13  N   UNL     1      28.305  41.000  52.036  1.00  0.00    -0.180 NA
HETATM   14  C   UNL     1      29.068  41.419  53.004  1.00  0.00     0.153 A 
HETATM   15  C   UNL     1      29.302  45.628  55.655  1.00  0.00     0.031 A 
HETATM   16  C   UNL     1      30.353  45.303  56.521  1.00  0.00     0.009 A 
ENDROOT
BRANCH  12  17
HETATM   17  C   UNL     1      26.359  41.223  50.600  1.00  0.00     0.258 C 
BRANCH  17  18
HETATM   18  C   UNL     1      26.523  41.311  49.069  1.00  0.00     0.244 C 
HETATM   19  N   UNL     1      27.171  40.294  48.351  1.00  0.00    -0.321 N 
HETATM   20  C   UNL     1      27.959  39.250  48.996  1.00  0.00     0.159 C 
HETATM   21  O   UNL     1      25.932  42.247  48.511  1.00  0.00    -0.271 OA
BRANCH  19  22
HETATM   22  C   UNL     1      27.114  40.265  46.912  1.00  0.00     0.036 A 
HETATM   23  C   UNL     1      26.103  39.560  46.242  1.00  0.00     0.029 A 
HETATM   24  C   UNL     1      26.076  39.482  44.845  1.00  0.00     0.002 A 
HETATM   25  C   UNL     1      27.058  40.119  44.093  1.00  0.00     0.000 A 
HETATM   26  C   UNL     1      28.065  40.832  44.737  1.00  0.00     0.002 A 
HETATM   27  C   UNL     1      28.096  40.898  46.134  1.00  0.00     0.029 A 
ENDBRANCH  19  22
ENDBRANCH  17  18
ENDBRANCH  12  17
TORSDOF 3
ENDMDL
MODEL 8
REMARK VINA RESULT:      -9.2      2.771      9.859
REMARK  3 active torsions:
REMARK  status: ('A' for Active; 'I' for Inactive)
REMARK    1  A    between atoms: N_12  and  C_13 
REMARK    2  A    between atoms: C_13  and  C_14 
REMARK       I    between atoms: C_14  and  N_15 
REMARK    3  A    between atoms: N_15  and  C_16 
ROOT
HETATM    1  C   UNL     1      18.092  52.759  48.844  1.00  0.00     0.048 C 
HETATM    2  C   UNL     1      18.765  51.418  48.882  1.00  0.00    -0.061 A 
HETATM    3  C   UNL     1      20.166  51.325  48.953  1.00  0.00     0.021 A 
HETATM    4  C   UNL     1      20.782  50.058  48.993  1.00  0.00     0.005 A 
HETATM    5  C   UNL     1      19.977  48.914  48.954  1.00  0.00     0.044 A 
HETATM    6  N   UNL     1      20.812  47.817  49.022  1.00  0.00    -0.350 N 
HETATM    7  H   UNL     1      20.514  46.849  49.027  1.00  0.00     0.166 HD
HETATM    8  C   UNL     1      22.110  48.233  49.108  1.00  0.00     0.116 A 
HETATM    9  C   UNL     1      22.122  49.606  49.083  1.00  0.00     0.028 A 
HETATM   10  C   UNL     1      23.297  47.438  49.230  1.00  0.00     0.291 A 
HETATM   11  O   UNL     1      23.276  46.214  49.289  1.00  0.00    -0.264 OA
HETATM   12  N   UNL     1      24.473  48.213  49.262  1.00  0.00    -0.224 N 
HETATM   13  N   UNL     1      24.494  49.625  49.266  1.00  0.00    -0.180 NA
HETATM   14  C   UNL     1      23.379  50.290  49.172  1.00  0.00     0.153 A 
HETATM   15  C   UNL     1      18.583  48.981  48.869  1.00  0.00     0.031 A 
HETATM   16  C   UNL     1      17.995  50.251  48.834  1.00  0.00     0.009 A 
ENDROOT
BRANCH  12  17
HETATM   17  C   UNL     1      25.730  47.560  49.592  1.00  0.00     0.258 C 
BRANCH  17  18
HETATM   18  C   UNL     1      25.944  46.815  50.924  1.00  0.00     0.244 C 
HETATM   19  N   UNL     1      26.231  45.442  50.948  1.00  0.00    -0.321 N 
HETATM   20  C   UNL     1      26.078  44.583  49.780  1.00  0.00     0.159 C 
HETATM   21  O   UNL     1      25.988  47.523  51.943  1.00  0.00    -0.271 OA
BRANCH  19  22
HETATM   22  C   UNL     1      26.660  44.806  52.167  1.00  0.00     0.036 A 
HETATM   23  C   UNL     1      28.003  44.450  52.364  1.00  0.00     0.029 A 
HETATM   24  C   UNL     1      28.413  43.781  53.523  1.00  0.00     0.002 A 
HETATM   25  C   UNL     1      27.486  43.465  54.511  1.00  0.00     0.000 A 
HETATM   26  C   UNL     1      26.151  43.817  54.340  1.00  0.00     0.002 A 
HETATM   27  C   UNL     1      25.741  44.476  53.176  1.00  0.00     0.029 A 
ENDBRANCH  19  22
ENDBRANCH  17  18
ENDBRANCH  12  17
TORSDOF 3
ENDMDL
MODEL 9
REMARK VINA RESULT:      -9.0      2.020      2.565
REMARK  3 active torsions:
REMARK  status: ('A' for Active; 'I' for Inactive)
REMARK    1  A    between atoms: N_12  and  C_13 
REMARK    2  A    between atoms: C_13  and  C_14 
REMARK       I    between atoms: C_14  and  N_15 
REMARK    3  A    between atoms: N_15  and  C_16 
ROOT
HETATM    1  C   UNL     1      32.150  43.492  56.791  1.00  0.00     0.048 C 
HETATM    2  C   UNL     1      30.863  44.042  56.248  1.00  0.00    -0.061 A 
HETATM    3  C   UNL     1      30.199  43.394  55.193  1.00  0.00     0.021 A 
HETATM    4  C   UNL     1      28.989  43.921  54.697  1.00  0.00     0.005 A 
HETATM    5  C   UNL     1      28.479  45.092  55.269  1.00  0.00     0.044 A 
HETATM    6  N   UNL     1      27.294  45.386  54.624  1.00  0.00    -0.350 N 
HETATM    7  H   UNL     1      26.689  46.171  54.832  1.00  0.00     0.166 HD
HETATM    8  C   UNL     1      27.041  44.437  53.674  1.00  0.00     0.116 A 
HETATM    9  C   UNL     1      28.071  43.530  53.691  1.00  0.00     0.028 A 
HETATM   10  C   UNL     1      25.912  44.330  52.798  1.00  0.00     0.291 A 
HETATM   11  O   UNL     1      24.978  45.123  52.814  1.00  0.00    -0.264 OA
HETATM   12  N   UNL     1      26.004  43.231  51.921  1.00  0.00    -0.224 N 
HETATM   13  N   UNL     1      27.044  42.277  51.949  1.00  0.00    -0.180 NA
HETATM   14  C   UNL     1      28.033  42.421  52.783  1.00  0.00     0.153 A 
HETATM   15  C   UNL     1      29.129  45.763  56.309  1.00  0.00     0.031 A 
HETATM   16  C   UNL     1      30.327  45.217  56.786  1.00  0.00     0.009 A 
ENDROOT
BRANCH  12  17
HETATM   17  C   UNL     1      24.841  42.877  51.122  1.00  0.00     0.258 C 
BRANCH  17  18
HETATM   18  C   UNL     1      23.911  43.942  50.507  1.00  0.00     0.244 C 
HETATM   19  N   UNL     1      24.387  44.854  49.554  1.00  0.00    -0.321 N 
HETATM   20  C   UNL     1      25.807  45.046  49.283  1.00  0.00     0.159 C 
HETATM   21  O   UNL     1      22.709  43.849  50.798  1.00  0.00    -0.271 OA
BRANCH  19  22
HETATM   22  C   UNL     1      23.470  45.684  48.815  1.00  0.00     0.036 A 
HETATM   23  C   UNL     1      23.252  47.022  49.179  1.00  0.00     0.029 A 
HETATM   24  C   UNL     1      22.321  47.815  48.498  1.00  0.00     0.002 A 
HETATM   25  C   UNL     1      21.598  47.285  47.433  1.00  0.00     0.000 A 
HETATM   26  C   UNL     1      21.806  45.963  47.051  1.00  0.00     0.002 A 
HETATM   27  C   UNL     1      22.730  45.169  47.740  1.00  0.00     0.029 A 
ENDBRANCH  19  22
ENDBRANCH  17  18
ENDBRANCH  12  17
TORSDOF 3
ENDMDL
MODEL 10
REMARK VINA RESULT:      -9.0      2.802     10.320
REMARK  3 active torsions:
REMARK  status: ('A' for Active; 'I' for Inactive)
REMARK    1  A    between atoms: N_12  and  C_13 
REMARK    2  A    between atoms: C_13  and  C_14 
REMARK       I    between atoms: C_14  and  N_15 
REMARK    3  A    between atoms: N_15  and  C_16 
ROOT
HETATM    1  C   UNL     1      15.941  50.635  47.853  1.00  0.00     0.048 C 
HETATM    2  C   UNL     1      17.403  50.843  48.120  1.00  0.00    -0.061 A 
HETATM    3  C   UNL     1      18.255  49.744  48.323  1.00  0.00     0.021 A 
HETATM    4  C   UNL     1      19.627  49.957  48.567  1.00  0.00     0.005 A 
HETATM    5  C   UNL     1      20.109  51.270  48.609  1.00  0.00     0.044 A 
HETATM    6  N   UNL     1      21.468  51.205  48.845  1.00  0.00    -0.350 N 
HETATM    7  H   UNL     1      22.092  51.999  48.914  1.00  0.00     0.166 HD
HETATM    8  C   UNL     1      21.854  49.899  48.945  1.00  0.00     0.116 A 
HETATM    9  C   UNL     1      20.741  49.110  48.788  1.00  0.00     0.028 A 
HETATM   10  C   UNL     1      23.170  49.370  49.153  1.00  0.00     0.291 A 
HETATM   11  O   UNL     1      24.165  50.079  49.255  1.00  0.00    -0.264 OA
HETATM   12  N   UNL     1      23.188  47.964  49.235  1.00  0.00    -0.224 N 
HETATM   13  N   UNL     1      22.054  47.143  49.046  1.00  0.00    -0.180 NA
HETATM   14  C   UNL     1      20.888  47.685  48.842  1.00  0.00     0.153 A 
HETATM   15  C   UNL     1      19.279  52.380  48.425  1.00  0.00     0.031 A 
HETATM   16  C   UNL     1      17.921  52.142  48.180  1.00  0.00     0.009 A 
ENDROOT
BRANCH  12  17
HETATM   17  C   UNL     1      24.472  47.280  49.234  1.00  0.00     0.258 C 
BRANCH  17  18
HETATM   18  C   UNL     1      25.256  47.005  50.532  1.00  0.00     0.244 C 
HETATM   19  N   UNL     1      25.153  45.771  51.192  1.00  0.00    -0.321 N 
HETATM   20  C   UNL     1      24.123  44.788  50.874  1.00  0.00     0.159 C 
HETATM   21  O   UNL     1      26.076  47.873  50.869  1.00  0.00    -0.271 OA
BRANCH  19  22
HETATM   22  C   UNL     1      26.058  45.435  52.261  1.00  0.00     0.036 A 
HETATM   23  C   UNL     1      27.125  44.547  52.053  1.00  0.00     0.029 A 
HETATM   24  C   UNL     1      27.973  44.175  53.103  1.00  0.00     0.002 A 
HETATM   25  C   UNL     1      27.773  44.694  54.378  1.00  0.00     0.000 A 
HETATM   26  C   UNL     1      26.727  45.583  54.604  1.00  0.00     0.002 A 
HETATM   27  C   UNL     1      25.873  45.945  53.555  1.00  0.00     0.029 A 
ENDBRANCH  19  22
ENDBRANCH  17  18
ENDBRANCH  12  17
TORSDOF 3
ENDMDL
