MODEL 1
REMARK VINA RESULT:      -7.1      0.000      0.000
REMARK  6 active torsions:
REMARK  status: ('A' for Active; 'I' for Inactive)
REMARK    1  A    between atoms: C_2  and  O_3 
REMARK    2  A    between atoms: O_3  and  C_4 
REMARK    3  A    between atoms: C_4  and  C_5 
REMARK    4  A    between atoms: C_6  and  O_7 
REMARK    5  A    between atoms: C_12  and  O_13 
REMARK    6  A    between atoms: C_17  and  C_18 
ROOT
HETATM    1  C   UNL     1      30.144  50.628  41.994  1.00  0.00     0.133 C 
HETATM    2  C   UNL     1      31.101  51.877  41.924  1.00  0.00     0.073 C 
HETATM    3  C   UNL     1      31.769  52.106  43.298  1.00  0.00     0.047 C 
HETATM    4  C   UNL     1      32.198  51.743  40.834  1.00  0.00     0.097 C 
HETATM    5  C   UNL     1      32.850  50.426  40.986  1.00  0.00     0.042 A 
HETATM    6  C   UNL     1      32.227  49.275  41.412  1.00  0.00     0.030 A 
HETATM    7  C   UNL     1      33.269  48.339  41.445  1.00  0.00     0.190 A 
HETATM    8  N   UNL     1      34.446  48.840  41.091  1.00  0.00    -0.149 NA
HETATM    9  N   UNL     1      34.167  50.124  40.800  1.00  0.00    -0.279 N 
HETATM   10  H   UNL     1      34.926  50.727  40.501  1.00  0.00     0.189 HD
HETATM   11  C   UNL     1      30.774  49.214  41.755  1.00  0.00     0.074 C 
ENDROOT
BRANCH  11  12
HETATM   12  C   UNL     1      30.140  48.328  40.687  1.00  0.00    -0.048 A 
HETATM   13  C   UNL     1      29.000  47.574  41.010  1.00  0.00     0.009 A 
HETATM   14  C   UNL     1      28.393  46.748  40.060  1.00  0.00     0.024 A 
HETATM   15  C   UNL     1      28.915  46.665  38.772  1.00  0.00     0.034 A 
HETATM   16 CL   UNL     1      28.164  45.653  37.603  1.00  0.00    -0.084 Cl
HETATM   17  C   UNL     1      30.036  47.410  38.423  1.00  0.00     0.024 A 
HETATM   18  C   UNL     1      30.636  48.241  39.370  1.00  0.00     0.009 A 
ENDBRANCH  11  12
BRANCH   1  19
HETATM   19  C   UNL     1      28.834  50.844  41.269  1.00  0.00     0.267 C 
HETATM   20  O   UNL     1      27.751  50.685  41.825  1.00  0.00    -0.265 OA
BRANCH  19  21
HETATM   21  O   UNL     1      28.993  51.247  39.983  1.00  0.00    -0.321 OA
BRANCH  21  22
HETATM   22  C   UNL     1      27.777  51.373  39.229  1.00  0.00     0.174 C 
HETATM   23  C   UNL     1      27.535  50.152  38.358  1.00  0.00     0.034 C 
ENDBRANCH  21  22
ENDBRANCH  19  21
ENDBRANCH   1  19
BRANCH   2  24
HETATM   24  O   UNL     1      30.371  53.084  41.652  1.00  0.00    -0.389 OA
HETATM   25  H   UNL     1      30.999  53.788  41.411  1.00  0.00     0.210 HD
ENDBRANCH   2  24
BRANCH   7  26
HETATM   26  O   UNL     1      33.240  47.044  41.767  1.00  0.00    -0.343 OA
HETATM   27  H   UNL     1      32.539  46.602  41.267  1.00  0.00     0.219 HD
ENDBRANCH   7  26
TORSDOF 6
ENDMDL
MODEL 2
REMARK VINA RESULT:      -6.8      3.378      5.384
REMARK  6 active torsions:
REMARK  status: ('A' for Active; 'I' for Inactive)
REMARK    1  A    between atoms: C_2  and  O_3 
REMARK    2  A    between atoms: O_3  and  C_4 
REMARK    3  A    between atoms: C_4  and  C_5 
REMARK    4  A    between atoms: C_6  and  O_7 
REMARK    5  A    between atoms: C_12  and  O_13 
REMARK    6  A    between atoms: C_17  and  C_18 
ROOT
HETATM    1  C   UNL     1      27.435  49.511  38.961  1.00  0.00     0.133 C 
HETATM    2  C   UNL     1      25.981  49.018  39.311  1.00  0.00     0.073 C 
HETATM    3  C   UNL     1      25.380  48.256  38.108  1.00  0.00     0.047 C 
HETATM    4  C   UNL     1      25.932  48.112  40.571  1.00  0.00     0.097 C 
HETATM    5  C   UNL     1      26.964  47.064  40.433  1.00  0.00     0.042 A 
HETATM    6  C   UNL     1      28.178  47.221  39.805  1.00  0.00     0.030 A 
HETATM    7  C   UNL     1      28.752  45.946  39.889  1.00  0.00     0.190 A 
HETATM    8  N   UNL     1      27.979  45.053  40.496  1.00  0.00    -0.149 NA
HETATM    9  N   UNL     1      26.886  45.763  40.835  1.00  0.00    -0.279 N 
HETATM   10  H   UNL     1      26.133  45.286  41.319  1.00  0.00     0.189 HD
HETATM   11  C   UNL     1      28.619  48.512  39.195  1.00  0.00     0.074 C 
ENDROOT
BRANCH  11  12
HETATM   12  C   UNL     1      29.789  48.989  40.050  1.00  0.00    -0.048 A 
HETATM   13  C   UNL     1      30.859  49.659  39.433  1.00  0.00     0.009 A 
HETATM   14  C   UNL     1      31.951  50.108  40.182  1.00  0.00     0.024 A 
HETATM   15  C   UNL     1      31.988  49.896  41.558  1.00  0.00     0.034 A 
HETATM   16 CL   UNL     1      33.330  50.453  42.477  1.00  0.00    -0.084 Cl
HETATM   17  C   UNL     1      30.937  49.245  42.193  1.00  0.00     0.024 A 
HETATM   18  C   UNL     1      29.843  48.805  41.446  1.00  0.00     0.009 A 
ENDBRANCH  11  12
BRANCH   1  19
HETATM   19  C   UNL     1      27.716  50.916  39.446  1.00  0.00     0.267 C 
HETATM   20  O   UNL     1      28.123  51.794  38.690  1.00  0.00    -0.265 OA
BRANCH  19  21
HETATM   21  O   UNL     1      27.449  51.092  40.765  1.00  0.00    -0.321 OA
BRANCH  21  22
HETATM   22  C   UNL     1      27.776  52.390  41.285  1.00  0.00     0.174 C 
HETATM   23  C   UNL     1      29.209  52.442  41.786  1.00  0.00     0.034 C 
ENDBRANCH  21  22
ENDBRANCH  19  21
ENDBRANCH   1  19
BRANCH   2  24
HETATM   24  O   UNL     1      25.092  50.122  39.542  1.00  0.00    -0.389 OA
HETATM   25  H   UNL     1      24.441  50.164  38.818  1.00  0.00     0.210 HD
ENDBRANCH   2  24
BRANCH   7  26
HETATM   26  O   UNL     1      29.941  45.517  39.460  1.00  0.00    -0.343 OA
HETATM   27  H   UNL     1      30.507  46.277  39.263  1.00  0.00     0.219 HD
ENDBRANCH   7  26
TORSDOF 6
ENDMDL
MODEL 3
REMARK VINA RESULT:      -6.7      3.941      6.492
REMARK  6 active torsions:
REMARK  status: ('A' for Active; 'I' for Inactive)
REMARK    1  A    between atoms: C_2  and  O_3 
REMARK    2  A    between atoms: O_3  and  C_4 
REMARK    3  A    between atoms: C_4  and  C_5 
REMARK    4  A    between atoms: C_6  and  O_7 
REMARK    5  A    between atoms: C_12  and  O_13 
REMARK    6  A    between atoms: C_17  and  C_18 
ROOT
HETATM    1  C   UNL     1      28.312  47.635  40.834  1.00  0.00     0.133 C 
HETATM    2  C   UNL     1      28.221  46.367  39.903  1.00  0.00     0.073 C 
HETATM    3  C   UNL     1      27.159  45.388  40.452  1.00  0.00     0.047 C 
HETATM    4  C   UNL     1      27.886  46.718  38.428  1.00  0.00     0.097 C 
HETATM    5  C   UNL     1      26.719  47.624  38.417  1.00  0.00     0.042 A 
HETATM    6  C   UNL     1      26.435  48.566  39.379  1.00  0.00     0.030 A 
HETATM    7  C   UNL     1      25.216  49.108  38.949  1.00  0.00     0.190 A 
HETATM    8  N   UNL     1      24.755  48.560  37.831  1.00  0.00    -0.149 NA
HETATM    9  N   UNL     1      25.700  47.656  37.511  1.00  0.00    -0.279 N 
HETATM   10  H   UNL     1      25.567  47.094  36.676  1.00  0.00     0.189 HD
HETATM   11  C   UNL     1      27.308  48.808  40.567  1.00  0.00     0.074 C 
ENDROOT
BRANCH  11  12
HETATM   12  C   UNL     1      27.889  50.205  40.368  1.00  0.00    -0.048 A 
HETATM   13  C   UNL     1      27.779  51.146  41.404  1.00  0.00     0.009 A 
HETATM   14  C   UNL     1      28.295  52.437  41.260  1.00  0.00     0.024 A 
HETATM   15  C   UNL     1      28.932  52.805  40.077  1.00  0.00     0.034 A 
HETATM   16 CL   UNL     1      29.571  54.391  39.902  1.00  0.00    -0.084 Cl
HETATM   17  C   UNL     1      29.065  51.888  39.040  1.00  0.00     0.024 A 
HETATM   18  C   UNL     1      28.556  50.596  39.189  1.00  0.00     0.009 A 
ENDBRANCH  11  12
BRANCH   1  19
HETATM   19  C   UNL     1      29.734  48.090  41.077  1.00  0.00     0.267 C 
HETATM   20  O   UNL     1      30.579  48.079  40.186  1.00  0.00    -0.265 OA
BRANCH  19  21
HETATM   21  O   UNL     1      29.949  48.521  42.345  1.00  0.00    -0.321 OA
BRANCH  21  22
HETATM   22  C   UNL     1      31.271  49.020  42.602  1.00  0.00     0.174 C 
HETATM   23  C   UNL     1      31.324  50.534  42.491  1.00  0.00     0.034 C 
ENDBRANCH  21  22
ENDBRANCH  19  21
ENDBRANCH   1  19
BRANCH   2  24
HETATM   24  O   UNL     1      29.452  45.628  39.900  1.00  0.00    -0.389 OA
HETATM   25  H   UNL     1      29.258  44.687  39.739  1.00  0.00     0.210 HD
ENDBRANCH   2  24
BRANCH   7  26
HETATM   26  O   UNL     1      24.478  50.080  39.489  1.00  0.00    -0.343 OA
HETATM   27  H   UNL     1      25.031  50.619  40.073  1.00  0.00     0.219 HD
ENDBRANCH   7  26
TORSDOF 6
ENDMDL
MODEL 4
REMARK VINA RESULT:      -6.5     11.759     13.331
REMARK  6 active torsions:
REMARK  status: ('A' for Active; 'I' for Inactive)
REMARK    1  A    between atoms: C_2  and  O_3 
REMARK    2  A    between atoms: O_3  and  C_4 
REMARK    3  A    between atoms: C_4  and  C_5 
REMARK    4  A    between atoms: C_6  and  O_7 
REMARK    5  A    between atoms: C_12  and  O_13 
REMARK    6  A    between atoms: C_17  and  C_18 
ROOT
HETATM    1  C   UNL     1      24.683  44.385  50.057  1.00  0.00     0.133 C 
HETATM    2  C   UNL     1      23.308  43.787  49.575  1.00  0.00     0.073 C 
HETATM    3  C   UNL     1      23.028  44.219  48.118  1.00  0.00     0.047 C 
HETATM    4  C   UNL     1      23.250  42.238  49.674  1.00  0.00     0.097 C 
HETATM    5  C   UNL     1      24.464  41.684  49.040  1.00  0.00     0.042 A 
HETATM    6  C   UNL     1      25.705  42.279  49.042  1.00  0.00     0.030 A 
HETATM    7  C   UNL     1      26.483  41.405  48.271  1.00  0.00     0.190 A 
HETATM    8  N   UNL     1      25.807  40.360  47.807  1.00  0.00    -0.149 NA
HETATM    9  N   UNL     1      24.569  40.543  48.300  1.00  0.00    -0.279 N 
HETATM   10  H   UNL     1      23.854  39.858  48.074  1.00  0.00     0.189 HD
HETATM   11  C   UNL     1      25.984  43.578  49.725  1.00  0.00     0.074 C 
ENDROOT
BRANCH  11  12
HETATM   12  C   UNL     1      26.920  43.237  50.882  1.00  0.00    -0.048 A 
HETATM   13  C   UNL     1      27.864  44.187  51.302  1.00  0.00     0.009 A 
HETATM   14  C   UNL     1      28.741  43.911  52.356  1.00  0.00     0.024 A 
HETATM   15  C   UNL     1      28.683  42.681  53.006  1.00  0.00     0.034 A 
HETATM   16 CL   UNL     1      29.759  42.345  54.305  1.00  0.00    -0.084 Cl
HETATM   17  C   UNL     1      27.749  41.727  52.617  1.00  0.00     0.024 A 
HETATM   18  C   UNL     1      26.869  42.008  51.570  1.00  0.00     0.009 A 
ENDBRANCH  11  12
BRANCH   1  19
HETATM   19  C   UNL     1      24.635  44.913  51.474  1.00  0.00     0.267 C 
HETATM   20  O   UNL     1      24.273  44.212  52.414  1.00  0.00    -0.265 OA
BRANCH  19  21
HETATM   21  O   UNL     1      25.051  46.200  51.580  1.00  0.00    -0.321 OA
BRANCH  21  22
HETATM   22  C   UNL     1      24.813  47.015  50.422  1.00  0.00     0.174 C 
HETATM   23  C   UNL     1      26.052  47.802  50.032  1.00  0.00     0.034 C 
ENDBRANCH  21  22
ENDBRANCH  19  21
ENDBRANCH   1  19
BRANCH   2  24
HETATM   24  O   UNL     1      22.211  44.307  50.343  1.00  0.00    -0.389 OA
HETATM   25  H   UNL     1      22.255  43.944  51.246  1.00  0.00     0.210 HD
ENDBRANCH   2  24
BRANCH   7  26
HETATM   26  O   UNL     1      27.778  41.472  47.954  1.00  0.00    -0.343 OA
HETATM   27  H   UNL     1      28.304  41.062  48.656  1.00  0.00     0.219 HD
ENDBRANCH   7  26
TORSDOF 6
ENDMDL
MODEL 5
REMARK VINA RESULT:      -6.5     12.204     13.695
REMARK  6 active torsions:
REMARK  status: ('A' for Active; 'I' for Inactive)
REMARK    1  A    between atoms: C_2  and  O_3 
REMARK    2  A    between atoms: O_3  and  C_4 
REMARK    3  A    between atoms: C_4  and  C_5 
REMARK    4  A    between atoms: C_6  and  O_7 
REMARK    5  A    between atoms: C_12  and  O_13 
REMARK    6  A    between atoms: C_17  and  C_18 
ROOT
HETATM    1  C   UNL     1      28.058  42.664  51.309  1.00  0.00     0.133 C 
HETATM    2  C   UNL     1      28.603  42.057  52.656  1.00  0.00     0.073 C 
HETATM    3  C   UNL     1      29.985  42.666  52.986  1.00  0.00     0.047 C 
HETATM    4  C   UNL     1      27.643  42.278  53.857  1.00  0.00     0.097 C 
HETATM    5  C   UNL     1      27.256  43.703  53.889  1.00  0.00     0.042 A 
HETATM    6  C   UNL     1      27.096  44.509  52.785  1.00  0.00     0.030 A 
HETATM    7  C   UNL     1      26.794  45.759  53.341  1.00  0.00     0.190 A 
HETATM    8  N   UNL     1      26.776  45.762  54.669  1.00  0.00    -0.149 NA
HETATM    9  N   UNL     1      27.051  44.484  54.989  1.00  0.00    -0.279 N 
HETATM   10  H   UNL     1      27.097  44.232  55.971  1.00  0.00     0.189 HD
HETATM   11  C   UNL     1      27.275  44.019  51.385  1.00  0.00     0.074 C 
ENDROOT
BRANCH  11  12
HETATM   12  C   UNL     1      25.886  44.071  50.755  1.00  0.00    -0.048 A 
HETATM   13  C   UNL     1      25.698  44.808  49.574  1.00  0.00     0.009 A 
HETATM   14  C   UNL     1      24.440  44.883  48.968  1.00  0.00     0.024 A 
HETATM   15  C   UNL     1      23.353  44.219  49.532  1.00  0.00     0.034 A 
HETATM   16 CL   UNL     1      21.809  44.308  48.783  1.00  0.00    -0.084 Cl
HETATM   17  C   UNL     1      23.517  43.473  50.694  1.00  0.00     0.024 A 
HETATM   18  C   UNL     1      24.775  43.392  51.294  1.00  0.00     0.009 A 
ENDBRANCH  11  12
BRANCH   1  19
HETATM   19  C   UNL     1      27.407  41.631  50.416  1.00  0.00     0.267 C 
HETATM   20  O   UNL     1      26.720  40.721  50.871  1.00  0.00    -0.265 OA
BRANCH  19  21
HETATM   21  O   UNL     1      27.643  41.839  49.096  1.00  0.00    -0.321 OA
BRANCH  21  22
HETATM   22  C   UNL     1      26.945  40.954  48.206  1.00  0.00     0.174 C 
HETATM   23  C   UNL     1      25.567  41.490  47.858  1.00  0.00     0.034 C 
ENDBRANCH  21  22
ENDBRANCH  19  21
ENDBRANCH   1  19
BRANCH   2  24
HETATM   24  O   UNL     1      28.830  40.644  52.542  1.00  0.00    -0.389 OA
HETATM   25  H   UNL     1      28.210  40.274  51.887  1.00  0.00     0.210 HD
ENDBRANCH   2  24
BRANCH   7  26
HETATM   26  O   UNL     1      26.521  46.917  52.735  1.00  0.00    -0.343 OA
HETATM   27  H   UNL     1      27.157  47.066  52.020  1.00  0.00     0.219 HD
ENDBRANCH   7  26
TORSDOF 6
ENDMDL
MODEL 6
REMARK VINA RESULT:      -6.4     13.483     15.093
REMARK  6 active torsions:
REMARK  status: ('A' for Active; 'I' for Inactive)
REMARK    1  A    between atoms: C_2  and  O_3 
REMARK    2  A    between atoms: O_3  and  C_4 
REMARK    3  A    between atoms: C_4  and  C_5 
REMARK    4  A    between atoms: C_6  and  O_7 
REMARK    5  A    between atoms: C_12  and  O_13 
REMARK    6  A    between atoms: C_17  and  C_18 
ROOT
HETATM    1  C   UNL     1      18.356  50.409  49.455  1.00  0.00     0.133 C 
HETATM    2  C   UNL     1      19.324  49.457  50.253  1.00  0.00     0.073 C 
HETATM    3  C   UNL     1      18.599  48.892  51.495  1.00  0.00     0.047 C 
HETATM    4  C   UNL     1      19.868  48.283  49.395  1.00  0.00     0.097 C 
HETATM    5  C   UNL     1      18.728  47.636  48.713  1.00  0.00     0.042 A 
HETATM    6  C   UNL     1      17.596  48.282  48.270  1.00  0.00     0.030 A 
HETATM    7  C   UNL     1      16.810  47.240  47.761  1.00  0.00     0.190 A 
HETATM    8  N   UNL     1      17.372  46.042  47.878  1.00  0.00    -0.149 NA
HETATM    9  N   UNL     1      18.559  46.308  48.455  1.00  0.00    -0.279 N 
HETATM   10  H   UNL     1      19.182  45.532  48.654  1.00  0.00     0.189 HD
HETATM   11  C   UNL     1      17.391  49.755  48.408  1.00  0.00     0.074 C 
ENDROOT
BRANCH  11  12
HETATM   12  C   UNL     1      17.413  50.305  46.985  1.00  0.00    -0.048 A 
HETATM   13  C   UNL     1      16.348  51.109  46.545  1.00  0.00     0.009 A 
HETATM   14  C   UNL     1      16.330  51.628  45.247  1.00  0.00     0.024 A 
HETATM   15  C   UNL     1      17.377  51.354  44.371  1.00  0.00     0.034 A 
HETATM   16 CL   UNL     1      17.355  51.997  42.778  1.00  0.00    -0.084 Cl
HETATM   17  C   UNL     1      18.449  50.570  44.786  1.00  0.00     0.024 A 
HETATM   18  C   UNL     1      18.470  50.059  46.085  1.00  0.00     0.009 A 
ENDBRANCH  11  12
BRANCH   1  19
HETATM   19  C   UNL     1      19.038  51.665  48.957  1.00  0.00     0.267 C 
HETATM   20  O   UNL     1      20.185  51.648  48.520  1.00  0.00    -0.265 OA
BRANCH  19  21
HETATM   21  O   UNL     1      18.249  52.766  49.024  1.00  0.00    -0.321 OA
BRANCH  21  22
HETATM   22  C   UNL     1      17.226  52.721  50.031  1.00  0.00     0.174 C 
HETATM   23  C   UNL     1      15.899  53.232  49.498  1.00  0.00     0.034 C 
ENDBRANCH  21  22
ENDBRANCH  19  21
ENDBRANCH   1  19
BRANCH   2  24
HETATM   24  O   UNL     1      20.457  50.173  50.769  1.00  0.00    -0.389 OA
HETATM   25  H   UNL     1      20.624  49.887  51.686  1.00  0.00     0.210 HD
ENDBRANCH   2  24
BRANCH   7  26
HETATM   26  O   UNL     1      15.607  47.284  47.183  1.00  0.00    -0.343 OA
HETATM   27  H   UNL     1      14.922  47.139  47.851  1.00  0.00     0.219 HD
ENDBRANCH   7  26
TORSDOF 6
ENDMDL
MODEL 7
REMARK VINA RESULT:      -6.3     14.395     16.076
REMARK  6 active torsions:
REMARK  status: ('A' for Active; 'I' for Inactive)
REMARK    1  A    between atoms: C_2  and  O_3 
REMARK    2  A    between atoms: O_3  and  C_4 
REMARK    3  A    between atoms: C_4  and  C_5 
REMARK    4  A    between atoms: C_6  and  O_7 
REMARK    5  A    between atoms: C_12  and  O_13 
REMARK    6  A    between atoms: C_17  and  C_18 
ROOT
HETATM    1  C   UNL     1      17.374  48.531  47.597  1.00  0.00     0.133 C 
HETATM    2  C   UNL     1      17.978  47.497  48.620  1.00  0.00     0.073 C 
HETATM    3  C   UNL     1      19.308  46.931  48.072  1.00  0.00     0.047 C 
HETATM    4  C   UNL     1      18.218  48.104  50.029  1.00  0.00     0.097 C 
HETATM    5  C   UNL     1      18.953  49.376  49.870  1.00  0.00     0.042 A 
HETATM    6  C   UNL     1      18.817  50.247  48.813  1.00  0.00     0.030 A 
HETATM    7  C   UNL     1      19.756  51.247  49.098  1.00  0.00     0.190 A 
HETATM    8  N   UNL     1      20.438  51.034  50.217  1.00  0.00    -0.149 NA
HETATM    9  N   UNL     1      19.921  49.883  50.686  1.00  0.00    -0.279 N 
HETATM   10  H   UNL     1      20.293  49.505  51.551  1.00  0.00     0.189 HD
HETATM   11  C   UNL     1      17.867  50.015  47.684  1.00  0.00     0.074 C 
ENDROOT
BRANCH  11  12
HETATM   12  C   UNL     1      16.809  51.107  47.811  1.00  0.00    -0.048 A 
HETATM   13  C   UNL     1      16.322  51.444  49.084  1.00  0.00     0.009 A 
HETATM   14  C   UNL     1      15.350  52.436  49.242  1.00  0.00     0.024 A 
HETATM   15  C   UNL     1      14.853  53.108  48.128  1.00  0.00     0.034 A 
HETATM   16 CL   UNL     1      13.661  54.331  48.324  1.00  0.00    -0.084 Cl
HETATM   17  C   UNL     1      15.327  52.801  46.857  1.00  0.00     0.024 A 
HETATM   18  C   UNL     1      16.304  51.816  46.702  1.00  0.00     0.009 A 
ENDBRANCH  11  12
BRANCH   1  19
HETATM   19  C   UNL     1      15.876  48.393  47.431  1.00  0.00     0.267 C 
HETATM   20  O   UNL     1      15.124  48.292  48.397  1.00  0.00    -0.265 OA
BRANCH  19  21
HETATM   21  O   UNL     1      15.475  48.419  46.135  1.00  0.00    -0.321 OA
BRANCH  21  22
HETATM   22  C   UNL     1      14.059  48.548  45.939  1.00  0.00     0.174 C 
HETATM   23  C   UNL     1      13.727  49.736  45.052  1.00  0.00     0.034 C 
ENDBRANCH  21  22
ENDBRANCH  19  21
ENDBRANCH   1  19
BRANCH   2  24
HETATM   24  O   UNL     1      17.121  46.357  48.784  1.00  0.00    -0.389 OA
HETATM   25  H   UNL     1      16.521  46.515  49.536  1.00  0.00     0.210 HD
ENDBRANCH   2  24
BRANCH   7  26
HETATM   26  O   UNL     1      20.047  52.360  48.420  1.00  0.00    -0.343 OA
HETATM   27  H   UNL     1      19.391  52.493  47.721  1.00  0.00     0.219 HD
ENDBRANCH   7  26
TORSDOF 6
ENDMDL
MODEL 8
REMARK VINA RESULT:      -6.3     24.802     26.090
REMARK  6 active torsions:
REMARK  status: ('A' for Active; 'I' for Inactive)
REMARK    1  A    between atoms: C_2  and  O_3 
REMARK    2  A    between atoms: O_3  and  C_4 
REMARK    3  A    between atoms: C_4  and  C_5 
REMARK    4  A    between atoms: C_6  and  O_7 
REMARK    5  A    between atoms: C_12  and  O_13 
REMARK    6  A    between atoms: C_17  and  C_18 
ROOT
HETATM    1  C   UNL     1      37.239  45.858  66.152  1.00  0.00     0.133 C 
HETATM    2  C   UNL     1      37.043  47.401  65.907  1.00  0.00     0.073 C 
HETATM    3  C   UNL     1      37.425  48.188  67.181  1.00  0.00     0.047 C 
HETATM    4  C   UNL     1      37.866  47.936  64.704  1.00  0.00     0.097 C 
HETATM    5  C   UNL     1      39.259  47.467  64.846  1.00  0.00     0.042 A 
HETATM    6  C   UNL     1      39.642  46.266  65.400  1.00  0.00     0.030 A 
HETATM    7  C   UNL     1      41.041  46.324  65.358  1.00  0.00     0.190 A 
HETATM    8  N   UNL     1      41.513  47.454  64.844  1.00  0.00    -0.149 NA
HETATM    9  N   UNL     1      40.400  48.141  64.522  1.00  0.00    -0.279 N 
HETATM   10  H   UNL     1      40.505  49.060  64.107  1.00  0.00     0.189 HD
HETATM   11  C   UNL     1      38.666  45.258  65.913  1.00  0.00     0.074 C 
ENDROOT
BRANCH  11  12
HETATM   12  C   UNL     1      38.783  44.062  64.972  1.00  0.00    -0.048 A 
HETATM   13  C   UNL     1      38.823  42.767  65.513  1.00  0.00     0.009 A 
HETATM   14  C   UNL     1      38.934  41.646  64.685  1.00  0.00     0.024 A 
HETATM   15  C   UNL     1      39.003  41.804  63.303  1.00  0.00     0.034 A 
HETATM   16 CL   UNL     1      39.134  40.425  62.286  1.00  0.00    -0.084 Cl
HETATM   17  C   UNL     1      38.953  43.076  62.741  1.00  0.00     0.024 A 
HETATM   18  C   UNL     1      38.835  44.193  63.569  1.00  0.00     0.009 A 
ENDBRANCH  11  12
BRANCH   1  19
HETATM   19  C   UNL     1      36.119  45.020  65.574  1.00  0.00     0.267 C 
HETATM   20  O   UNL     1      35.713  45.183  64.427  1.00  0.00    -0.265 OA
BRANCH  19  21
HETATM   21  O   UNL     1      35.651  44.083  66.437  1.00  0.00    -0.321 OA
BRANCH  21  22
HETATM   22  C   UNL     1      34.628  43.225  65.907  1.00  0.00     0.174 C 
HETATM   23  C   UNL     1      35.207  41.911  65.412  1.00  0.00     0.034 C 
ENDBRANCH  21  22
ENDBRANCH  19  21
ENDBRANCH   1  19
BRANCH   2  24
HETATM   24  O   UNL     1      35.665  47.723  65.661  1.00  0.00    -0.389 OA
HETATM   25  H   UNL     1      35.588  48.146  64.786  1.00  0.00     0.210 HD
ENDBRANCH   2  24
BRANCH   7  26
HETATM   26  O   UNL     1      41.943  45.419  65.747  1.00  0.00    -0.343 OA
HETATM   27  H   UNL     1      42.130  45.535  66.689  1.00  0.00     0.219 HD
ENDBRANCH   7  26
TORSDOF 6
ENDMDL
MODEL 9
REMARK VINA RESULT:      -6.1     25.034     26.654
REMARK  6 active torsions:
REMARK  status: ('A' for Active; 'I' for Inactive)
REMARK    1  A    between atoms: C_2  and  O_3 
REMARK    2  A    between atoms: O_3  and  C_4 
REMARK    3  A    between atoms: C_4  and  C_5 
REMARK    4  A    between atoms: C_6  and  O_7 
REMARK    5  A    between atoms: C_12  and  O_13 
REMARK    6  A    between atoms: C_17  and  C_18 
ROOT
HETATM    1  C   UNL     1      40.439  46.276  64.342  1.00  0.00     0.133 C 
HETATM    2  C   UNL     1      40.405  47.384  65.461  1.00  0.00     0.073 C 
HETATM    3  C   UNL     1      39.944  48.729  64.855  1.00  0.00     0.047 C 
HETATM    4  C   UNL     1      39.483  47.015  66.655  1.00  0.00     0.097 C 
HETATM    5  C   UNL     1      38.176  46.583  66.120  1.00  0.00     0.042 A 
HETATM    6  C   UNL     1      37.984  45.913  64.933  1.00  0.00     0.030 A 
HETATM    7  C   UNL     1      36.591  45.791  64.853  1.00  0.00     0.190 A 
HETATM    8  N   UNL     1      35.949  46.342  65.877  1.00  0.00    -0.149 NA
HETATM    9  N   UNL     1      36.942  46.813  66.654  1.00  0.00    -0.279 N 
HETATM   10  H   UNL     1      36.695  47.291  67.514  1.00  0.00     0.189 HD
HETATM   11  C   UNL     1      39.108  45.510  64.034  1.00  0.00     0.074 C 
ENDROOT
BRANCH  11  12
HETATM   12  C   UNL     1      39.141  43.985  64.082  1.00  0.00    -0.048 A 
HETATM   13  C   UNL     1      39.327  43.267  62.889  1.00  0.00     0.009 A 
HETATM   14  C   UNL     1      39.360  41.870  62.890  1.00  0.00     0.024 A 
HETATM   15  C   UNL     1      39.210  41.169  64.085  1.00  0.00     0.034 A 
HETATM   16 CL   UNL     1      39.255  39.451  64.085  1.00  0.00    -0.084 Cl
HETATM   17  C   UNL     1      39.036  41.857  65.281  1.00  0.00     0.024 A 
HETATM   18  C   UNL     1      39.012  43.253  65.279  1.00  0.00     0.009 A 
ENDBRANCH  11  12
BRANCH   1  19
HETATM   19  C   UNL     1      41.654  45.378  64.436  1.00  0.00     0.267 C 
HETATM   20  O   UNL     1      42.367  45.149  63.463  1.00  0.00    -0.265 OA
BRANCH  19  21
HETATM   21  O   UNL     1      41.867  44.895  65.685  1.00  0.00    -0.321 OA
BRANCH  21  22
HETATM   22  C   UNL     1      43.018  44.046  65.821  1.00  0.00     0.174 C 
HETATM   23  C   UNL     1      42.623  42.580  65.879  1.00  0.00     0.034 C 
ENDBRANCH  21  22
ENDBRANCH  19  21
ENDBRANCH   1  19
BRANCH   2  24
HETATM   24  O   UNL     1      41.715  47.636  65.992  1.00  0.00    -0.389 OA
HETATM   25  H   UNL     1      41.657  48.343  66.661  1.00  0.00     0.210 HD
ENDBRANCH   2  24
BRANCH   7  26
HETATM   26  O   UNL     1      35.839  45.208  63.917  1.00  0.00    -0.343 OA
HETATM   27  H   UNL     1      35.624  45.852  63.228  1.00  0.00     0.219 HD
ENDBRANCH   7  26
TORSDOF 6
ENDMDL
MODEL 10
REMARK VINA RESULT:      -6.1     25.244     26.828
REMARK  6 active torsions:
REMARK  status: ('A' for Active; 'I' for Inactive)
REMARK    1  A    between atoms: C_2  and  O_3 
REMARK    2  A    between atoms: O_3  and  C_4 
REMARK    3  A    between atoms: C_4  and  C_5 
REMARK    4  A    between atoms: C_6  and  O_7 
REMARK    5  A    between atoms: C_12  and  O_13 
REMARK    6  A    between atoms: C_17  and  C_18 
ROOT
HETATM    1  C   UNL     1      39.410  43.408  64.957  1.00  0.00     0.133 C 
HETATM    2  C   UNL     1      38.868  42.257  64.028  1.00  0.00     0.073 C 
HETATM    3  C   UNL     1      38.932  40.905  64.775  1.00  0.00     0.047 C 
HETATM    4  C   UNL     1      37.416  42.504  63.535  1.00  0.00     0.097 C 
HETATM    5  C   UNL     1      36.580  42.854  64.702  1.00  0.00     0.042 A 
HETATM    6  C   UNL     1      37.009  43.554  65.807  1.00  0.00     0.030 A 
HETATM    7  C   UNL     1      35.880  43.569  66.636  1.00  0.00     0.190 A 
HETATM    8  N   UNL     1      34.835  42.930  66.125  1.00  0.00    -0.149 NA
HETATM    9  N   UNL     1      35.281  42.507  64.927  1.00  0.00    -0.279 N 
HETATM   10  H   UNL     1      34.647  41.977  64.337  1.00  0.00     0.189 HD
HETATM   11  C   UNL     1      38.401  44.079  65.949  1.00  0.00     0.074 C 
ENDROOT
BRANCH  11  12
HETATM   12  C   UNL     1      38.270  45.599  65.906  1.00  0.00    -0.048 A 
HETATM   13  C   UNL     1      37.504  46.191  64.889  1.00  0.00     0.009 A 
HETATM   14  C   UNL     1      37.362  47.580  64.813  1.00  0.00     0.024 A 
HETATM   15  C   UNL     1      37.982  48.396  65.756  1.00  0.00     0.034 A 
HETATM   16 CL   UNL     1      37.803  50.103  65.665  1.00  0.00    -0.084 Cl
HETATM   17  C   UNL     1      38.736  47.834  66.780  1.00  0.00     0.024 A 
HETATM   18  C   UNL     1      38.870  46.446  66.859  1.00  0.00     0.009 A 
ENDBRANCH  11  12
BRANCH   1  19
HETATM   19  C   UNL     1      40.293  44.393  64.223  1.00  0.00     0.267 C 
HETATM   20  O   UNL     1      40.001  44.821  63.110  1.00  0.00    -0.265 OA
BRANCH  19  21
HETATM   21  O   UNL     1      41.394  44.755  64.929  1.00  0.00    -0.321 OA
BRANCH  21  22
HETATM   22  C   UNL     1      42.173  45.809  64.343  1.00  0.00     0.174 C 
HETATM   23  C   UNL     1      42.027  47.106  65.121  1.00  0.00     0.034 C 
ENDBRANCH  21  22
ENDBRANCH  19  21
ENDBRANCH   1  19
BRANCH   2  24
HETATM   24  O   UNL     1      39.693  42.087  62.865  1.00  0.00    -0.389 OA
HETATM   25  H   UNL     1      39.733  41.140  62.639  1.00  0.00     0.210 HD
ENDBRANCH   2  24
BRANCH   7  26
HETATM   26  O   UNL     1      35.712  44.129  67.837  1.00  0.00    -0.343 OA
HETATM   27  H   UNL     1      36.439  43.867  68.420  1.00  0.00     0.219 HD
ENDBRANCH   7  26
TORSDOF 6
ENDMDL
