MODEL 1
REMARK VINA RESULT:     -10.2      0.000      0.000
REMARK  6 active torsions:
REMARK  status: ('A' for Active; 'I' for Inactive)
REMARK    1  A    between atoms: C_4  and  N_5 
REMARK    2  A    between atoms: N_8  and  C_10 
REMARK    3  A    between atoms: C_10  and  C_11 
REMARK    4  A    between atoms: C_14  and  C_15 
REMARK    5  A    between atoms: C_15  and  N_16 
REMARK       I    between atoms: N_16  and  C_17 
REMARK    6  A    between atoms: C_17  and  C_18 
ROOT
HETATM    1  C   UNL     1      24.782  45.785  49.571  1.00  0.00     0.041 C 
HETATM    2  C   UNL     1      24.231  44.558  50.349  1.00  0.00    -0.004 C 
HETATM    3  C   UNL     1      24.535  44.692  51.860  1.00  0.00     0.040 C 
HETATM    4  C   UNL     1      26.059  44.782  52.116  1.00  0.00     0.206 C 
HETATM    5  N   UNL     1      26.713  44.738  50.740  1.00  0.00    -0.065 N 
HETATM    6  H   UNL     1      27.742  44.858  50.897  1.00  0.00     0.280 HD
HETATM    7  C   UNL     1      26.311  45.853  49.811  1.00  0.00     0.242 C 
HETATM    8  C   UNL     1      24.966  43.291  49.838  1.00  0.00     0.032 C 
HETATM    9  C   UNL     1      26.474  43.396  50.088  1.00  0.00     0.236 C 
ENDROOT
BRANCH   1  10
HETATM   10  C   UNL     1      24.178  47.171  49.889  1.00  0.00     0.241 C 
BRANCH  10  11
HETATM   11  N   UNL     1      23.452  47.823  48.733  1.00  0.00    -0.068 N 
HETATM   12  C   UNL     1      21.991  47.351  48.559  1.00  0.00     0.254 C 
HETATM   13  C   UNL     1      21.303  48.103  47.400  1.00  0.00     0.150 C 
HETATM   14  N   UNL     1      21.333  49.553  47.660  1.00  0.00    -0.378 N 
HETATM   15  C   UNL     1      22.696  50.093  47.787  1.00  0.00     0.150 C 
HETATM   16  C   UNL     1      23.471  49.374  48.909  1.00  0.00     0.254 C 
HETATM   17  H   UNL     1      23.938  47.646  47.843  1.00  0.00     0.280 HD
BRANCH  14  18
HETATM   18  C   UNL     1      20.283  50.080  48.422  1.00  0.00     0.030 A 
HETATM   19  C   UNL     1      20.250  51.405  48.889  1.00  0.00     0.029 A 
HETATM   20  C   UNL     1      19.190  51.888  49.668  1.00  0.00     0.002 A 
HETATM   21  C   UNL     1      18.118  51.062  49.982  1.00  0.00     0.000 A 
HETATM   22  C   UNL     1      18.098  49.762  49.500  1.00  0.00     0.002 A 
HETATM   23  C   UNL     1      19.162  49.286  48.726  1.00  0.00     0.029 A 
ENDBRANCH  14  18
ENDBRANCH  10  11
ENDBRANCH   1  10
BRANCH   4  24
HETATM   24  C   UNL     1      26.430  46.037  52.954  1.00  0.00     0.156 C 
BRANCH  24  25
HETATM   25  N   UNL     1      27.615  45.985  53.801  1.00  0.00    -0.355 N 
HETATM   26  C   UNL     1      27.655  46.482  55.089  1.00  0.00     0.251 C 
HETATM   27  O   UNL     1      26.843  47.319  55.476  1.00  0.00    -0.268 OA
HETATM   28  H   UNL     1      28.238  45.208  53.607  1.00  0.00     0.162 HD
BRANCH  26  29
HETATM   29  C   UNL     1      28.653  45.903  56.030  1.00  0.00     0.034 A 
HETATM   30  C   UNL     1      29.507  44.911  55.521  1.00  0.00     0.056 A 
HETATM   31  C   UNL     1      30.498  44.423  56.347  1.00  0.00     0.106 A 
HETATM   32  C   UNL     1      30.653  44.873  57.634  1.00  0.00     0.105 A 
HETATM   33  O   UNL     1      31.422  43.489  56.005  1.00  0.00    -0.323 OA
HETATM   34  O   UNL     1      31.697  44.278  58.266  1.00  0.00    -0.323 OA
HETATM   35  C   UNL     1      29.818  45.826  58.175  1.00  0.00     0.041 A 
HETATM   36  C   UNL     1      32.177  43.389  57.234  1.00  0.00     0.352 A 
HETATM   37  C   UNL     1      28.799  46.344  57.364  1.00  0.00     0.020 A 
ENDBRANCH  26  29
ENDBRANCH  24  25
ENDBRANCH   4  24
TORSDOF 6
ENDMDL
MODEL 2
REMARK VINA RESULT:      -9.7      1.665      2.229
REMARK  6 active torsions:
REMARK  status: ('A' for Active; 'I' for Inactive)
REMARK    1  A    between atoms: C_4  and  N_5 
REMARK    2  A    between atoms: N_8  and  C_10 
REMARK    3  A    between atoms: C_10  and  C_11 
REMARK    4  A    between atoms: C_14  and  C_15 
REMARK    5  A    between atoms: C_15  and  N_16 
REMARK       I    between atoms: N_16  and  C_17 
REMARK    6  A    between atoms: C_17  and  C_18 
ROOT
HETATM    1  C   UNL     1      24.070  44.600  48.793  1.00  0.00     0.041 C 
HETATM    2  C   UNL     1      23.376  43.255  49.147  1.00  0.00    -0.004 C 
HETATM    3  C   UNL     1      23.507  42.958  50.659  1.00  0.00     0.040 C 
HETATM    4  C   UNL     1      24.993  42.861  51.082  1.00  0.00     0.206 C 
HETATM    5  N   UNL     1      25.801  43.135  49.819  1.00  0.00    -0.065 N 
HETATM    6  H   UNL     1      26.808  43.131  50.105  1.00  0.00     0.280 HD
HETATM    7  C   UNL     1      25.562  44.485  49.194  1.00  0.00     0.242 C 
HETATM    8  C   UNL     1      24.107  42.118  48.385  1.00  0.00     0.032 C 
HETATM    9  C   UNL     1      25.579  42.037  48.805  1.00  0.00     0.236 C 
ENDROOT
BRANCH   1  10
HETATM   10  C   UNL     1      23.497  45.893  49.414  1.00  0.00     0.241 C 
BRANCH  10  11
HETATM   11  N   UNL     1      23.021  46.919  48.410  1.00  0.00    -0.068 N 
HETATM   12  C   UNL     1      21.522  46.806  48.055  1.00  0.00     0.254 C 
HETATM   13  C   UNL     1      21.102  47.920  47.074  1.00  0.00     0.150 C 
HETATM   14  N   UNL     1      21.378  49.240  47.670  1.00  0.00    -0.378 N 
HETATM   15  C   UNL     1      22.799  49.447  47.990  1.00  0.00     0.150 C 
HETATM   16  C   UNL     1      23.313  48.354  48.949  1.00  0.00     0.254 C 
HETATM   17  H   UNL     1      23.550  46.848  47.530  1.00  0.00     0.280 HD
BRANCH  14  18
HETATM   18  C   UNL     1      20.376  49.787  48.480  1.00  0.00     0.030 A 
HETATM   19  C   UNL     1      20.377  51.121  48.922  1.00  0.00     0.029 A 
HETATM   20  C   UNL     1      19.366  51.625  49.751  1.00  0.00     0.002 A 
HETATM   21  C   UNL     1      18.308  50.813  50.142  1.00  0.00     0.000 A 
HETATM   22  C   UNL     1      18.254  49.504  49.687  1.00  0.00     0.002 A 
HETATM   23  C   UNL     1      19.270  49.006  48.863  1.00  0.00     0.029 A 
ENDBRANCH  14  18
ENDBRANCH  10  11
ENDBRANCH   1  10
BRANCH   4  24
HETATM   24  C   UNL     1      25.320  43.816  52.263  1.00  0.00     0.156 C 
BRANCH  24  25
HETATM   25  N   UNL     1      26.469  43.513  53.107  1.00  0.00    -0.355 N 
HETATM   26  C   UNL     1      27.766  43.861  52.785  1.00  0.00     0.251 C 
HETATM   27  O   UNL     1      28.092  44.106  51.625  1.00  0.00    -0.268 OA
HETATM   28  H   UNL     1      26.260  43.456  54.099  1.00  0.00     0.162 HD
BRANCH  26  29
HETATM   29  C   UNL     1      28.742  44.027  53.897  1.00  0.00     0.034 A 
HETATM   30  C   UNL     1      28.539  45.112  54.765  1.00  0.00     0.056 A 
HETATM   31  C   UNL     1      29.375  45.236  55.853  1.00  0.00     0.106 A 
HETATM   32  C   UNL     1      30.390  44.342  56.092  1.00  0.00     0.105 A 
HETATM   33  O   UNL     1      29.300  46.204  56.803  1.00  0.00    -0.323 OA
HETATM   34  O   UNL     1      31.081  44.635  57.224  1.00  0.00    -0.323 OA
HETATM   35  C   UNL     1      30.635  43.282  55.247  1.00  0.00     0.041 A 
HETATM   36  C   UNL     1      30.394  45.826  57.668  1.00  0.00     0.352 A 
HETATM   37  C   UNL     1      29.803  43.125  54.130  1.00  0.00     0.020 A 
ENDBRANCH  26  29
ENDBRANCH  24  25
ENDBRANCH   4  24
TORSDOF 6
ENDMDL
MODEL 3
REMARK VINA RESULT:      -9.2      4.306      9.103
REMARK  6 active torsions:
REMARK  status: ('A' for Active; 'I' for Inactive)
REMARK    1  A    between atoms: C_4  and  N_5 
REMARK    2  A    between atoms: N_8  and  C_10 
REMARK    3  A    between atoms: C_10  and  C_11 
REMARK    4  A    between atoms: C_14  and  C_15 
REMARK    5  A    between atoms: C_15  and  N_16 
REMARK       I    between atoms: N_16  and  C_17 
REMARK    6  A    between atoms: C_17  and  C_18 
ROOT
HETATM    1  C   UNL     1      27.897  40.917  49.884  1.00  0.00     0.041 C 
HETATM    2  C   UNL     1      27.773  40.849  48.337  1.00  0.00    -0.004 C 
HETATM    3  C   UNL     1      26.441  41.483  47.871  1.00  0.00     0.040 C 
HETATM    4  C   UNL     1      25.228  40.744  48.486  1.00  0.00     0.206 C 
HETATM    5  N   UNL     1      25.814  39.655  49.376  1.00  0.00    -0.065 N 
HETATM    6  H   UNL     1      25.002  39.187  49.844  1.00  0.00     0.280 HD
HETATM    7  C   UNL     1      26.694  40.154  50.492  1.00  0.00     0.242 C 
HETATM    8  C   UNL     1      27.749  39.355  47.918  1.00  0.00     0.032 C 
HETATM    9  C   UNL     1      26.549  38.633  48.540  1.00  0.00     0.236 C 
ENDROOT
BRANCH   1  10
HETATM   10  C   UNL     1      27.970  42.313  50.542  1.00  0.00     0.241 C 
BRANCH  10  11
HETATM   11  N   UNL     1      27.222  42.434  51.851  1.00  0.00    -0.068 N 
HETATM   12  C   UNL     1      28.126  42.729  53.069  1.00  0.00     0.254 C 
HETATM   13  C   UNL     1      27.285  42.897  54.352  1.00  0.00     0.150 C 
HETATM   14  N   UNL     1      26.314  43.991  54.172  1.00  0.00    -0.378 N 
HETATM   15  C   UNL     1      25.379  43.761  53.060  1.00  0.00     0.150 C 
HETATM   16  C   UNL     1      26.139  43.553  51.734  1.00  0.00     0.254 C 
HETATM   17  H   UNL     1      26.699  41.573  52.060  1.00  0.00     0.280 HD
BRANCH  14  18
HETATM   18  C   UNL     1      26.757  45.284  54.476  1.00  0.00     0.030 A 
HETATM   19  C   UNL     1      28.011  45.561  55.047  1.00  0.00     0.029 A 
HETATM   20  C   UNL     1      28.409  46.868  55.357  1.00  0.00     0.002 A 
HETATM   21  C   UNL     1      27.571  47.941  55.080  1.00  0.00     0.000 A 
HETATM   22  C   UNL     1      26.345  47.706  54.476  1.00  0.00     0.002 A 
HETATM   23  C   UNL     1      25.952  46.397  54.174  1.00  0.00     0.029 A 
ENDBRANCH  14  18
ENDBRANCH  10  11
ENDBRANCH   1  10
BRANCH   4  24
HETATM   24  C   UNL     1      24.273  41.722  49.225  1.00  0.00     0.156 C 
BRANCH  24  25
HETATM   25  N   UNL     1      24.313  43.136  48.873  1.00  0.00    -0.355 N 
HETATM   26  C   UNL     1      23.203  43.957  48.883  1.00  0.00     0.251 C 
HETATM   27  O   UNL     1      22.066  43.495  48.822  1.00  0.00    -0.268 OA
HETATM   28  H   UNL     1      25.202  43.592  49.058  1.00  0.00     0.162 HD
BRANCH  26  29
HETATM   29  C   UNL     1      23.417  45.419  49.070  1.00  0.00     0.034 A 
HETATM   30  C   UNL     1      22.627  46.282  48.293  1.00  0.00     0.056 A 
HETATM   31  C   UNL     1      22.743  47.638  48.511  1.00  0.00     0.106 A 
HETATM   32  C   UNL     1      23.607  48.149  49.447  1.00  0.00     0.105 A 
HETATM   33  O   UNL     1      22.035  48.605  47.872  1.00  0.00    -0.323 OA
HETATM   34  O   UNL     1      23.552  49.505  49.515  1.00  0.00    -0.323 OA
HETATM   35  C   UNL     1      24.416  47.334  50.208  1.00  0.00     0.041 A 
HETATM   36  C   UNL     1      22.561  49.794  48.504  1.00  0.00     0.352 A 
HETATM   37  C   UNL     1      24.325  45.950  50.013  1.00  0.00     0.020 A 
ENDBRANCH  26  29
ENDBRANCH  24  25
ENDBRANCH   4  24
TORSDOF 6
ENDMDL
MODEL 4
REMARK VINA RESULT:      -9.2      3.573     10.944
REMARK  6 active torsions:
REMARK  status: ('A' for Active; 'I' for Inactive)
REMARK    1  A    between atoms: C_4  and  N_5 
REMARK    2  A    between atoms: N_8  and  C_10 
REMARK    3  A    between atoms: C_10  and  C_11 
REMARK    4  A    between atoms: C_14  and  C_15 
REMARK    5  A    between atoms: C_15  and  N_16 
REMARK       I    between atoms: N_16  and  C_17 
REMARK    6  A    between atoms: C_17  and  C_18 
ROOT
HETATM    1  C   UNL     1      24.761  43.013  50.945  1.00  0.00     0.041 C 
HETATM    2  C   UNL     1      25.486  43.010  49.571  1.00  0.00    -0.004 C 
HETATM    3  C   UNL     1      25.785  44.457  49.112  1.00  0.00     0.040 C 
HETATM    4  C   UNL     1      24.479  45.277  48.969  1.00  0.00     0.206 C 
HETATM    5  N   UNL     1      23.353  44.336  49.377  1.00  0.00    -0.065 N 
HETATM    6  H   UNL     1      22.470  44.898  49.341  1.00  0.00     0.280 HD
HETATM    7  C   UNL     1      23.444  43.812  50.787  1.00  0.00     0.242 C 
HETATM    8  C   UNL     1      24.533  42.378  48.522  1.00  0.00     0.032 C 
HETATM    9  C   UNL     1      23.242  43.192  48.396  1.00  0.00     0.236 C 
ENDROOT
BRANCH   1  10
HETATM   10  C   UNL     1      25.527  43.574  52.164  1.00  0.00     0.241 C 
BRANCH  10  11
HETATM   11  N   UNL     1      26.922  43.016  52.344  1.00  0.00    -0.068 N 
HETATM   12  C   UNL     1      28.043  44.073  52.228  1.00  0.00     0.254 C 
HETATM   13  C   UNL     1      29.427  43.439  52.481  1.00  0.00     0.150 C 
HETATM   14  N   UNL     1      29.455  42.823  53.820  1.00  0.00    -0.378 N 
HETATM   15  C   UNL     1      28.447  41.766  53.996  1.00  0.00     0.150 C 
HETATM   16  C   UNL     1      27.028  42.307  53.731  1.00  0.00     0.254 C 
HETATM   17  H   UNL     1      27.120  42.283  51.650  1.00  0.00     0.280 HD
BRANCH  14  18
HETATM   18  C   UNL     1      29.810  43.655  54.889  1.00  0.00     0.030 A 
HETATM   19  C   UNL     1      29.186  44.886  55.156  1.00  0.00     0.029 A 
HETATM   20  C   UNL     1      29.586  45.701  56.224  1.00  0.00     0.002 A 
HETATM   21  C   UNL     1      30.607  45.294  57.073  1.00  0.00     0.000 A 
HETATM   22  C   UNL     1      31.213  44.064  56.865  1.00  0.00     0.002 A 
HETATM   23  C   UNL     1      30.812  43.258  55.793  1.00  0.00     0.029 A 
ENDBRANCH  14  18
ENDBRANCH  10  11
ENDBRANCH   1  10
BRANCH   4  24
HETATM   24  C   UNL     1      24.534  46.595  49.790  1.00  0.00     0.156 C 
BRANCH  24  25
HETATM   25  N   UNL     1      23.314  47.380  49.931  1.00  0.00    -0.355 N 
HETATM   26  C   UNL     1      23.175  48.667  49.451  1.00  0.00     0.251 C 
HETATM   27  O   UNL     1      24.155  49.370  49.214  1.00  0.00    -0.268 OA
HETATM   28  H   UNL     1      22.461  46.830  49.975  1.00  0.00     0.162 HD
BRANCH  26  29
HETATM   29  C   UNL     1      21.803  49.151  49.135  1.00  0.00     0.034 A 
HETATM   30  C   UNL     1      21.619  50.541  49.062  1.00  0.00     0.056 A 
HETATM   31  C   UNL     1      20.379  51.012  48.684  1.00  0.00     0.106 A 
HETATM   32  C   UNL     1      19.340  50.162  48.395  1.00  0.00     0.105 A 
HETATM   33  O   UNL     1      20.042  52.319  48.534  1.00  0.00    -0.323 OA
HETATM   34  O   UNL     1      18.216  50.829  48.026  1.00  0.00    -0.323 OA
HETATM   35  C   UNL     1      19.477  48.794  48.481  1.00  0.00     0.041 A 
HETATM   36  C   UNL     1      18.660  52.200  48.128  1.00  0.00     0.352 A 
HETATM   37  C   UNL     1      20.724  48.280  48.863  1.00  0.00     0.020 A 
ENDBRANCH  26  29
ENDBRANCH  24  25
ENDBRANCH   4  24
TORSDOF 6
ENDMDL
MODEL 5
REMARK VINA RESULT:      -9.1     12.536     15.262
REMARK  6 active torsions:
REMARK  status: ('A' for Active; 'I' for Inactive)
REMARK    1  A    between atoms: C_4  and  N_5 
REMARK    2  A    between atoms: N_8  and  C_10 
REMARK    3  A    between atoms: C_10  and  C_11 
REMARK    4  A    between atoms: C_14  and  C_15 
REMARK    5  A    between atoms: C_15  and  N_16 
REMARK       I    between atoms: N_16  and  C_17 
REMARK    6  A    between atoms: C_17  and  C_18 
ROOT
HETATM    1  C   UNL     1      29.710  46.519  39.583  1.00  0.00     0.041 C 
HETATM    2  C   UNL     1      29.625  45.864  38.177  1.00  0.00    -0.004 C 
HETATM    3  C   UNL     1      28.383  46.380  37.412  1.00  0.00     0.040 C 
HETATM    4  C   UNL     1      27.079  46.050  38.179  1.00  0.00     0.206 C 
HETATM    5  N   UNL     1      27.518  45.348  39.458  1.00  0.00    -0.065 N 
HETATM    6  H   UNL     1      26.647  45.173  40.013  1.00  0.00     0.280 HD
HETATM    7  C   UNL     1      28.414  46.163  40.353  1.00  0.00     0.242 C 
HETATM    8  C   UNL     1      29.451  44.333  38.365  1.00  0.00     0.032 C 
HETATM    9  C   UNL     1      28.163  44.020  39.133  1.00  0.00     0.236 C 
ENDROOT
BRANCH   1  10
HETATM   10  C   UNL     1      29.914  48.049  39.655  1.00  0.00     0.241 C 
BRANCH  10  11
HETATM   11  N   UNL     1      31.358  48.490  39.742  1.00  0.00    -0.068 N 
HETATM   12  C   UNL     1      31.549  50.023  39.766  1.00  0.00     0.254 C 
HETATM   13  C   UNL     1      33.040  50.391  39.915  1.00  0.00     0.150 C 
HETATM   14  N   UNL     1      33.578  49.799  41.153  1.00  0.00    -0.378 N 
HETATM   15  C   UNL     1      33.481  48.332  41.186  1.00  0.00     0.150 C 
HETATM   16  C   UNL     1      32.019  47.872  41.014  1.00  0.00     0.254 C 
HETATM   17  H   UNL     1      31.904  48.126  38.949  1.00  0.00     0.280 HD
BRANCH  14  18
HETATM   18  C   UNL     1      33.433  50.551  42.325  1.00  0.00     0.030 A 
HETATM   19  C   UNL     1      32.248  50.593  43.080  1.00  0.00     0.029 A 
HETATM   20  C   UNL     1      32.136  51.376  44.237  1.00  0.00     0.002 A 
HETATM   21  C   UNL     1      33.218  52.121  44.687  1.00  0.00     0.000 A 
HETATM   22  C   UNL     1      34.417  52.067  43.990  1.00  0.00     0.002 A 
HETATM   23  C   UNL     1      34.520  51.287  42.833  1.00  0.00     0.029 A 
ENDBRANCH  14  18
ENDBRANCH  10  11
ENDBRANCH   1  10
BRANCH   4  24
HETATM   24  C   UNL     1      26.214  47.319  38.416  1.00  0.00     0.156 C 
BRANCH  24  25
HETATM   25  N   UNL     1      26.846  48.627  38.292  1.00  0.00    -0.355 N 
HETATM   26  C   UNL     1      26.386  49.761  38.932  1.00  0.00     0.251 C 
HETATM   27  O   UNL     1      25.228  49.839  39.338  1.00  0.00    -0.268 OA
HETATM   28  H   UNL     1      27.844  48.598  38.107  1.00  0.00     0.162 HD
BRANCH  26  29
HETATM   29  C   UNL     1      27.360  50.853  39.205  1.00  0.00     0.034 A 
HETATM   30  C   UNL     1      27.741  51.047  40.543  1.00  0.00     0.056 A 
HETATM   31  C   UNL     1      28.708  51.991  40.811  1.00  0.00     0.106 A 
HETATM   32  C   UNL     1      29.285  52.739  39.814  1.00  0.00     0.105 A 
HETATM   33  O   UNL     1      29.210  52.283  42.039  1.00  0.00    -0.323 OA
HETATM   34  O   UNL     1      30.225  53.595  40.290  1.00  0.00    -0.323 OA
HETATM   35  C   UNL     1      28.917  52.594  38.495  1.00  0.00     0.041 A 
HETATM   36  C   UNL     1      30.167  53.313  41.706  1.00  0.00     0.352 A 
HETATM   37  C   UNL     1      27.936  51.643  38.185  1.00  0.00     0.020 A 
ENDBRANCH  26  29
ENDBRANCH  24  25
ENDBRANCH   4  24
TORSDOF 6
ENDMDL
MODEL 6
REMARK VINA RESULT:      -8.8     12.427     14.089
REMARK  6 active torsions:
REMARK  status: ('A' for Active; 'I' for Inactive)
REMARK    1  A    between atoms: C_4  and  N_5 
REMARK    2  A    between atoms: N_8  and  C_10 
REMARK    3  A    between atoms: C_10  and  C_11 
REMARK    4  A    between atoms: C_14  and  C_15 
REMARK    5  A    between atoms: C_15  and  N_16 
REMARK       I    between atoms: N_16  and  C_17 
REMARK    6  A    between atoms: C_17  and  C_18 
ROOT
HETATM    1  C   UNL     1      26.338  48.626  38.495  1.00  0.00     0.041 C 
HETATM    2  C   UNL     1      25.460  47.347  38.408  1.00  0.00    -0.004 C 
HETATM    3  C   UNL     1      25.989  46.259  39.373  1.00  0.00     0.040 C 
HETATM    4  C   UNL     1      27.446  45.869  39.028  1.00  0.00     0.206 C 
HETATM    5  N   UNL     1      27.843  46.752  37.851  1.00  0.00    -0.065 N 
HETATM    6  H   UNL     1      28.848  46.539  37.647  1.00  0.00     0.280 HD
HETATM    7  C   UNL     1      27.790  48.233  38.123  1.00  0.00     0.242 C 
HETATM    8  C   UNL     1      25.568  46.782  36.967  1.00  0.00     0.032 C 
HETATM    9  C   UNL     1      27.016  46.408  36.634  1.00  0.00     0.236 C 
ENDROOT
BRANCH   1  10
HETATM   10  C   UNL     1      26.370  49.390  39.838  1.00  0.00     0.241 C 
BRANCH  10  11
HETATM   11  N   UNL     1      26.886  50.808  39.745  1.00  0.00    -0.068 N 
HETATM   12  C   UNL     1      27.902  51.183  40.846  1.00  0.00     0.254 C 
HETATM   13  C   UNL     1      28.424  52.622  40.648  1.00  0.00     0.150 C 
HETATM   14  N   UNL     1      29.055  52.745  39.322  1.00  0.00    -0.378 N 
HETATM   15  C   UNL     1      28.135  52.454  38.212  1.00  0.00     0.150 C 
HETATM   16  C   UNL     1      27.539  51.038  38.346  1.00  0.00     0.254 C 
HETATM   17  H   UNL     1      26.114  51.487  39.797  1.00  0.00     0.280 HD
BRANCH  14  18
HETATM   18  C   UNL     1      30.410  52.404  39.234  1.00  0.00     0.030 A 
HETATM   19  C   UNL     1      31.397  52.915  40.094  1.00  0.00     0.029 A 
HETATM   20  C   UNL     1      32.748  52.565  39.959  1.00  0.00     0.002 A 
HETATM   21  C   UNL     1      33.146  51.671  38.974  1.00  0.00     0.000 A 
HETATM   22  C   UNL     1      32.190  51.113  38.137  1.00  0.00     0.002 A 
HETATM   23  C   UNL     1      30.844  51.471  38.274  1.00  0.00     0.029 A 
ENDBRANCH  14  18
ENDBRANCH  10  11
ENDBRANCH   1  10
BRANCH   4  24
HETATM   24  C   UNL     1      28.384  45.996  40.261  1.00  0.00     0.156 C 
BRANCH  24  25
HETATM   25  N   UNL     1      29.360  47.078  40.286  1.00  0.00    -0.355 N 
HETATM   26  C   UNL     1      29.493  47.962  41.338  1.00  0.00     0.251 C 
HETATM   27  O   UNL     1      28.580  48.141  42.142  1.00  0.00    -0.268 OA
HETATM   28  H   UNL     1      30.204  46.897  39.751  1.00  0.00     0.162 HD
BRANCH  26  29
HETATM   29  C   UNL     1      30.812  48.624  41.532  1.00  0.00     0.034 A 
HETATM   30  C   UNL     1      30.852  49.722  42.407  1.00  0.00     0.056 A 
HETATM   31  C   UNL     1      32.076  50.295  42.673  1.00  0.00     0.106 A 
HETATM   32  C   UNL     1      33.233  49.830  42.099  1.00  0.00     0.105 A 
HETATM   33  O   UNL     1      32.295  51.339  43.514  1.00  0.00    -0.323 OA
HETATM   34  O   UNL     1      34.327  50.522  42.508  1.00  0.00    -0.323 OA
HETATM   35  C   UNL     1      33.229  48.773  41.216  1.00  0.00     0.041 A 
HETATM   36  C   UNL     1      33.728  51.489  43.398  1.00  0.00     0.352 A 
HETATM   37  C   UNL     1      32.001  48.165  40.923  1.00  0.00     0.020 A 
ENDBRANCH  26  29
ENDBRANCH  24  25
ENDBRANCH   4  24
TORSDOF 6
ENDMDL
MODEL 7
REMARK VINA RESULT:      -8.8      4.713      9.981
REMARK  6 active torsions:
REMARK  status: ('A' for Active; 'I' for Inactive)
REMARK    1  A    between atoms: C_4  and  N_5 
REMARK    2  A    between atoms: N_8  and  C_10 
REMARK    3  A    between atoms: C_10  and  C_11 
REMARK    4  A    between atoms: C_14  and  C_15 
REMARK    5  A    between atoms: C_15  and  N_16 
REMARK       I    between atoms: N_16  and  C_17 
REMARK    6  A    between atoms: C_17  and  C_18 
ROOT
HETATM    1  C   UNL     1      26.769  44.803  51.217  1.00  0.00     0.041 C 
HETATM    2  C   UNL     1      25.483  45.307  51.929  1.00  0.00    -0.004 C 
HETATM    3  C   UNL     1      24.228  44.959  51.093  1.00  0.00     0.040 C 
HETATM    4  C   UNL     1      24.293  45.614  49.692  1.00  0.00     0.206 C 
HETATM    5  N   UNL     1      25.624  46.353  49.642  1.00  0.00    -0.065 N 
HETATM    6  H   UNL     1      25.706  46.751  48.676  1.00  0.00     0.280 HD
HETATM    7  C   UNL     1      26.840  45.483  49.826  1.00  0.00     0.242 C 
HETATM    8  C   UNL     1      25.560  46.853  52.030  1.00  0.00     0.032 C 
HETATM    9  C   UNL     1      25.632  47.489  50.638  1.00  0.00     0.236 C 
ENDROOT
BRANCH   1  10
HETATM   10  C   UNL     1      26.937  43.279  51.023  1.00  0.00     0.241 C 
BRANCH  10  11
HETATM   11  N   UNL     1      28.015  42.650  51.875  1.00  0.00    -0.068 N 
HETATM   12  C   UNL     1      29.299  43.500  51.997  1.00  0.00     0.254 C 
HETATM   13  C   UNL     1      30.325  42.820  52.928  1.00  0.00     0.150 C 
HETATM   14  N   UNL     1      29.730  42.616  54.261  1.00  0.00    -0.378 N 
HETATM   15  C   UNL     1      28.528  41.770  54.238  1.00  0.00     0.150 C 
HETATM   16  C   UNL     1      27.454  42.363  53.304  1.00  0.00     0.254 C 
HETATM   17  H   UNL     1      28.292  41.730  51.504  1.00  0.00     0.280 HD
BRANCH  14  18
HETATM   18  C   UNL     1      29.840  43.677  55.168  1.00  0.00     0.030 A 
HETATM   19  C   UNL     1      29.022  44.820  55.130  1.00  0.00     0.029 A 
HETATM   20  C   UNL     1      29.178  45.871  56.044  1.00  0.00     0.002 A 
HETATM   21  C   UNL     1      30.142  45.796  57.041  1.00  0.00     0.000 A 
HETATM   22  C   UNL     1      30.935  44.662  57.135  1.00  0.00     0.002 A 
HETATM   23  C   UNL     1      30.778  43.619  56.215  1.00  0.00     0.029 A 
ENDBRANCH  14  18
ENDBRANCH  10  11
ENDBRANCH   1  10
BRANCH   4  24
HETATM   24  C   UNL     1      24.105  44.568  48.558  1.00  0.00     0.156 C 
BRANCH  24  25
HETATM   25  N   UNL     1      24.720  43.255  48.711  1.00  0.00    -0.355 N 
HETATM   26  C   UNL     1      24.019  42.069  48.627  1.00  0.00     0.251 C 
HETATM   27  O   UNL     1      22.801  42.034  48.791  1.00  0.00    -0.268 OA
HETATM   28  H   UNL     1      25.696  43.213  48.435  1.00  0.00     0.162 HD
BRANCH  26  29
HETATM   29  C   UNL     1      24.765  40.842  48.234  1.00  0.00     0.034 A 
HETATM   30  C   UNL     1      25.838  40.459  49.055  1.00  0.00     0.056 A 
HETATM   31  C   UNL     1      26.488  39.279  48.764  1.00  0.00     0.106 A 
HETATM   32  C   UNL     1      26.120  38.494  47.700  1.00  0.00     0.105 A 
HETATM   33  O   UNL     1      27.520  38.750  49.470  1.00  0.00    -0.323 OA
HETATM   34  O   UNL     1      26.875  37.369  47.603  1.00  0.00    -0.323 OA
HETATM   35  C   UNL     1      25.090  38.851  46.858  1.00  0.00     0.041 A 
HETATM   36  C   UNL     1      27.773  37.540  48.721  1.00  0.00     0.352 A 
HETATM   37  C   UNL     1      24.407  40.046  47.124  1.00  0.00     0.020 A 
ENDBRANCH  26  29
ENDBRANCH  24  25
ENDBRANCH   4  24
TORSDOF 6
ENDMDL
MODEL 8
REMARK VINA RESULT:      -8.8      4.088      9.940
REMARK  6 active torsions:
REMARK  status: ('A' for Active; 'I' for Inactive)
REMARK    1  A    between atoms: C_4  and  N_5 
REMARK    2  A    between atoms: N_8  and  C_10 
REMARK    3  A    between atoms: C_10  and  C_11 
REMARK    4  A    between atoms: C_14  and  C_15 
REMARK    5  A    between atoms: C_15  and  N_16 
REMARK       I    between atoms: N_16  and  C_17 
REMARK    6  A    between atoms: C_17  and  C_18 
ROOT
HETATM    1  C   UNL     1      28.035  42.646  52.614  1.00  0.00     0.041 C 
HETATM    2  C   UNL     1      27.861  42.478  54.149  1.00  0.00    -0.004 C 
HETATM    3  C   UNL     1      26.659  43.311  54.653  1.00  0.00     0.040 C 
HETATM    4  C   UNL     1      26.859  44.816  54.351  1.00  0.00     0.206 C 
HETATM    5  N   UNL     1      28.190  44.918  53.618  1.00  0.00    -0.065 N 
HETATM    6  H   UNL     1      28.308  45.925  53.356  1.00  0.00     0.280 HD
HETATM    7  C   UNL     1      28.261  44.151  52.323  1.00  0.00     0.242 C 
HETATM    8  C   UNL     1      29.133  43.030  54.845  1.00  0.00     0.032 C 
HETATM    9  C   UNL     1      29.325  44.518  54.531  1.00  0.00     0.236 C 
ENDROOT
BRANCH   1  10
HETATM   10  C   UNL     1      26.899  42.138  51.699  1.00  0.00     0.241 C 
BRANCH  10  11
HETATM   11  N   UNL     1      27.090  40.732  51.177  1.00  0.00    -0.068 N 
HETATM   12  C   UNL     1      26.074  40.320  50.089  1.00  0.00     0.254 C 
HETATM   13  C   UNL     1      26.370  38.898  49.568  1.00  0.00     0.150 C 
HETATM   14  N   UNL     1      27.739  38.842  49.023  1.00  0.00    -0.378 N 
HETATM   15  C   UNL     1      28.773  39.172  50.016  1.00  0.00     0.150 C 
HETATM   16  C   UNL     1      28.537  40.573  50.614  1.00  0.00     0.254 C 
HETATM   17  H   UNL     1      27.019  40.042  51.938  1.00  0.00     0.280 HD
BRANCH  14  18
HETATM   18  C   UNL     1      27.898  39.202  47.679  1.00  0.00     0.030 A 
HETATM   19  C   UNL     1      27.950  38.273  46.627  1.00  0.00     0.029 A 
HETATM   20  C   UNL     1      28.132  38.673  45.296  1.00  0.00     0.002 A 
HETATM   21  C   UNL     1      28.241  40.021  44.977  1.00  0.00     0.000 A 
HETATM   22  C   UNL     1      28.148  40.966  45.988  1.00  0.00     0.002 A 
HETATM   23  C   UNL     1      27.972  40.559  47.315  1.00  0.00     0.029 A 
ENDBRANCH  14  18
ENDBRANCH  10  11
ENDBRANCH   1  10
BRANCH   4  24
HETATM   24  C   UNL     1      25.656  45.412  53.568  1.00  0.00     0.156 C 
BRANCH  24  25
HETATM   25  N   UNL     1      25.920  46.141  52.334  1.00  0.00    -0.355 N 
HETATM   26  C   UNL     1      25.142  46.026  51.198  1.00  0.00     0.251 C 
HETATM   27  O   UNL     1      24.418  45.049  51.016  1.00  0.00    -0.268 OA
HETATM   28  H   UNL     1      26.384  47.035  52.463  1.00  0.00     0.162 HD
BRANCH  26  29
HETATM   29  C   UNL     1      25.130  47.167  50.242  1.00  0.00     0.034 A 
HETATM   30  C   UNL     1      23.882  47.552  49.726  1.00  0.00     0.056 A 
HETATM   31  C   UNL     1      23.833  48.661  48.909  1.00  0.00     0.106 A 
HETATM   32  C   UNL     1      24.962  49.373  48.587  1.00  0.00     0.105 A 
HETATM   33  O   UNL     1      22.710  49.185  48.353  1.00  0.00    -0.323 OA
HETATM   34  O   UNL     1      24.690  50.437  47.788  1.00  0.00    -0.323 OA
HETATM   35  C   UNL     1      26.206  49.009  49.053  1.00  0.00     0.041 A 
HETATM   36  C   UNL     1      23.260  50.308  47.630  1.00  0.00     0.352 A 
HETATM   37  C   UNL     1      26.293  47.886  49.887  1.00  0.00     0.020 A 
ENDBRANCH  26  29
ENDBRANCH  24  25
ENDBRANCH   4  24
TORSDOF 6
ENDMDL
MODEL 9
REMARK VINA RESULT:      -8.7      6.597      9.570
REMARK  6 active torsions:
REMARK  status: ('A' for Active; 'I' for Inactive)
REMARK    1  A    between atoms: C_4  and  N_5 
REMARK    2  A    between atoms: N_8  and  C_10 
REMARK    3  A    between atoms: C_10  and  C_11 
REMARK    4  A    between atoms: C_14  and  C_15 
REMARK    5  A    between atoms: C_15  and  N_16 
REMARK       I    between atoms: N_16  and  C_17 
REMARK    6  A    between atoms: C_17  and  C_18 
ROOT
HETATM    1  C   UNL     1      27.576  39.603  47.856  1.00  0.00     0.041 C 
HETATM    2  C   UNL     1      26.897  38.809  49.005  1.00  0.00    -0.004 C 
HETATM    3  C   UNL     1      26.455  39.765  50.138  1.00  0.00     0.040 C 
HETATM    4  C   UNL     1      27.666  40.528  50.728  1.00  0.00     0.206 C 
HETATM    5  N   UNL     1      28.877  40.064  49.927  1.00  0.00    -0.065 N 
HETATM    6  H   UNL     1      29.694  40.618  50.277  1.00  0.00     0.280 HD
HETATM    7  C   UNL     1      28.802  40.342  48.448  1.00  0.00     0.242 C 
HETATM    8  C   UNL     1      27.943  37.832  49.604  1.00  0.00     0.032 C 
HETATM    9  C   UNL     1      29.141  38.597  50.176  1.00  0.00     0.236 C 
ENDROOT
BRANCH   1  10
HETATM   10  C   UNL     1      26.718  40.628  47.081  1.00  0.00     0.241 C 
BRANCH  10  11
HETATM   11  N   UNL     1      26.549  40.324  45.609  1.00  0.00    -0.068 N 
HETATM   12  C   UNL     1      27.471  41.151  44.685  1.00  0.00     0.254 C 
HETATM   13  C   UNL     1      27.282  40.743  43.209  1.00  0.00     0.150 C 
HETATM   14  N   UNL     1      27.569  39.306  43.048  1.00  0.00    -0.378 N 
HETATM   15  C   UNL     1      26.695  38.444  43.859  1.00  0.00     0.150 C 
HETATM   16  C   UNL     1      26.799  38.804  45.355  1.00  0.00     0.254 C 
HETATM   17  H   UNL     1      25.581  40.493  45.304  1.00  0.00     0.280 HD
BRANCH  14  18
HETATM   18  C   UNL     1      28.904  38.952  42.816  1.00  0.00     0.030 A 
HETATM   19  C   UNL     1      29.924  39.887  42.570  1.00  0.00     0.029 A 
HETATM   20  C   UNL     1      31.245  39.491  42.320  1.00  0.00     0.002 A 
HETATM   21  C   UNL     1      31.589  38.145  42.335  1.00  0.00     0.000 A 
HETATM   22  C   UNL     1      30.615  37.199  42.619  1.00  0.00     0.002 A 
HETATM   23  C   UNL     1      29.296  37.602  42.862  1.00  0.00     0.029 A 
ENDBRANCH  14  18
ENDBRANCH  10  11
ENDBRANCH   1  10
BRANCH   4  24
HETATM   24  C   UNL     1      27.444  42.066  50.708  1.00  0.00     0.156 C 
BRANCH  24  25
HETATM   25  N   UNL     1      28.245  42.897  51.598  1.00  0.00    -0.355 N 
HETATM   26  C   UNL     1      27.753  43.472  52.753  1.00  0.00     0.251 C 
HETATM   27  O   UNL     1      26.547  43.640  52.920  1.00  0.00    -0.268 OA
HETATM   28  H   UNL     1      29.237  42.680  51.600  1.00  0.00     0.162 HD
BRANCH  26  29
HETATM   29  C   UNL     1      28.720  43.797  53.838  1.00  0.00     0.034 A 
HETATM   30  C   UNL     1      28.405  44.887  54.666  1.00  0.00     0.056 A 
HETATM   31  C   UNL     1      29.238  45.152  55.732  1.00  0.00     0.106 A 
HETATM   32  C   UNL     1      30.354  44.393  55.985  1.00  0.00     0.105 A 
HETATM   33  O   UNL     1      29.064  46.144  56.644  1.00  0.00    -0.323 OA
HETATM   34  O   UNL     1      31.023  44.812  57.090  1.00  0.00    -0.323 OA
HETATM   35  C   UNL     1      30.708  43.334  55.179  1.00  0.00     0.041 A 
HETATM   36  C   UNL     1      30.209  45.932  57.501  1.00  0.00     0.352 A 
HETATM   37  C   UNL     1      29.884  43.035  54.085  1.00  0.00     0.020 A 
ENDBRANCH  26  29
ENDBRANCH  24  25
ENDBRANCH   4  24
TORSDOF 6
ENDMDL
MODEL 10
REMARK VINA RESULT:      -8.7     12.226     14.189
REMARK  6 active torsions:
REMARK  status: ('A' for Active; 'I' for Inactive)
REMARK    1  A    between atoms: C_4  and  N_5 
REMARK    2  A    between atoms: N_8  and  C_10 
REMARK    3  A    between atoms: C_10  and  C_11 
REMARK    4  A    between atoms: C_14  and  C_15 
REMARK    5  A    between atoms: C_15  and  N_16 
REMARK       I    between atoms: N_16  and  C_17 
REMARK    6  A    between atoms: C_17  and  C_18 
ROOT
HETATM    1  C   UNL     1      25.076  49.648  38.647  1.00  0.00     0.041 C 
HETATM    2  C   UNL     1      24.135  48.997  39.698  1.00  0.00    -0.004 C 
HETATM    3  C   UNL     1      24.514  47.513  39.921  1.00  0.00     0.040 C 
HETATM    4  C   UNL     1      24.402  46.706  38.605  1.00  0.00     0.206 C 
HETATM    5  N   UNL     1      23.978  47.709  37.538  1.00  0.00    -0.065 N 
HETATM    6  H   UNL     1      23.957  47.186  36.631  1.00  0.00     0.280 HD
HETATM    7  C   UNL     1      24.938  48.851  37.326  1.00  0.00     0.242 C 
HETATM    8  C   UNL     1      22.688  49.027  39.138  1.00  0.00     0.032 C 
HETATM    9  C   UNL     1      22.591  48.233  37.831  1.00  0.00     0.236 C 
ENDROOT
BRANCH   1  10
HETATM   10  C   UNL     1      26.577  49.760  38.994  1.00  0.00     0.241 C 
BRANCH  10  11
HETATM   11  N   UNL     1      27.032  51.147  39.390  1.00  0.00    -0.068 N 
HETATM   12  C   UNL     1      27.376  51.294  40.889  1.00  0.00     0.254 C 
HETATM   13  C   UNL     1      27.887  52.716  41.200  1.00  0.00     0.150 C 
HETATM   14  N   UNL     1      29.077  53.009  40.382  1.00  0.00    -0.378 N 
HETATM   15  C   UNL     1      28.819  52.941  38.935  1.00  0.00     0.150 C 
HETATM   16  C   UNL     1      28.275  51.554  38.537  1.00  0.00     0.254 C 
HETATM   17  H   UNL     1      26.312  51.849  39.171  1.00  0.00     0.280 HD
BRANCH  14  18
HETATM   18  C   UNL     1      30.315  52.615  40.905  1.00  0.00     0.030 A 
HETATM   19  C   UNL     1      31.439  52.329  40.112  1.00  0.00     0.029 A 
HETATM   20  C   UNL     1      32.654  51.916  40.674  1.00  0.00     0.002 A 
HETATM   21  C   UNL     1      32.787  51.802  42.052  1.00  0.00     0.000 A 
HETATM   22  C   UNL     1      31.711  52.120  42.866  1.00  0.00     0.002 A 
HETATM   23  C   UNL     1      30.498  52.527  42.298  1.00  0.00     0.029 A 
ENDBRANCH  14  18
ENDBRANCH  10  11
ENDBRANCH   1  10
BRANCH   4  24
HETATM   24  C   UNL     1      25.720  45.951  38.277  1.00  0.00     0.156 C 
BRANCH  24  25
HETATM   25  N   UNL     1      26.829  46.045  39.219  1.00  0.00    -0.355 N 
HETATM   26  C   UNL     1      28.112  46.404  38.853  1.00  0.00     0.251 C 
HETATM   27  O   UNL     1      28.496  46.307  37.690  1.00  0.00    -0.268 OA
HETATM   28  H   UNL     1      26.558  46.279  40.168  1.00  0.00     0.162 HD
BRANCH  26  29
HETATM   29  C   UNL     1      28.991  47.008  39.893  1.00  0.00     0.034 A 
HETATM   30  C   UNL     1      30.375  46.839  39.731  1.00  0.00     0.056 A 
HETATM   31  C   UNL     1      31.213  47.464  40.630  1.00  0.00     0.106 A 
HETATM   32  C   UNL     1      30.727  48.222  41.666  1.00  0.00     0.105 A 
HETATM   33  O   UNL     1      32.571  47.429  40.601  1.00  0.00    -0.323 OA
HETATM   34  O   UNL     1      31.719  48.762  42.421  1.00  0.00    -0.323 OA
HETATM   35  C   UNL     1      29.375  48.387  41.871  1.00  0.00     0.041 A 
HETATM   36  C   UNL     1      32.890  48.247  41.750  1.00  0.00     0.352 A 
HETATM   37  C   UNL     1      28.493  47.766  40.976  1.00  0.00     0.020 A 
ENDBRANCH  26  29
ENDBRANCH  24  25
ENDBRANCH   4  24
TORSDOF 6
ENDMDL
