MODEL 1
REMARK VINA RESULT:      -9.3      0.000      0.000
REMARK  6 active torsions:
REMARK  status: ('A' for Active; 'I' for Inactive)
REMARK    1  A    between atoms: C_2  and  C_3 
REMARK    2  A    between atoms: C_4  and  O_5 
REMARK    3  A    between atoms: O_5  and  C_6 
REMARK    4  A    between atoms: C_6  and  C_7 
REMARK       I    between atoms: C_7  and  N_8 
REMARK    5  A    between atoms: N_8  and  N_9 
REMARK    6  A    between atoms: C_10  and  C_11 
ROOT
HETATM    1  C   UNL     1      25.979  46.425  54.044  1.00  0.00     0.261 C 
HETATM    2  N   UNL     1      25.999  46.364  52.657  1.00  0.00    -0.246 N 
HETATM    3  O   UNL     1      25.766  47.419  54.734  1.00  0.00    -0.269 OA
HETATM    4  H   UNL     1      26.186  45.458  52.231  1.00  0.00     0.192 HD
ENDROOT
BRANCH   2   5
HETATM    5  N   UNL     1      25.843  47.377  51.749  1.00  0.00    -0.184 NA
HETATM    6  C   UNL     1      26.046  47.175  50.488  1.00  0.00     0.152 C 
BRANCH   6   7
HETATM    7  C   UNL     1      25.857  48.282  49.566  1.00  0.00     0.011 A 
HETATM    8  C   UNL     1      24.612  48.836  49.122  1.00  0.00     0.004 A 
HETATM    9  C   UNL     1      24.909  49.868  48.229  1.00  0.00     0.043 A 
HETATM   10  C   UNL     1      23.256  48.550  49.388  1.00  0.00     0.014 A 
HETATM   11  C   UNL     1      23.920  50.625  47.587  1.00  0.00     0.030 A 
HETATM   12  N   UNL     1      26.279  49.949  48.142  1.00  0.00    -0.364 N 
HETATM   13  C   UNL     1      22.585  50.318  47.866  1.00  0.00     0.002 A 
HETATM   14  C   UNL     1      22.255  49.297  48.754  1.00  0.00     0.001 A 
HETATM   15  H   UNL     1      26.780  50.611  47.566  1.00  0.00     0.165 HD
HETATM   16  C   UNL     1      26.859  49.000  48.939  1.00  0.00     0.102 A 
ENDBRANCH   6   7
ENDBRANCH   2   5
BRANCH   1  17
HETATM   17  C   UNL     1      26.346  45.085  54.678  1.00  0.00     0.280 C 
BRANCH  17  18
HETATM   18  O   UNL     1      27.705  45.062  55.108  1.00  0.00    -0.341 OA
BRANCH  18  19
HETATM   19  C   UNL     1      28.524  44.222  54.395  1.00  0.00     0.076 A 
HETATM   20  C   UNL     1      29.766  43.886  54.971  1.00  0.00    -0.021 A 
HETATM   21  C   UNL     1      30.601  42.995  54.273  1.00  0.00     0.010 A 
HETATM   22  C   UNL     1      30.236  42.496  53.021  1.00  0.00     0.001 A 
HETATM   23  C   UNL     1      29.033  42.883  52.441  1.00  0.00     0.003 A 
HETATM   24  C   UNL     1      28.180  43.750  53.123  1.00  0.00     0.037 A 
BRANCH  20  25
HETATM   25  C   UNL     1      30.164  44.440  56.333  1.00  0.00     0.013 C 
HETATM   26  C   UNL     1      30.499  45.937  56.332  1.00  0.00     0.015 C 
HETATM   27  C   UNL     1      31.328  43.635  56.915  1.00  0.00     0.015 C 
ENDBRANCH  20  25
ENDBRANCH  18  19
ENDBRANCH  17  18
ENDBRANCH   1  17
TORSDOF 6
ENDMDL
MODEL 2
REMARK VINA RESULT:      -9.2      1.554      2.867
REMARK  6 active torsions:
REMARK  status: ('A' for Active; 'I' for Inactive)
REMARK    1  A    between atoms: C_2  and  C_3 
REMARK    2  A    between atoms: C_4  and  O_5 
REMARK    3  A    between atoms: O_5  and  C_6 
REMARK    4  A    between atoms: C_6  and  C_7 
REMARK       I    between atoms: C_7  and  N_8 
REMARK    5  A    between atoms: N_8  and  N_9 
REMARK    6  A    between atoms: C_10  and  C_11 
ROOT
HETATM    1  C   UNL     1      26.229  47.489  53.956  1.00  0.00     0.261 C 
HETATM    2  N   UNL     1      26.049  46.879  52.722  1.00  0.00    -0.246 N 
HETATM    3  O   UNL     1      25.454  48.260  54.516  1.00  0.00    -0.269 OA
HETATM    4  H   UNL     1      26.787  46.258  52.395  1.00  0.00     0.192 HD
ENDROOT
BRANCH   2   5
HETATM    5  N   UNL     1      25.018  47.024  51.833  1.00  0.00    -0.184 NA
HETATM    6  C   UNL     1      25.248  47.207  50.574  1.00  0.00     0.152 C 
BRANCH   6   7
HETATM    7  C   UNL     1      24.118  47.346  49.672  1.00  0.00     0.011 A 
HETATM    8  C   UNL     1      23.606  48.560  49.107  1.00  0.00     0.004 A 
HETATM    9  C   UNL     1      22.504  48.222  48.318  1.00  0.00     0.043 A 
HETATM   10  C   UNL     1      23.969  49.921  49.201  1.00  0.00     0.014 A 
HETATM   11  C   UNL     1      21.748  49.173  47.622  1.00  0.00     0.030 A 
HETATM   12  N   UNL     1      22.359  46.856  48.387  1.00  0.00    -0.364 N 
HETATM   13  C   UNL     1      22.128  50.514  47.736  1.00  0.00     0.002 A 
HETATM   14  C   UNL     1      23.223  50.885  48.512  1.00  0.00     0.001 A 
HETATM   15  H   UNL     1      21.639  46.330  47.911  1.00  0.00     0.165 HD
HETATM   16  C   UNL     1      23.321  46.320  49.199  1.00  0.00     0.102 A 
ENDBRANCH   6   7
ENDBRANCH   2   5
BRANCH   1  17
HETATM   17  C   UNL     1      27.595  47.163  54.558  1.00  0.00     0.280 C 
BRANCH  17  18
HETATM   18  O   UNL     1      27.935  45.790  54.377  1.00  0.00    -0.341 OA
BRANCH  18  19
HETATM   19  C   UNL     1      28.937  45.329  55.193  1.00  0.00     0.076 A 
HETATM   20  C   UNL     1      29.536  44.099  54.851  1.00  0.00    -0.021 A 
HETATM   21  C   UNL     1      30.592  43.630  55.653  1.00  0.00     0.010 A 
HETATM   22  C   UNL     1      31.002  44.334  56.787  1.00  0.00     0.001 A 
HETATM   23  C   UNL     1      30.362  45.516  57.143  1.00  0.00     0.003 A 
HETATM   24  C   UNL     1      29.326  46.010  56.352  1.00  0.00     0.037 A 
BRANCH  20  25
HETATM   25  C   UNL     1      29.078  43.331  53.617  1.00  0.00     0.013 C 
HETATM   26  C   UNL     1      27.957  42.318  53.886  1.00  0.00     0.015 C 
HETATM   27  C   UNL     1      30.269  42.641  52.948  1.00  0.00     0.015 C 
ENDBRANCH  20  25
ENDBRANCH  18  19
ENDBRANCH  17  18
ENDBRANCH   1  17
TORSDOF 6
ENDMDL
MODEL 3
REMARK VINA RESULT:      -9.0      2.285      3.746
REMARK  6 active torsions:
REMARK  status: ('A' for Active; 'I' for Inactive)
REMARK    1  A    between atoms: C_2  and  C_3 
REMARK    2  A    between atoms: C_4  and  O_5 
REMARK    3  A    between atoms: O_5  and  C_6 
REMARK    4  A    between atoms: C_6  and  C_7 
REMARK       I    between atoms: C_7  and  N_8 
REMARK    5  A    between atoms: N_8  and  N_9 
REMARK    6  A    between atoms: C_10  and  C_11 
ROOT
HETATM    1  C   UNL     1      26.763  47.229  55.254  1.00  0.00     0.261 C 
HETATM    2  N   UNL     1      26.584  46.412  54.145  1.00  0.00    -0.246 N 
HETATM    3  O   UNL     1      26.105  48.223  55.549  1.00  0.00    -0.269 OA
HETATM    4  H   UNL     1      27.212  45.617  54.043  1.00  0.00     0.192 HD
ENDROOT
BRANCH   2   5
HETATM    5  N   UNL     1      25.692  46.544  53.116  1.00  0.00    -0.184 NA
HETATM    6  C   UNL     1      26.023  46.231  51.905  1.00  0.00     0.152 C 
BRANCH   6   7
HETATM    7  C   UNL     1      25.035  46.380  50.851  1.00  0.00     0.011 A 
HETATM    8  C   UNL     1      24.187  45.360  50.308  1.00  0.00     0.004 A 
HETATM    9  C   UNL     1      23.414  45.949  49.305  1.00  0.00     0.043 A 
HETATM   10  C   UNL     1      24.012  43.984  50.568  1.00  0.00     0.014 A 
HETATM   11  C   UNL     1      22.478  45.232  48.549  1.00  0.00     0.030 A 
HETATM   12  N   UNL     1      23.766  47.277  49.249  1.00  0.00    -0.364 N 
HETATM   13  C   UNL     1      22.327  43.870  48.825  1.00  0.00     0.002 A 
HETATM   14  C   UNL     1      23.080  43.253  49.820  1.00  0.00     0.001 A 
HETATM   15  H   UNL     1      23.365  47.950  48.611  1.00  0.00     0.165 HD
HETATM   16  C   UNL     1      24.740  47.548  50.171  1.00  0.00     0.102 A 
ENDBRANCH   6   7
ENDBRANCH   2   5
BRANCH   1  17
HETATM   17  C   UNL     1      27.974  46.805  56.084  1.00  0.00     0.280 C 
BRANCH  17  18
HETATM   18  O   UNL     1      28.978  46.196  55.274  1.00  0.00    -0.341 OA
BRANCH  18  19
HETATM   19  C   UNL     1      29.774  45.287  55.924  1.00  0.00     0.076 A 
HETATM   20  C   UNL     1      29.955  44.031  55.311  1.00  0.00    -0.021 A 
HETATM   21  C   UNL     1      30.801  43.101  55.944  1.00  0.00     0.010 A 
HETATM   22  C   UNL     1      31.402  43.391  57.170  1.00  0.00     0.001 A 
HETATM   23  C   UNL     1      31.166  44.614  57.789  1.00  0.00     0.003 A 
HETATM   24  C   UNL     1      30.348  45.559  57.172  1.00  0.00     0.037 A 
BRANCH  20  25
HETATM   25  C   UNL     1      29.290  43.716  53.978  1.00  0.00     0.013 C 
HETATM   26  C   UNL     1      27.926  43.025  54.102  1.00  0.00     0.015 C 
HETATM   27  C   UNL     1      30.227  42.885  53.098  1.00  0.00     0.015 C 
ENDBRANCH  20  25
ENDBRANCH  18  19
ENDBRANCH  17  18
ENDBRANCH   1  17
TORSDOF 6
ENDMDL
MODEL 4
REMARK VINA RESULT:      -9.0      2.083      9.092
REMARK  6 active torsions:
REMARK  status: ('A' for Active; 'I' for Inactive)
REMARK    1  A    between atoms: C_2  and  C_3 
REMARK    2  A    between atoms: C_4  and  O_5 
REMARK    3  A    between atoms: O_5  and  C_6 
REMARK    4  A    between atoms: C_6  and  C_7 
REMARK       I    between atoms: C_7  and  N_8 
REMARK    5  A    between atoms: N_8  and  N_9 
REMARK    6  A    between atoms: C_10  and  C_11 
ROOT
HETATM    1  C   UNL     1      24.948  45.158  51.121  1.00  0.00     0.261 C 
HETATM    2  N   UNL     1      26.335  45.168  51.049  1.00  0.00    -0.246 N 
HETATM    3  O   UNL     1      24.255  44.495  51.888  1.00  0.00    -0.269 OA
HETATM    4  H   UNL     1      26.764  45.780  50.358  1.00  0.00     0.192 HD
ENDROOT
BRANCH   2   5
HETATM    5  N   UNL     1      27.237  44.425  51.762  1.00  0.00    -0.184 NA
HETATM    6  C   UNL     1      27.650  44.819  52.923  1.00  0.00     0.152 C 
BRANCH   6   7
HETATM    7  C   UNL     1      28.602  43.989  53.643  1.00  0.00     0.011 A 
HETATM    8  C   UNL     1      29.334  44.338  54.825  1.00  0.00     0.004 A 
HETATM    9  C   UNL     1      30.141  43.246  55.153  1.00  0.00     0.043 A 
HETATM   10  C   UNL     1      29.396  45.486  55.642  1.00  0.00     0.014 A 
HETATM   11  C   UNL     1      31.007  43.246  56.254  1.00  0.00     0.030 A 
HETATM   12  N   UNL     1      29.900  42.267  54.218  1.00  0.00    -0.364 N 
HETATM   13  C   UNL     1      31.051  44.398  57.044  1.00  0.00     0.002 A 
HETATM   14  C   UNL     1      30.257  45.503  56.747  1.00  0.00     0.001 A 
HETATM   15  H   UNL     1      30.346  41.361  54.208  1.00  0.00     0.165 HD
HETATM   16  C   UNL     1      28.979  42.702  53.305  1.00  0.00     0.102 A 
ENDBRANCH   6   7
ENDBRANCH   2   5
BRANCH   1  17
HETATM   17  C   UNL     1      24.316  46.034  50.040  1.00  0.00     0.280 C 
BRANCH  17  18
HETATM   18  O   UNL     1      24.268  47.403  50.437  1.00  0.00    -0.341 OA
BRANCH  18  19
HETATM   19  C   UNL     1      24.997  48.260  49.651  1.00  0.00     0.076 A 
HETATM   20  C   UNL     1      24.281  49.188  48.868  1.00  0.00    -0.021 A 
HETATM   21  C   UNL     1      25.013  50.101  48.087  1.00  0.00     0.010 A 
HETATM   22  C   UNL     1      26.408  50.058  48.047  1.00  0.00     0.001 A 
HETATM   23  C   UNL     1      27.097  49.098  48.780  1.00  0.00     0.003 A 
HETATM   24  C   UNL     1      26.393  48.195  49.577  1.00  0.00     0.037 A 
BRANCH  20  25
HETATM   25  C   UNL     1      22.759  49.225  48.909  1.00  0.00     0.013 C 
HETATM   26  C   UNL     1      22.078  48.270  47.921  1.00  0.00     0.015 C 
HETATM   27  C   UNL     1      22.256  50.655  48.698  1.00  0.00     0.015 C 
ENDBRANCH  20  25
ENDBRANCH  18  19
ENDBRANCH  17  18
ENDBRANCH   1  17
TORSDOF 6
ENDMDL
MODEL 5
REMARK VINA RESULT:      -8.8      1.893      2.626
REMARK  6 active torsions:
REMARK  status: ('A' for Active; 'I' for Inactive)
REMARK    1  A    between atoms: C_2  and  C_3 
REMARK    2  A    between atoms: C_4  and  O_5 
REMARK    3  A    between atoms: O_5  and  C_6 
REMARK    4  A    between atoms: C_6  and  C_7 
REMARK       I    between atoms: C_7  and  N_8 
REMARK    5  A    between atoms: N_8  and  N_9 
REMARK    6  A    between atoms: C_10  and  C_11 
ROOT
HETATM    1  C   UNL     1      25.601  46.687  52.210  1.00  0.00     0.261 C 
HETATM    2  N   UNL     1      25.138  46.981  50.934  1.00  0.00    -0.246 N 
HETATM    3  O   UNL     1      25.512  47.399  53.207  1.00  0.00    -0.269 OA
HETATM    4  H   UNL     1      25.284  46.281  50.210  1.00  0.00     0.192 HD
ENDROOT
BRANCH   2   5
HETATM    5  N   UNL     1      24.534  48.123  50.481  1.00  0.00    -0.184 NA
HETATM    6  C   UNL     1      23.663  48.079  49.526  1.00  0.00     0.152 C 
BRANCH   6   7
HETATM    7  C   UNL     1      23.045  49.319  49.088  1.00  0.00     0.011 A 
HETATM    8  C   UNL     1      21.648  49.641  49.099  1.00  0.00     0.004 A 
HETATM    9  C   UNL     1      21.511  50.928  48.573  1.00  0.00     0.043 A 
HETATM   10  C   UNL     1      20.481  48.953  49.496  1.00  0.00     0.014 A 
HETATM   11  C   UNL     1      20.270  51.559  48.422  1.00  0.00     0.030 A 
HETATM   12  N   UNL     1      22.775  51.377  48.267  1.00  0.00    -0.364 N 
HETATM   13  C   UNL     1      19.131  50.853  48.821  1.00  0.00     0.002 A 
HETATM   14  C   UNL     1      19.232  49.569  49.353  1.00  0.00     0.001 A 
HETATM   15  H   UNL     1      22.981  52.283  47.870  1.00  0.00     0.165 HD
HETATM   16  C   UNL     1      23.703  50.420  48.571  1.00  0.00     0.102 A 
ENDBRANCH   6   7
ENDBRANCH   2   5
BRANCH   1  17
HETATM   17  C   UNL     1      26.348  45.355  52.251  1.00  0.00     0.280 C 
BRANCH  17  18
HETATM   18  O   UNL     1      26.561  44.913  53.590  1.00  0.00    -0.341 OA
BRANCH  18  19
HETATM   19  C   UNL     1      27.773  44.313  53.816  1.00  0.00     0.076 A 
HETATM   20  C   UNL     1      28.585  44.855  54.833  1.00  0.00    -0.021 A 
HETATM   21  C   UNL     1      29.814  44.228  55.106  1.00  0.00     0.010 A 
HETATM   22  C   UNL     1      30.245  43.130  54.358  1.00  0.00     0.001 A 
HETATM   23  C   UNL     1      29.458  42.644  53.319  1.00  0.00     0.003 A 
HETATM   24  C   UNL     1      28.226  43.237  53.044  1.00  0.00     0.037 A 
BRANCH  20  25
HETATM   25  C   UNL     1      28.114  46.058  55.641  1.00  0.00     0.013 C 
HETATM   26  C   UNL     1      28.324  47.408  54.942  1.00  0.00     0.015 C 
HETATM   27  C   UNL     1      28.779  46.065  57.020  1.00  0.00     0.015 C 
ENDBRANCH  20  25
ENDBRANCH  18  19
ENDBRANCH  17  18
ENDBRANCH   1  17
TORSDOF 6
ENDMDL
MODEL 6
REMARK VINA RESULT:      -8.7      2.962      9.890
REMARK  6 active torsions:
REMARK  status: ('A' for Active; 'I' for Inactive)
REMARK    1  A    between atoms: C_2  and  C_3 
REMARK    2  A    between atoms: C_4  and  O_5 
REMARK    3  A    between atoms: O_5  and  C_6 
REMARK    4  A    between atoms: C_6  and  C_7 
REMARK       I    between atoms: C_7  and  N_8 
REMARK    5  A    between atoms: N_8  and  N_9 
REMARK    6  A    between atoms: C_10  and  C_11 
ROOT
HETATM    1  C   UNL     1      23.986  48.443  49.403  1.00  0.00     0.261 C 
HETATM    2  N   UNL     1      24.062  47.507  50.427  1.00  0.00    -0.246 N 
HETATM    3  O   UNL     1      24.740  49.394  49.219  1.00  0.00    -0.269 OA
HETATM    4  H   UNL     1      23.360  46.769  50.440  1.00  0.00     0.192 HD
ENDROOT
BRANCH   2   5
HETATM    5  N   UNL     1      24.939  47.451  51.477  1.00  0.00    -0.184 NA
HETATM    6  C   UNL     1      25.233  46.322  52.035  1.00  0.00     0.152 C 
BRANCH   6   7
HETATM    7  C   UNL     1      26.178  46.316  53.140  1.00  0.00     0.011 A 
HETATM    8  C   UNL     1      27.178  45.328  53.418  1.00  0.00     0.004 A 
HETATM    9  C   UNL     1      27.839  45.719  54.585  1.00  0.00     0.043 A 
HETATM   10  C   UNL     1      27.579  44.128  52.792  1.00  0.00     0.014 A 
HETATM   11  C   UNL     1      28.875  44.971  55.157  1.00  0.00     0.030 A 
HETATM   12  N   UNL     1      27.274  46.904  54.993  1.00  0.00    -0.364 N 
HETATM   13  C   UNL     1      29.249  43.785  54.518  1.00  0.00     0.002 A 
HETATM   14  C   UNL     1      28.613  43.368  53.351  1.00  0.00     0.001 A 
HETATM   15  H   UNL     1      27.555  47.421  55.814  1.00  0.00     0.165 HD
HETATM   16  C   UNL     1      26.274  47.272  54.135  1.00  0.00     0.102 A 
ENDBRANCH   6   7
ENDBRANCH   2   5
BRANCH   1  17
HETATM   17  C   UNL     1      22.760  48.220  48.519  1.00  0.00     0.280 C 
BRANCH  17  18
HETATM   18  O   UNL     1      21.550  48.309  49.268  1.00  0.00    -0.341 OA
BRANCH  18  19
HETATM   19  C   UNL     1      20.850  49.478  49.102  1.00  0.00     0.076 A 
HETATM   20  C   UNL     1      19.494  49.482  49.487  1.00  0.00    -0.021 A 
HETATM   21  C   UNL     1      18.772  50.683  49.361  1.00  0.00     0.010 A 
HETATM   22  C   UNL     1      19.365  51.826  48.822  1.00  0.00     0.001 A 
HETATM   23  C   UNL     1      20.687  51.789  48.393  1.00  0.00     0.003 A 
HETATM   24  C   UNL     1      21.428  50.616  48.526  1.00  0.00     0.037 A 
BRANCH  20  25
HETATM   25  C   UNL     1      18.850  48.229  50.067  1.00  0.00     0.013 C 
HETATM   26  C   UNL     1      17.608  47.749  49.306  1.00  0.00     0.015 C 
HETATM   27  C   UNL     1      18.518  48.437  51.547  1.00  0.00     0.015 C 
ENDBRANCH  20  25
ENDBRANCH  18  19
ENDBRANCH  17  18
ENDBRANCH   1  17
TORSDOF 6
ENDMDL
MODEL 7
REMARK VINA RESULT:      -8.5      1.568      2.207
REMARK  6 active torsions:
REMARK  status: ('A' for Active; 'I' for Inactive)
REMARK    1  A    between atoms: C_2  and  C_3 
REMARK    2  A    between atoms: C_4  and  O_5 
REMARK    3  A    between atoms: O_5  and  C_6 
REMARK    4  A    between atoms: C_6  and  C_7 
REMARK       I    between atoms: C_7  and  N_8 
REMARK    5  A    between atoms: N_8  and  N_9 
REMARK    6  A    between atoms: C_10  and  C_11 
ROOT
HETATM    1  C   UNL     1      26.519  47.215  54.022  1.00  0.00     0.261 C 
HETATM    2  N   UNL     1      26.454  47.319  52.638  1.00  0.00    -0.246 N 
HETATM    3  O   UNL     1      25.571  47.148  54.800  1.00  0.00    -0.269 OA
HETATM    4  H   UNL     1      27.335  47.359  52.130  1.00  0.00     0.192 HD
ENDROOT
BRANCH   2   5
HETATM    5  N   UNL     1      25.350  47.421  51.835  1.00  0.00    -0.184 NA
HETATM    6  C   UNL     1      25.418  47.142  50.574  1.00  0.00     0.152 C 
BRANCH   6   7
HETATM    7  C   UNL     1      24.215  47.258  49.768  1.00  0.00     0.011 A 
HETATM    8  C   UNL     1      23.730  48.430  49.100  1.00  0.00     0.004 A 
HETATM    9  C   UNL     1      22.535  48.085  48.464  1.00  0.00     0.043 A 
HETATM   10  C   UNL     1      24.190  49.760  48.984  1.00  0.00     0.014 A 
HETATM   11  C   UNL     1      21.777  49.000  47.723  1.00  0.00     0.030 A 
HETATM   12  N   UNL     1      22.309  46.753  48.722  1.00  0.00    -0.364 N 
HETATM   13  C   UNL     1      22.254  50.310  47.628  1.00  0.00     0.002 A 
HETATM   14  C   UNL     1      23.444  50.687  48.247  1.00  0.00     0.001 A 
HETATM   15  H   UNL     1      21.512  46.230  48.385  1.00  0.00     0.165 HD
HETATM   16  C   UNL     1      23.310  46.247  49.506  1.00  0.00     0.102 A 
ENDBRANCH   6   7
ENDBRANCH   2   5
BRANCH   1  17
HETATM   17  C   UNL     1      27.958  47.276  54.529  1.00  0.00     0.280 C 
BRANCH  17  18
HETATM   18  O   UNL     1      28.179  46.355  55.595  1.00  0.00    -0.341 OA
BRANCH  18  19
HETATM   19  C   UNL     1      28.927  45.254  55.263  1.00  0.00     0.076 A 
HETATM   20  C   UNL     1      29.979  44.899  56.132  1.00  0.00    -0.021 A 
HETATM   21  C   UNL     1      30.731  43.750  55.829  1.00  0.00     0.010 A 
HETATM   22  C   UNL     1      30.479  43.008  54.673  1.00  0.00     0.001 A 
HETATM   23  C   UNL     1      29.476  43.405  53.796  1.00  0.00     0.003 A 
HETATM   24  C   UNL     1      28.704  44.530  54.086  1.00  0.00     0.037 A 
BRANCH  20  25
HETATM   25  C   UNL     1      30.255  45.716  57.388  1.00  0.00     0.013 C 
HETATM   26  C   UNL     1      31.274  45.081  58.342  1.00  0.00     0.015 C 
HETATM   27  C   UNL     1      28.948  46.012  58.128  1.00  0.00     0.015 C 
ENDBRANCH  20  25
ENDBRANCH  18  19
ENDBRANCH  17  18
ENDBRANCH   1  17
TORSDOF 6
ENDMDL
MODEL 8
REMARK VINA RESULT:      -8.5      2.314      9.574
REMARK  6 active torsions:
REMARK  status: ('A' for Active; 'I' for Inactive)
REMARK    1  A    between atoms: C_2  and  C_3 
REMARK    2  A    between atoms: C_4  and  O_5 
REMARK    3  A    between atoms: O_5  and  C_6 
REMARK    4  A    between atoms: C_6  and  C_7 
REMARK       I    between atoms: C_7  and  N_8 
REMARK    5  A    between atoms: N_8  and  N_9 
REMARK    6  A    between atoms: C_10  and  C_11 
ROOT
HETATM    1  C   UNL     1      25.602  47.156  50.853  1.00  0.00     0.261 C 
HETATM    2  N   UNL     1      25.790  46.299  51.930  1.00  0.00    -0.246 N 
HETATM    3  O   UNL     1      26.342  48.071  50.502  1.00  0.00    -0.269 OA
HETATM    4  H   UNL     1      25.084  45.583  52.088  1.00  0.00     0.192 HD
ENDROOT
BRANCH   2   5
HETATM    5  N   UNL     1      26.792  46.300  52.863  1.00  0.00    -0.184 NA
HETATM    6  C   UNL     1      26.635  45.713  54.005  1.00  0.00     0.152 C 
BRANCH   6   7
HETATM    7  C   UNL     1      27.732  45.735  54.957  1.00  0.00     0.011 A 
HETATM    8  C   UNL     1      28.827  44.813  55.038  1.00  0.00     0.004 A 
HETATM    9  C   UNL     1      29.628  45.207  56.112  1.00  0.00     0.043 A 
HETATM   10  C   UNL     1      29.208  43.669  54.304  1.00  0.00     0.014 A 
HETATM   11  C   UNL     1      30.785  44.517  56.490  1.00  0.00     0.030 A 
HETATM   12  N   UNL     1      29.053  46.333  56.655  1.00  0.00    -0.364 N 
HETATM   13  C   UNL     1      31.137  43.385  55.748  1.00  0.00     0.002 A 
HETATM   14  C   UNL     1      30.362  42.967  54.668  1.00  0.00     0.001 A 
HETATM   15  H   UNL     1      29.419  46.838  57.449  1.00  0.00     0.165 HD
HETATM   16  C   UNL     1      27.913  46.658  55.971  1.00  0.00     0.102 A 
ENDBRANCH   6   7
ENDBRANCH   2   5
BRANCH   1  17
HETATM   17  C   UNL     1      24.271  46.899  50.148  1.00  0.00     0.280 C 
BRANCH  17  18
HETATM   18  O   UNL     1      23.717  48.101  49.617  1.00  0.00    -0.341 OA
BRANCH  18  19
HETATM   19  C   UNL     1      22.652  47.924  48.771  1.00  0.00     0.076 A 
HETATM   20  C   UNL     1      21.770  49.011  48.602  1.00  0.00    -0.021 A 
HETATM   21  C   UNL     1      20.695  48.860  47.707  1.00  0.00     0.010 A 
HETATM   22  C   UNL     1      20.475  47.652  47.043  1.00  0.00     0.001 A 
HETATM   23  C   UNL     1      21.320  46.570  47.265  1.00  0.00     0.003 A 
HETATM   24  C   UNL     1      22.404  46.702  48.132  1.00  0.00     0.037 A 
BRANCH  20  25
HETATM   25  C   UNL     1      22.011  50.324  49.336  1.00  0.00     0.013 C 
HETATM   26  C   UNL     1      20.729  51.061  49.745  1.00  0.00     0.015 C 
HETATM   27  C   UNL     1      22.908  51.242  48.503  1.00  0.00     0.015 C 
ENDBRANCH  20  25
ENDBRANCH  18  19
ENDBRANCH  17  18
ENDBRANCH   1  17
TORSDOF 6
ENDMDL
MODEL 9
REMARK VINA RESULT:      -8.5      2.352      3.175
REMARK  6 active torsions:
REMARK  status: ('A' for Active; 'I' for Inactive)
REMARK    1  A    between atoms: C_2  and  C_3 
REMARK    2  A    between atoms: C_4  and  O_5 
REMARK    3  A    between atoms: O_5  and  C_6 
REMARK    4  A    between atoms: C_6  and  C_7 
REMARK       I    between atoms: C_7  and  N_8 
REMARK    5  A    between atoms: N_8  and  N_9 
REMARK    6  A    between atoms: C_10  and  C_11 
ROOT
HETATM    1  C   UNL     1      25.323  45.058  51.410  1.00  0.00     0.261 C 
HETATM    2  N   UNL     1      25.158  45.802  50.248  1.00  0.00    -0.246 N 
HETATM    3  O   UNL     1      24.439  44.519  52.070  1.00  0.00    -0.269 OA
HETATM    4  H   UNL     1      25.997  46.180  49.812  1.00  0.00     0.192 HD
ENDROOT
BRANCH   2   5
HETATM    5  N   UNL     1      24.000  46.148  49.607  1.00  0.00    -0.184 NA
HETATM    6  C   UNL     1      23.652  47.388  49.488  1.00  0.00     0.152 C 
BRANCH   6   7
HETATM    7  C   UNL     1      22.417  47.702  48.790  1.00  0.00     0.011 A 
HETATM    8  C   UNL     1      21.799  48.989  48.658  1.00  0.00     0.004 A 
HETATM    9  C   UNL     1      20.623  48.815  47.926  1.00  0.00     0.043 A 
HETATM   10  C   UNL     1      22.125  50.288  49.104  1.00  0.00     0.014 A 
HETATM   11  C   UNL     1      19.756  49.872  47.620  1.00  0.00     0.030 A 
HETATM   12  N   UNL     1      20.534  47.479  47.612  1.00  0.00    -0.364 N 
HETATM   13  C   UNL     1      20.102  51.147  48.077  1.00  0.00     0.002 A 
HETATM   14  C   UNL     1      21.270  51.355  48.807  1.00  0.00     0.001 A 
HETATM   15  H   UNL     1      19.780  47.063  47.083  1.00  0.00     0.165 HD
HETATM   16  C   UNL     1      21.604  46.800  48.127  1.00  0.00     0.102 A 
ENDBRANCH   6   7
ENDBRANCH   2   5
BRANCH   1  17
HETATM   17  C   UNL     1      26.781  45.034  51.867  1.00  0.00     0.280 C 
BRANCH  17  18
HETATM   18  O   UNL     1      26.886  44.826  53.274  1.00  0.00    -0.341 OA
BRANCH  18  19
HETATM   19  C   UNL     1      28.075  44.283  53.692  1.00  0.00     0.076 A 
HETATM   20  C   UNL     1      28.691  44.863  54.819  1.00  0.00    -0.021 A 
HETATM   21  C   UNL     1      29.890  44.294  55.286  1.00  0.00     0.010 A 
HETATM   22  C   UNL     1      30.482  43.217  54.623  1.00  0.00     0.001 A 
HETATM   23  C   UNL     1      29.892  42.694  53.478  1.00  0.00     0.003 A 
HETATM   24  C   UNL     1      28.693  43.229  53.008  1.00  0.00     0.037 A 
BRANCH  20  25
HETATM   25  C   UNL     1      28.045  46.043  55.534  1.00  0.00     0.013 C 
HETATM   26  C   UNL     1      28.228  47.389  54.822  1.00  0.00     0.015 C 
HETATM   27  C   UNL     1      28.550  46.132  56.976  1.00  0.00     0.015 C 
ENDBRANCH  20  25
ENDBRANCH  18  19
ENDBRANCH  17  18
ENDBRANCH   1  17
TORSDOF 6
ENDMDL
MODEL 10
REMARK VINA RESULT:      -8.4      1.768      2.497
REMARK  6 active torsions:
REMARK  status: ('A' for Active; 'I' for Inactive)
REMARK    1  A    between atoms: C_2  and  C_3 
REMARK    2  A    between atoms: C_4  and  O_5 
REMARK    3  A    between atoms: O_5  and  C_6 
REMARK    4  A    between atoms: C_6  and  C_7 
REMARK       I    between atoms: C_7  and  N_8 
REMARK    5  A    between atoms: N_8  and  N_9 
REMARK    6  A    between atoms: C_10  and  C_11 
ROOT
HETATM    1  C   UNL     1      26.379  44.237  50.600  1.00  0.00     0.261 C 
HETATM    2  N   UNL     1      25.317  45.130  50.654  1.00  0.00    -0.246 N 
HETATM    3  O   UNL     1      27.354  44.297  49.856  1.00  0.00    -0.269 OA
HETATM    4  H   UNL     1      24.583  44.944  51.334  1.00  0.00     0.192 HD
ENDROOT
BRANCH   2   5
HETATM    5  N   UNL     1      25.082  46.234  49.879  1.00  0.00    -0.184 NA
HETATM    6  C   UNL     1      25.616  47.375  50.169  1.00  0.00     0.152 C 
BRANCH   6   7
HETATM    7  C   UNL     1      25.342  48.512  49.308  1.00  0.00     0.011 A 
HETATM    8  C   UNL     1      24.067  49.113  49.047  1.00  0.00     0.004 A 
HETATM    9  C   UNL     1      24.274  50.162  48.148  1.00  0.00     0.043 A 
HETATM   10  C   UNL     1      22.749  48.856  49.483  1.00  0.00     0.014 A 
HETATM   11  C   UNL     1      23.234  50.963  47.663  1.00  0.00     0.030 A 
HETATM   12  N   UNL     1      25.623  50.208  47.883  1.00  0.00    -0.364 N 
HETATM   13  C   UNL     1      21.938  50.684  48.108  1.00  0.00     0.002 A 
HETATM   14  C   UNL     1      21.697  49.647  49.007  1.00  0.00     0.001 A 
HETATM   15  H   UNL     1      26.064  50.872  47.263  1.00  0.00     0.165 HD
HETATM   16  C   UNL     1      26.274  49.221  48.572  1.00  0.00     0.102 A 
ENDBRANCH   6   7
ENDBRANCH   2   5
BRANCH   1  17
HETATM   17  C   UNL     1      26.177  43.055  51.547  1.00  0.00     0.280 C 
BRANCH  17  18
HETATM   18  O   UNL     1      26.445  43.416  52.901  1.00  0.00    -0.341 OA
BRANCH  18  19
HETATM   19  C   UNL     1      27.757  43.298  53.284  1.00  0.00     0.076 A 
HETATM   20  C   UNL     1      28.247  44.236  54.214  1.00  0.00    -0.021 A 
HETATM   21  C   UNL     1      29.579  44.106  54.649  1.00  0.00     0.010 A 
HETATM   22  C   UNL     1      30.409  43.108  54.135  1.00  0.00     0.001 A 
HETATM   23  C   UNL     1      29.927  42.226  53.175  1.00  0.00     0.003 A 
HETATM   24  C   UNL     1      28.604  42.323  52.744  1.00  0.00     0.037 A 
BRANCH  20  25
HETATM   25  C   UNL     1      27.339  45.329  54.764  1.00  0.00     0.013 C 
HETATM   26  C   UNL     1      26.801  46.295  53.702  1.00  0.00     0.015 C 
HETATM   27  C   UNL     1      28.052  46.104  55.875  1.00  0.00     0.015 C 
ENDBRANCH  20  25
ENDBRANCH  18  19
ENDBRANCH  17  18
ENDBRANCH   1  17
TORSDOF 6
ENDMDL
