MODEL 1
REMARK VINA RESULT:      -7.4      0.000      0.000
REMARK  2 active torsions:
REMARK  status: ('A' for Active; 'I' for Inactive)
REMARK    1  A    between atoms: C_6  and  N_7 
REMARK       I    between atoms: N_7  and  C_8 
REMARK       I    between atoms: C_8  and  N_9 
REMARK    2  A    between atoms: N_9  and  C_10 
ROOT
HETATM    1  N   UNL     1      25.785  45.094  52.735  1.00  0.00    -0.306 N 
HETATM    2  C   UNL     1      26.459  44.743  53.861  1.00  0.00     0.321 C 
HETATM    3  N   UNL     1      27.787  45.017  53.940  1.00  0.00    -0.338 N 
HETATM    4  O   UNL     1      25.882  44.070  54.712  1.00  0.00    -0.247 OA
HETATM    5  H   UNL     1      24.902  44.596  52.699  1.00  0.00     0.171 HD
HETATM    6  H   UNL     1      28.095  45.844  53.447  1.00  0.00     0.164 HD
ENDROOT
BRANCH   3   7
HETATM    7  C   UNL     1      28.631  44.579  55.044  1.00  0.00     0.092 C 
HETATM    8  C   UNL     1      29.002  45.757  55.990  1.00  0.00     0.084 C 
HETATM    9  C   UNL     1      30.046  45.317  56.932  1.00  0.00     0.034 A 
HETATM   10  C   UNL     1      30.807  44.176  56.812  1.00  0.00     0.033 A 
HETATM   11  N   UNL     1      30.485  45.954  58.073  1.00  0.00    -0.354 N 
HETATM   12  N   UNL     1      31.664  44.171  57.891  1.00  0.00    -0.354 N 
HETATM   13  C   UNL     1      30.678  43.168  55.743  1.00  0.00     0.061 C 
HETATM   14  H   UNL     1      32.360  43.453  58.086  1.00  0.00     0.166 HD
HETATM   15  C   UNL     1      31.471  45.257  58.647  1.00  0.00     0.180 A 
HETATM   16  C   UNL     1      29.870  43.764  54.570  1.00  0.00     0.031 C 
HETATM   17  H   UNL     1      30.128  46.841  58.423  1.00  0.00     0.166 HD
ENDBRANCH   3   7
BRANCH   1  18
HETATM   18  C   UNL     1      26.172  45.752  51.546  1.00  0.00     0.077 A 
HETATM   19  C   UNL     1      26.766  45.206  50.404  1.00  0.00     0.152 A 
HETATM   20  N   UNL     1      27.049  45.902  49.277  1.00  0.00    -0.247 NA
HETATM   21 CL   UNL     1      27.397  43.605  50.315  1.00  0.00    -0.060 Cl
HETATM   22  C   UNL     1      26.776  47.221  49.285  1.00  0.00     0.118 A 
HETATM   23  C   UNL     1      26.250  47.880  50.380  1.00  0.00     0.022 A 
HETATM   24  C   UNL     1      25.957  47.137  51.523  1.00  0.00     0.034 A 
ENDBRANCH   1  18
TORSDOF 2
ENDMDL
MODEL 2
REMARK VINA RESULT:      -7.3      2.633      7.567
REMARK  2 active torsions:
REMARK  status: ('A' for Active; 'I' for Inactive)
REMARK    1  A    between atoms: C_6  and  N_7 
REMARK       I    between atoms: N_7  and  C_8 
REMARK       I    between atoms: C_8  and  N_9 
REMARK    2  A    between atoms: N_9  and  C_10 
ROOT
HETATM    1  N   UNL     1      26.838  43.142  52.182  1.00  0.00    -0.306 N 
HETATM    2  C   UNL     1      26.228  43.957  51.283  1.00  0.00     0.321 C 
HETATM    3  N   UNL     1      26.732  45.202  51.082  1.00  0.00    -0.338 N 
HETATM    4  O   UNL     1      25.166  43.596  50.781  1.00  0.00    -0.247 OA
HETATM    5  H   UNL     1      26.214  42.380  52.428  1.00  0.00     0.171 HD
HETATM    6  H   UNL     1      27.732  45.296  51.199  1.00  0.00     0.164 HD
ENDROOT
BRANCH   3   7
HETATM    7  C   UNL     1      26.090  46.199  50.235  1.00  0.00     0.092 C 
HETATM    8  C   UNL     1      27.107  47.255  49.715  1.00  0.00     0.084 C 
HETATM    9  C   UNL     1      26.376  48.365  49.080  1.00  0.00     0.034 A 
HETATM   10  C   UNL     1      25.026  48.611  49.199  1.00  0.00     0.033 A 
HETATM   11  N   UNL     1      26.882  49.376  48.289  1.00  0.00    -0.354 N 
HETATM   12  N   UNL     1      24.777  49.751  48.466  1.00  0.00    -0.354 N 
HETATM   13  C   UNL     1      24.066  47.775  49.944  1.00  0.00     0.061 C 
HETATM   14  H   UNL     1      23.866  50.194  48.358  1.00  0.00     0.166 HD
HETATM   15  C   UNL     1      25.909  50.217  47.925  1.00  0.00     0.180 A 
HETATM   16  C   UNL     1      24.834  46.837  50.899  1.00  0.00     0.031 C 
HETATM   17  H   UNL     1      27.862  49.483  48.033  1.00  0.00     0.166 HD
ENDBRANCH   3   7
BRANCH   1  18
HETATM   18  C   UNL     1      27.979  43.295  53.003  1.00  0.00     0.077 A 
HETATM   19  C   UNL     1      28.100  44.007  54.200  1.00  0.00     0.152 A 
HETATM   20  N   UNL     1      29.221  44.050  54.959  1.00  0.00    -0.247 NA
HETATM   21 CL   UNL     1      26.902  45.089  54.805  1.00  0.00    -0.060 Cl
HETATM   22  C   UNL     1      30.301  43.393  54.495  1.00  0.00     0.118 A 
HETATM   23  C   UNL     1      30.317  42.711  53.294  1.00  0.00     0.022 A 
HETATM   24  C   UNL     1      29.145  42.673  52.538  1.00  0.00     0.034 A 
ENDBRANCH   1  18
TORSDOF 2
ENDMDL
MODEL 3
REMARK VINA RESULT:      -7.3      3.305      7.851
REMARK  2 active torsions:
REMARK  status: ('A' for Active; 'I' for Inactive)
REMARK    1  A    between atoms: C_6  and  N_7 
REMARK       I    between atoms: N_7  and  C_8 
REMARK       I    between atoms: C_8  and  N_9 
REMARK    2  A    between atoms: N_9  and  C_10 
ROOT
HETATM    1  N   UNL     1      26.563  45.470  53.398  1.00  0.00    -0.306 N 
HETATM    2  C   UNL     1      26.058  46.547  52.742  1.00  0.00     0.321 C 
HETATM    3  N   UNL     1      26.202  46.618  51.394  1.00  0.00    -0.338 N 
HETATM    4  O   UNL     1      25.610  47.484  53.399  1.00  0.00    -0.247 OA
HETATM    5  H   UNL     1      26.631  45.678  54.389  1.00  0.00     0.171 HD
HETATM    6  H   UNL     1      26.211  45.732  50.906  1.00  0.00     0.164 HD
ENDROOT
BRANCH   3   7
HETATM    7  C   UNL     1      25.808  47.778  50.606  1.00  0.00     0.092 C 
HETATM    8  C   UNL     1      24.341  47.662  50.100  1.00  0.00     0.084 C 
HETATM    9  C   UNL     1      24.079  48.724  49.114  1.00  0.00     0.034 A 
HETATM   10  C   UNL     1      25.035  49.495  48.489  1.00  0.00     0.033 A 
HETATM   11  N   UNL     1      22.864  49.130  48.603  1.00  0.00    -0.354 N 
HETATM   12  N   UNL     1      24.352  50.337  47.638  1.00  0.00    -0.354 N 
HETATM   13  C   UNL     1      26.487  49.424  48.735  1.00  0.00     0.061 C 
HETATM   14  H   UNL     1      24.782  51.032  47.030  1.00  0.00     0.166 HD
HETATM   15  C   UNL     1      23.036  50.104  47.704  1.00  0.00     0.180 A 
HETATM   16  C   UNL     1      26.820  48.108  49.469  1.00  0.00     0.031 C 
HETATM   17  H   UNL     1      21.960  48.733  48.856  1.00  0.00     0.166 HD
ENDBRANCH   3   7
BRANCH   1  18
HETATM   18  C   UNL     1      27.234  44.305  52.964  1.00  0.00     0.077 A 
HETATM   19  C   UNL     1      26.784  43.321  52.079  1.00  0.00     0.152 A 
HETATM   20  N   UNL     1      27.520  42.261  51.667  1.00  0.00    -0.247 NA
HETATM   21 CL   UNL     1      25.159  43.200  51.514  1.00  0.00    -0.060 Cl
HETATM   22  C   UNL     1      28.756  42.133  52.187  1.00  0.00     0.118 A 
HETATM   23  C   UNL     1      29.280  43.008  53.120  1.00  0.00     0.022 A 
HETATM   24  C   UNL     1      28.504  44.096  53.517  1.00  0.00     0.034 A 
ENDBRANCH   1  18
TORSDOF 2
ENDMDL
MODEL 4
REMARK VINA RESULT:      -7.0      3.650      5.615
REMARK  2 active torsions:
REMARK  status: ('A' for Active; 'I' for Inactive)
REMARK    1  A    between atoms: C_6  and  N_7 
REMARK       I    between atoms: N_7  and  C_8 
REMARK       I    between atoms: C_8  and  N_9 
REMARK    2  A    between atoms: N_9  and  C_10 
ROOT
HETATM    1  N   UNL     1      25.037  48.859  48.899  1.00  0.00    -0.306 N 
HETATM    2  C   UNL     1      25.846  48.114  49.696  1.00  0.00     0.321 C 
HETATM    3  N   UNL     1      25.310  47.503  50.784  1.00  0.00    -0.338 N 
HETATM    4  O   UNL     1      27.057  48.126  49.487  1.00  0.00    -0.247 OA
HETATM    5  H   UNL     1      25.602  49.462  48.311  1.00  0.00     0.171 HD
HETATM    6  H   UNL     1      24.344  47.216  50.696  1.00  0.00     0.164 HD
ENDROOT
BRANCH   3   7
HETATM    7  C   UNL     1      26.104  46.781  51.770  1.00  0.00     0.092 C 
HETATM    8  C   UNL     1      26.025  45.242  51.560  1.00  0.00     0.084 C 
HETATM    9  C   UNL     1      26.630  44.560  52.717  1.00  0.00     0.034 A 
HETATM   10  C   UNL     1      26.927  45.143  53.929  1.00  0.00     0.033 A 
HETATM   11  N   UNL     1      26.982  43.231  52.833  1.00  0.00    -0.354 N 
HETATM   12  N   UNL     1      27.454  44.142  54.717  1.00  0.00    -0.354 N 
HETATM   13  C   UNL     1      26.735  46.566  54.265  1.00  0.00     0.061 C 
HETATM   14  H   UNL     1      27.771  44.257  55.679  1.00  0.00     0.166 HD
HETATM   15  C   UNL     1      27.474  42.983  54.051  1.00  0.00     0.180 A 
HETATM   16  C   UNL     1      25.788  47.214  53.232  1.00  0.00     0.031 C 
HETATM   17  H   UNL     1      26.865  42.529  52.105  1.00  0.00     0.166 HD
ENDBRANCH   3   7
BRANCH   1  18
HETATM   18  C   UNL     1      23.654  49.148  48.931  1.00  0.00     0.077 A 
HETATM   19  C   UNL     1      22.579  48.254  48.925  1.00  0.00     0.152 A 
HETATM   20  N   UNL     1      21.277  48.616  49.021  1.00  0.00    -0.247 NA
HETATM   21 CL   UNL     1      22.728  46.565  48.613  1.00  0.00    -0.060 Cl
HETATM   22  C   UNL     1      21.010  49.935  49.079  1.00  0.00     0.118 A 
HETATM   23  C   UNL     1      21.987  50.910  49.027  1.00  0.00     0.022 A 
HETATM   24  C   UNL     1      23.320  50.508  48.940  1.00  0.00     0.034 A 
ENDBRANCH   1  18
TORSDOF 2
ENDMDL
MODEL 5
REMARK VINA RESULT:      -7.0     13.339     15.617
REMARK  2 active torsions:
REMARK  status: ('A' for Active; 'I' for Inactive)
REMARK    1  A    between atoms: C_6  and  N_7 
REMARK       I    between atoms: N_7  and  C_8 
REMARK       I    between atoms: C_8  and  N_9 
REMARK    2  A    between atoms: N_9  and  C_10 
ROOT
HETATM    1  N   UNL     1      34.338  51.839  44.277  1.00  0.00    -0.306 N 
HETATM    2  C   UNL     1      33.023  51.817  43.939  1.00  0.00     0.321 C 
HETATM    3  N   UNL     1      32.672  52.084  42.655  1.00  0.00    -0.338 N 
HETATM    4  O   UNL     1      32.185  51.693  44.830  1.00  0.00    -0.247 OA
HETATM    5  H   UNL     1      34.429  51.899  45.286  1.00  0.00     0.171 HD
HETATM    6  H   UNL     1      33.343  51.808  41.950  1.00  0.00     0.164 HD
ENDROOT
BRANCH   3   7
HETATM    7  C   UNL     1      31.290  52.206  42.210  1.00  0.00     0.092 C 
HETATM    8  C   UNL     1      30.629  50.815  41.990  1.00  0.00     0.084 C 
HETATM    9  C   UNL     1      29.335  50.992  41.309  1.00  0.00     0.034 A 
HETATM   10  C   UNL     1      28.909  52.139  40.677  1.00  0.00     0.033 A 
HETATM   11  N   UNL     1      28.329  50.063  41.140  1.00  0.00    -0.354 N 
HETATM   12  N   UNL     1      27.662  51.854  40.164  1.00  0.00    -0.354 N 
HETATM   13  C   UNL     1      29.656  53.409  40.613  1.00  0.00     0.061 C 
HETATM   14  H   UNL     1      27.081  52.504  39.636  1.00  0.00     0.166 HD
HETATM   15  C   UNL     1      27.320  50.591  40.439  1.00  0.00     0.180 A 
HETATM   16  C   UNL     1      31.132  53.157  40.987  1.00  0.00     0.031 C 
HETATM   17  H   UNL     1      28.355  49.104  41.479  1.00  0.00     0.166 HD
ENDBRANCH   3   7
BRANCH   1  18
HETATM   18  C   UNL     1      35.519  52.070  43.536  1.00  0.00     0.077 A 
HETATM   19  C   UNL     1      35.960  51.422  42.378  1.00  0.00     0.152 A 
HETATM   20  N   UNL     1      37.081  51.749  41.692  1.00  0.00    -0.247 NA
HETATM   21 CL   UNL     1      35.245  49.988  41.742  1.00  0.00    -0.060 Cl
HETATM   22  C   UNL     1      37.841  52.741  42.196  1.00  0.00     0.118 A 
HETATM   23  C   UNL     1      37.538  53.407  43.368  1.00  0.00     0.022 A 
HETATM   24  C   UNL     1      36.372  53.057  44.047  1.00  0.00     0.034 A 
ENDBRANCH   1  18
TORSDOF 2
ENDMDL
MODEL 6
REMARK VINA RESULT:      -7.0      6.475     10.712
REMARK  2 active torsions:
REMARK  status: ('A' for Active; 'I' for Inactive)
REMARK    1  A    between atoms: C_6  and  N_7 
REMARK       I    between atoms: N_7  and  C_8 
REMARK       I    between atoms: C_8  and  N_9 
REMARK    2  A    between atoms: N_9  and  C_10 
ROOT
HETATM    1  N   UNL     1      24.048  47.540  49.053  1.00  0.00    -0.306 N 
HETATM    2  C   UNL     1      22.978  48.312  48.732  1.00  0.00     0.321 C 
HETATM    3  N   UNL     1      21.863  48.240  49.504  1.00  0.00    -0.338 N 
HETATM    4  O   UNL     1      22.999  48.946  47.679  1.00  0.00    -0.247 OA
HETATM    5  H   UNL     1      24.679  47.487  48.260  1.00  0.00     0.171 HD
HETATM    6  H   UNL     1      22.019  48.037  50.483  1.00  0.00     0.164 HD
ENDROOT
BRANCH   3   7
HETATM    7  C   UNL     1      20.620  48.928  49.184  1.00  0.00     0.092 C 
HETATM    8  C   UNL     1      20.547  50.330  49.855  1.00  0.00     0.084 C 
HETATM    9  C   UNL     1      19.184  50.871  49.708  1.00  0.00     0.034 A 
HETATM   10  C   UNL     1      18.070  50.152  49.336  1.00  0.00     0.033 A 
HETATM   11  N   UNL     1      18.751  52.160  49.940  1.00  0.00    -0.354 N 
HETATM   12  N   UNL     1      17.017  51.042  49.349  1.00  0.00    -0.354 N 
HETATM   13  C   UNL     1      18.054  48.723  48.971  1.00  0.00     0.061 C 
HETATM   14  H   UNL     1      16.051  50.813  49.121  1.00  0.00     0.166 HD
HETATM   15  C   UNL     1      17.435  52.256  49.726  1.00  0.00     0.180 A 
HETATM   16  C   UNL     1      19.359  48.055  49.455  1.00  0.00     0.031 C 
HETATM   17  H   UNL     1      19.342  52.929  50.250  1.00  0.00     0.166 HD
ENDBRANCH   3   7
BRANCH   1  18
HETATM   18  C   UNL     1      24.297  46.627  50.103  1.00  0.00     0.077 A 
HETATM   19  C   UNL     1      23.837  45.315  50.242  1.00  0.00     0.152 A 
HETATM   20  N   UNL     1      24.176  44.483  51.256  1.00  0.00    -0.247 NA
HETATM   21 CL   UNL     1      22.622  44.607  49.244  1.00  0.00    -0.060 Cl
HETATM   22  C   UNL     1      24.979  44.982  52.216  1.00  0.00     0.118 A 
HETATM   23  C   UNL     1      25.441  46.284  52.217  1.00  0.00     0.022 A 
HETATM   24  C   UNL     1      25.085  47.115  51.154  1.00  0.00     0.034 A 
ENDBRANCH   1  18
TORSDOF 2
ENDMDL
MODEL 7
REMARK VINA RESULT:      -6.9      2.581      7.580
REMARK  2 active torsions:
REMARK  status: ('A' for Active; 'I' for Inactive)
REMARK    1  A    between atoms: C_6  and  N_7 
REMARK       I    between atoms: N_7  and  C_8 
REMARK       I    between atoms: C_8  and  N_9 
REMARK    2  A    between atoms: N_9  and  C_10 
ROOT
HETATM    1  N   UNL     1      26.625  44.039  54.443  1.00  0.00    -0.306 N 
HETATM    2  C   UNL     1      25.909  44.353  53.333  1.00  0.00     0.321 C 
HETATM    3  N   UNL     1      26.546  44.945  52.289  1.00  0.00    -0.338 N 
HETATM    4  O   UNL     1      24.687  44.220  53.358  1.00  0.00    -0.247 OA
HETATM    5  H   UNL     1      25.992  43.869  55.218  1.00  0.00     0.171 HD
HETATM    6  H   UNL     1      27.516  44.691  52.166  1.00  0.00     0.164 HD
ENDROOT
BRANCH   3   7
HETATM    7  C   UNL     1      25.856  45.434  51.102  1.00  0.00     0.092 C 
HETATM    8  C   UNL     1      25.142  46.790  51.366  1.00  0.00     0.084 C 
HETATM    9  C   UNL     1      24.264  47.109  50.227  1.00  0.00     0.034 A 
HETATM   10  C   UNL     1      23.876  46.230  49.240  1.00  0.00     0.033 A 
HETATM   11  N   UNL     1      23.642  48.307  49.942  1.00  0.00    -0.354 N 
HETATM   12  N   UNL     1      23.046  46.940  48.399  1.00  0.00    -0.354 N 
HETATM   13  C   UNL     1      24.310  44.826  49.125  1.00  0.00     0.061 C 
HETATM   14  H   UNL     1      22.591  46.565  47.568  1.00  0.00     0.166 HD
HETATM   15  C   UNL     1      22.900  48.196  48.836  1.00  0.00     0.180 A 
HETATM   16  C   UNL     1      24.919  44.365  50.466  1.00  0.00     0.031 C 
HETATM   17  H   UNL     1      23.717  49.154  50.503  1.00  0.00     0.166 HD
ENDBRANCH   3   7
BRANCH   1  18
HETATM   18  C   UNL     1      27.991  44.173  54.779  1.00  0.00     0.077 A 
HETATM   19  C   UNL     1      28.636  45.259  55.377  1.00  0.00     0.152 A 
HETATM   20  N   UNL     1      29.946  45.280  55.723  1.00  0.00    -0.247 NA
HETATM   21 CL   UNL     1      27.913  46.807  55.605  1.00  0.00    -0.060 Cl
HETATM   22  C   UNL     1      30.678  44.190  55.423  1.00  0.00     0.118 A 
HETATM   23  C   UNL     1      30.161  43.085  54.773  1.00  0.00     0.022 A 
HETATM   24  C   UNL     1      28.807  43.086  54.439  1.00  0.00     0.034 A 
ENDBRANCH   1  18
TORSDOF 2
ENDMDL
MODEL 8
REMARK VINA RESULT:      -6.8     13.450     15.611
REMARK  2 active torsions:
REMARK  status: ('A' for Active; 'I' for Inactive)
REMARK    1  A    between atoms: C_6  and  N_7 
REMARK       I    between atoms: N_7  and  C_8 
REMARK       I    between atoms: C_8  and  N_9 
REMARK    2  A    between atoms: N_9  and  C_10 
ROOT
HETATM    1  N   UNL     1      33.190  49.462  42.517  1.00  0.00    -0.306 N 
HETATM    2  C   UNL     1      31.862  49.312  42.275  1.00  0.00     0.321 C 
HETATM    3  N   UNL     1      31.224  50.246  41.524  1.00  0.00    -0.338 N 
HETATM    4  O   UNL     1      31.252  48.414  42.852  1.00  0.00    -0.247 OA
HETATM    5  H   UNL     1      33.463  48.868  43.294  1.00  0.00     0.171 HD
HETATM    6  H   UNL     1      31.784  50.694  40.811  1.00  0.00     0.164 HD
ENDROOT
BRANCH   3   7
HETATM    7  C   UNL     1      29.784  50.250  41.303  1.00  0.00     0.092 C 
HETATM    8  C   UNL     1      29.390  49.411  40.054  1.00  0.00     0.084 C 
HETATM    9  C   UNL     1      27.972  49.651  39.732  1.00  0.00     0.034 A 
HETATM   10  C   UNL     1      27.197  50.675  40.230  1.00  0.00     0.033 A 
HETATM   11  N   UNL     1      27.164  48.942  38.867  1.00  0.00    -0.354 N 
HETATM   12  N   UNL     1      25.954  50.532  39.651  1.00  0.00    -0.354 N 
HETATM   13  C   UNL     1      27.638  51.684  41.211  1.00  0.00     0.061 C 
HETATM   14  H   UNL     1      25.155  51.141  39.818  1.00  0.00     0.166 HD
HETATM   15  C   UNL     1      25.944  49.485  38.818  1.00  0.00     0.180 A 
HETATM   16  C   UNL     1      29.180  51.685  41.289  1.00  0.00     0.031 C 
HETATM   17  H   UNL     1      27.457  48.132  38.324  1.00  0.00     0.166 HD
ENDBRANCH   3   7
BRANCH   1  18
HETATM   18  C   UNL     1      34.139  50.429  42.116  1.00  0.00     0.077 A 
HETATM   19  C   UNL     1      34.615  51.530  42.833  1.00  0.00     0.152 A 
HETATM   20  N   UNL     1      35.577  52.377  42.395  1.00  0.00    -0.247 NA
HETATM   21 CL   UNL     1      33.925  52.092  44.310  1.00  0.00    -0.060 Cl
HETATM   22  C   UNL     1      36.071  52.158  41.161  1.00  0.00     0.118 A 
HETATM   23  C   UNL     1      35.630  51.140  40.337  1.00  0.00     0.022 A 
HETATM   24  C   UNL     1      34.647  50.276  40.819  1.00  0.00     0.034 A 
ENDBRANCH   1  18
TORSDOF 2
ENDMDL
MODEL 9
REMARK VINA RESULT:      -6.7      4.426      5.349
REMARK  2 active torsions:
REMARK  status: ('A' for Active; 'I' for Inactive)
REMARK    1  A    between atoms: C_6  and  N_7 
REMARK       I    between atoms: N_7  and  C_8 
REMARK       I    between atoms: C_8  and  N_9 
REMARK    2  A    between atoms: N_9  and  C_10 
ROOT
HETATM    1  N   UNL     1      24.380  46.844  50.491  1.00  0.00    -0.306 N 
HETATM    2  C   UNL     1      24.732  45.590  50.874  1.00  0.00     0.321 C 
HETATM    3  N   UNL     1      25.940  45.103  50.489  1.00  0.00    -0.338 N 
HETATM    4  O   UNL     1      23.897  44.886  51.438  1.00  0.00    -0.247 OA
HETATM    5  H   UNL     1      23.378  46.965  50.604  1.00  0.00     0.171 HD
HETATM    6  H   UNL     1      26.677  45.788  50.387  1.00  0.00     0.164 HD
ENDROOT
BRANCH   3   7
HETATM    7  C   UNL     1      26.369  43.734  50.740  1.00  0.00     0.092 C 
HETATM    8  C   UNL     1      27.423  43.659  51.881  1.00  0.00     0.084 C 
HETATM    9  C   UNL     1      28.002  42.304  51.923  1.00  0.00     0.034 A 
HETATM   10  C   UNL     1      27.888  41.351  50.936  1.00  0.00     0.033 A 
HETATM   11  N   UNL     1      28.781  41.743  52.913  1.00  0.00    -0.354 N 
HETATM   12  N   UNL     1      28.595  40.254  51.379  1.00  0.00    -0.354 N 
HETATM   13  C   UNL     1      27.125  41.502  49.683  1.00  0.00     0.061 C 
HETATM   14  H   UNL     1      28.703  39.379  50.868  1.00  0.00     0.166 HD
HETATM   15  C   UNL     1      29.143  40.501  52.574  1.00  0.00     0.180 A 
HETATM   16  C   UNL     1      26.819  42.996  49.444  1.00  0.00     0.031 C 
HETATM   17  H   UNL     1      29.063  42.210  53.773  1.00  0.00     0.166 HD
ENDBRANCH   3   7
BRANCH   1  18
HETATM   18  C   UNL     1      25.042  47.846  49.747  1.00  0.00     0.077 A 
HETATM   19  C   UNL     1      24.491  48.788  48.874  1.00  0.00     0.152 A 
HETATM   20  N   UNL     1      25.196  49.760  48.245  1.00  0.00    -0.247 NA
HETATM   21 CL   UNL     1      22.860  48.751  48.317  1.00  0.00    -0.060 Cl
HETATM   22  C   UNL     1      26.527  49.781  48.448  1.00  0.00     0.118 A 
HETATM   23  C   UNL     1      27.188  48.860  49.238  1.00  0.00     0.022 A 
HETATM   24  C   UNL     1      26.436  47.879  49.883  1.00  0.00     0.034 A 
ENDBRANCH   1  18
TORSDOF 2
ENDMDL
MODEL 10
REMARK VINA RESULT:      -6.7      9.759     13.894
REMARK  2 active torsions:
REMARK  status: ('A' for Active; 'I' for Inactive)
REMARK    1  A    between atoms: C_6  and  N_7 
REMARK       I    between atoms: N_7  and  C_8 
REMARK       I    between atoms: C_8  and  N_9 
REMARK    2  A    between atoms: N_9  and  C_10 
ROOT
HETATM    1  N   UNL     1      20.310  49.391  50.178  1.00  0.00    -0.306 N 
HETATM    2  C   UNL     1      19.037  49.860  50.112  1.00  0.00     0.321 C 
HETATM    3  N   UNL     1      18.699  50.694  49.096  1.00  0.00    -0.338 N 
HETATM    4  O   UNL     1      18.271  49.626  51.044  1.00  0.00    -0.247 OA
HETATM    5  H   UNL     1      20.489  49.023  51.106  1.00  0.00     0.171 HD
HETATM    6  H   UNL     1      19.191  50.548  48.225  1.00  0.00     0.164 HD
ENDROOT
BRANCH   3   7
HETATM    7  C   UNL     1      17.401  51.350  48.995  1.00  0.00     0.092 C 
HETATM    8  C   UNL     1      17.011  51.634  47.516  1.00  0.00     0.084 C 
HETATM    9  C   UNL     1      15.827  52.510  47.483  1.00  0.00     0.034 A 
HETATM   10  C   UNL     1      15.329  53.228  48.548  1.00  0.00     0.033 A 
HETATM   11  N   UNL     1      15.019  52.808  46.406  1.00  0.00    -0.354 N 
HETATM   12  N   UNL     1      14.238  53.920  48.067  1.00  0.00    -0.354 N 
HETATM   13  C   UNL     1      15.866  53.209  49.921  1.00  0.00     0.061 C 
HETATM   14  H   UNL     1      13.651  54.547  48.615  1.00  0.00     0.166 HD
HETATM   15  C   UNL     1      14.061  53.668  46.765  1.00  0.00     0.180 A 
HETATM   16  C   UNL     1      17.288  52.606  49.908  1.00  0.00     0.031 C 
HETATM   17  H   UNL     1      15.143  52.444  45.463  1.00  0.00     0.166 HD
ENDBRANCH   3   7
BRANCH   1  18
HETATM   18  C   UNL     1      21.445  49.567  49.354  1.00  0.00     0.077 A 
HETATM   19  C   UNL     1      22.001  48.670  48.437  1.00  0.00     0.152 A 
HETATM   20  N   UNL     1      23.060  48.943  47.639  1.00  0.00    -0.247 NA
HETATM   21 CL   UNL     1      21.542  47.013  48.307  1.00  0.00    -0.060 Cl
HETATM   22  C   UNL     1      23.638  50.152  47.778  1.00  0.00     0.118 A 
HETATM   23  C   UNL     1      23.215  51.093  48.698  1.00  0.00     0.022 A 
HETATM   24  C   UNL     1      22.115  50.789  49.499  1.00  0.00     0.034 A 
ENDBRANCH   1  18
TORSDOF 2
ENDMDL
