MODEL 1
REMARK VINA RESULT:      -8.6      0.000      0.000
REMARK  5 active torsions:
REMARK  status: ('A' for Active; 'I' for Inactive)
REMARK    1  A    between atoms: C_2  and  O_3 
REMARK    2  A    between atoms: O_3  and  C_4 
REMARK    3  A    between atoms: C_5  and  C_6 
REMARK    4  A    between atoms: C_6  and  C_9 
REMARK       I    between atoms: C_9  and  N_10 
REMARK    5  A    between atoms: N_10  and  C_11 
ROOT
HETATM    1  C   UNL     1      27.153  44.020  52.702  1.00  0.00     0.300 C 
HETATM    2  N   UNL     1      25.931  44.693  52.773  1.00  0.00    -0.320 N 
HETATM    3  O   UNL     1      27.903  44.048  51.728  1.00  0.00    -0.266 OA
HETATM    4  H   UNL     1      25.401  44.542  53.629  1.00  0.00     0.169 HD
ENDROOT
BRANCH   1   5
HETATM    5  C   UNL     1      27.457  43.233  54.017  1.00  0.00     0.352 C 
HETATM    6  F   UNL     1      27.702  41.913  53.682  1.00  0.00    -0.190 F 
HETATM    7  F   UNL     1      26.330  43.154  54.792  1.00  0.00    -0.190 F 
BRANCH   5   8
HETATM    8  C   UNL     1      28.651  43.822  54.742  1.00  0.00     0.056 A 
HETATM    9  C   UNL     1      28.629  45.114  55.283  1.00  0.00     0.081 A 
HETATM   10  C   UNL     1      29.732  45.612  55.985  1.00  0.00     0.037 A 
HETATM   11  C   UNL     1      30.887  44.843  56.112  1.00  0.00     0.003 A 
HETATM   12  C   UNL     1      30.940  43.572  55.549  1.00  0.00     0.001 A 
HETATM   13  C   UNL     1      29.830  43.063  54.872  1.00  0.00     0.017 A 
BRANCH   9  14
HETATM   14  O   UNL     1      27.488  45.862  55.205  1.00  0.00    -0.351 OA
BRANCH  14  15
HETATM   15  C   UNL     1      27.750  47.237  54.888  1.00  0.00     0.171 C 
HETATM   16  C   UNL     1      26.529  48.076  55.216  1.00  0.00     0.034 C 
ENDBRANCH  14  15
ENDBRANCH   9  14
ENDBRANCH   5   8
ENDBRANCH   1   5
BRANCH   2  17
HETATM   17  C   UNL     1      25.368  45.561  51.816  1.00  0.00     0.053 A 
HETATM   18  C   UNL     1      25.612  46.937  51.738  1.00  0.00     0.148 A 
HETATM   19  N   UNL     1      25.059  47.800  50.842  1.00  0.00    -0.239 NA
HETATM   20  C   UNL     1      24.221  47.190  49.986  1.00  0.00     0.156 A 
HETATM   21  C   UNL     1      23.892  45.846  49.938  1.00  0.00     0.039 A 
HETATM   22  N   UNL     1      23.514  47.784  48.983  1.00  0.00    -0.260 N 
HETATM   23  C   UNL     1      24.482  44.996  50.889  1.00  0.00     0.048 A 
HETATM   24  C   UNL     1      22.990  45.739  48.847  1.00  0.00     0.065 A 
HETATM   25  N   UNL     1      22.759  46.926  48.265  1.00  0.00    -0.177 NA
HETATM   26  C   UNL     1      22.338  44.512  48.326  1.00  0.00     0.073 C 
HETATM   27  H   UNL     1      23.513  48.767  48.743  1.00  0.00     0.191 HD
ENDBRANCH   2  17
TORSDOF 5
ENDMDL
MODEL 2
REMARK VINA RESULT:      -8.5      2.291      2.963
REMARK  5 active torsions:
REMARK  status: ('A' for Active; 'I' for Inactive)
REMARK    1  A    between atoms: C_2  and  O_3 
REMARK    2  A    between atoms: O_3  and  C_4 
REMARK    3  A    between atoms: C_5  and  C_6 
REMARK    4  A    between atoms: C_6  and  C_9 
REMARK       I    between atoms: C_9  and  N_10 
REMARK    5  A    between atoms: N_10  and  C_11 
ROOT
HETATM    1  C   UNL     1      26.067  46.398  52.665  1.00  0.00     0.300 C 
HETATM    2  N   UNL     1      25.865  46.291  51.287  1.00  0.00    -0.320 N 
HETATM    3  O   UNL     1      26.261  47.458  53.256  1.00  0.00    -0.266 OA
HETATM    4  H   UNL     1      25.757  45.342  50.937  1.00  0.00     0.169 HD
ENDROOT
BRANCH   1   5
HETATM    5  C   UNL     1      26.006  45.004  53.369  1.00  0.00     0.352 C 
HETATM    6  F   UNL     1      25.140  44.197  52.652  1.00  0.00    -0.190 F 
HETATM    7  F   UNL     1      25.393  45.117  54.588  1.00  0.00    -0.190 F 
BRANCH   5   8
HETATM    8  C   UNL     1      27.381  44.367  53.438  1.00  0.00     0.056 A 
HETATM    9  C   UNL     1      28.269  44.629  54.489  1.00  0.00     0.081 A 
HETATM   10  C   UNL     1      29.513  43.991  54.547  1.00  0.00     0.037 A 
HETATM   11  C   UNL     1      29.903  43.122  53.530  1.00  0.00     0.003 A 
HETATM   12  C   UNL     1      29.048  42.879  52.459  1.00  0.00     0.001 A 
HETATM   13  C   UNL     1      27.796  43.494  52.414  1.00  0.00     0.017 A 
BRANCH   9  14
HETATM   14  O   UNL     1      27.882  45.443  55.517  1.00  0.00    -0.351 OA
BRANCH  14  15
HETATM   15  C   UNL     1      28.982  46.160  56.097  1.00  0.00     0.171 C 
HETATM   16  C   UNL     1      28.878  46.113  57.610  1.00  0.00     0.034 C 
ENDBRANCH  14  15
ENDBRANCH   9  14
ENDBRANCH   5   8
ENDBRANCH   1   5
BRANCH   2  17
HETATM   17  C   UNL     1      25.773  47.336  50.346  1.00  0.00     0.053 A 
HETATM   18  C   UNL     1      26.855  48.088  49.874  1.00  0.00     0.148 A 
HETATM   19  N   UNL     1      26.789  49.119  48.987  1.00  0.00    -0.239 NA
HETATM   20  C   UNL     1      25.533  49.366  48.575  1.00  0.00     0.156 A 
HETATM   21  C   UNL     1      24.376  48.704  48.945  1.00  0.00     0.039 A 
HETATM   22  N   UNL     1      25.145  50.335  47.697  1.00  0.00    -0.260 N 
HETATM   23  C   UNL     1      24.494  47.652  49.869  1.00  0.00     0.048 A 
HETATM   24  C   UNL     1      23.346  49.348  48.210  1.00  0.00     0.065 A 
HETATM   25  N   UNL     1      23.819  50.346  47.448  1.00  0.00    -0.177 NA
HETATM   26  C   UNL     1      21.897  49.025  48.205  1.00  0.00     0.073 C 
HETATM   27  H   UNL     1      25.743  51.010  47.237  1.00  0.00     0.191 HD
ENDBRANCH   2  17
TORSDOF 5
ENDMDL
MODEL 3
REMARK VINA RESULT:      -8.3      2.299      3.664
REMARK  5 active torsions:
REMARK  status: ('A' for Active; 'I' for Inactive)
REMARK    1  A    between atoms: C_2  and  O_3 
REMARK    2  A    between atoms: O_3  and  C_4 
REMARK    3  A    between atoms: C_5  and  C_6 
REMARK    4  A    between atoms: C_6  and  C_9 
REMARK       I    between atoms: C_9  and  N_10 
REMARK    5  A    between atoms: N_10  and  C_11 
ROOT
HETATM    1  C   UNL     1      26.053  46.487  52.670  1.00  0.00     0.300 C 
HETATM    2  N   UNL     1      25.816  46.357  51.299  1.00  0.00    -0.320 N 
HETATM    3  O   UNL     1      26.287  47.555  53.233  1.00  0.00    -0.266 OA
HETATM    4  H   UNL     1      25.677  45.404  50.972  1.00  0.00     0.169 HD
ENDROOT
BRANCH   1   5
HETATM    5  C   UNL     1      25.973  45.110  53.404  1.00  0.00     0.352 C 
HETATM    6  F   UNL     1      25.087  44.304  52.712  1.00  0.00    -0.190 F 
HETATM    7  F   UNL     1      25.371  45.260  54.625  1.00  0.00    -0.190 F 
BRANCH   5   8
HETATM    8  C   UNL     1      27.337  44.452  53.478  1.00  0.00     0.056 A 
HETATM    9  C   UNL     1      27.884  43.751  52.396  1.00  0.00     0.081 A 
HETATM   10  C   UNL     1      29.163  43.192  52.482  1.00  0.00     0.037 A 
HETATM   11  C   UNL     1      29.891  43.284  53.666  1.00  0.00     0.003 A 
HETATM   12  C   UNL     1      29.348  43.945  54.764  1.00  0.00     0.001 A 
HETATM   13  C   UNL     1      28.082  44.527  54.670  1.00  0.00     0.017 A 
BRANCH   9  14
HETATM   14  O   UNL     1      27.201  43.690  51.213  1.00  0.00    -0.351 OA
BRANCH  14  15
HETATM   15  C   UNL     1      27.223  42.379  50.630  1.00  0.00     0.171 C 
HETATM   16  C   UNL     1      25.809  41.833  50.553  1.00  0.00     0.034 C 
ENDBRANCH  14  15
ENDBRANCH   9  14
ENDBRANCH   5   8
ENDBRANCH   1   5
BRANCH   2  17
HETATM   17  C   UNL     1      25.729  47.384  50.338  1.00  0.00     0.053 A 
HETATM   18  C   UNL     1      26.816  48.113  49.842  1.00  0.00     0.148 A 
HETATM   19  N   UNL     1      26.754  49.128  48.936  1.00  0.00    -0.239 NA
HETATM   20  C   UNL     1      25.498  49.382  48.529  1.00  0.00     0.156 A 
HETATM   21  C   UNL     1      24.337  48.741  48.922  1.00  0.00     0.039 A 
HETATM   22  N   UNL     1      25.115  50.337  47.635  1.00  0.00    -0.260 N 
HETATM   23  C   UNL     1      24.450  47.706  49.865  1.00  0.00     0.048 A 
HETATM   24  C   UNL     1      23.308  49.383  48.182  1.00  0.00     0.065 A 
HETATM   25  N   UNL     1      23.787  50.360  47.396  1.00  0.00    -0.177 NA
HETATM   26  C   UNL     1      21.856  49.078  48.195  1.00  0.00     0.073 C 
HETATM   27  H   UNL     1      25.716  50.996  47.157  1.00  0.00     0.191 HD
ENDBRANCH   2  17
TORSDOF 5
ENDMDL
MODEL 4
REMARK VINA RESULT:      -8.1      2.744      4.106
REMARK  5 active torsions:
REMARK  status: ('A' for Active; 'I' for Inactive)
REMARK    1  A    between atoms: C_2  and  O_3 
REMARK    2  A    between atoms: O_3  and  C_4 
REMARK    3  A    between atoms: C_5  and  C_6 
REMARK    4  A    between atoms: C_6  and  C_9 
REMARK       I    between atoms: C_9  and  N_10 
REMARK    5  A    between atoms: N_10  and  C_11 
ROOT
HETATM    1  C   UNL     1      27.218  45.377  54.913  1.00  0.00     0.300 C 
HETATM    2  N   UNL     1      27.048  45.592  53.543  1.00  0.00    -0.320 N 
HETATM    3  O   UNL     1      26.632  44.507  55.555  1.00  0.00    -0.266 OA
HETATM    4  H   UNL     1      27.572  46.375  53.159  1.00  0.00     0.169 HD
ENDROOT
BRANCH   1   5
HETATM    5  C   UNL     1      28.253  46.371  55.531  1.00  0.00     0.352 C 
HETATM    6  F   UNL     1      27.569  47.250  56.353  1.00  0.00    -0.190 F 
HETATM    7  F   UNL     1      28.763  47.187  54.557  1.00  0.00    -0.190 F 
BRANCH   5   8
HETATM    8  C   UNL     1      29.315  45.632  56.321  1.00  0.00     0.056 A 
HETATM    9  C   UNL     1      30.044  44.569  55.773  1.00  0.00     0.081 A 
HETATM   10  C   UNL     1      31.049  43.937  56.514  1.00  0.00     0.037 A 
HETATM   11  C   UNL     1      31.303  44.327  57.826  1.00  0.00     0.003 A 
HETATM   12  C   UNL     1      30.564  45.358  58.399  1.00  0.00     0.001 A 
HETATM   13  C   UNL     1      29.580  46.007  57.652  1.00  0.00     0.017 A 
BRANCH   9  14
HETATM   14  O   UNL     1      29.836  44.204  54.472  1.00  0.00    -0.351 OA
BRANCH  14  15
HETATM   15  C   UNL     1      29.660  42.788  54.317  1.00  0.00     0.171 C 
HETATM   16  C   UNL     1      30.077  42.374  52.918  1.00  0.00     0.034 C 
ENDBRANCH  14  15
ENDBRANCH   9  14
ENDBRANCH   5   8
ENDBRANCH   1   5
BRANCH   2  17
HETATM   17  C   UNL     1      26.263  44.843  52.644  1.00  0.00     0.053 A 
HETATM   18  C   UNL     1      24.928  45.117  52.324  1.00  0.00     0.148 A 
HETATM   19  N   UNL     1      24.141  44.393  51.482  1.00  0.00    -0.239 NA
HETATM   20  C   UNL     1      24.785  43.341  50.948  1.00  0.00     0.156 A 
HETATM   21  C   UNL     1      26.097  42.955  51.163  1.00  0.00     0.039 A 
HETATM   22  N   UNL     1      24.265  42.431  50.077  1.00  0.00    -0.260 N 
HETATM   23  C   UNL     1      26.868  43.729  52.047  1.00  0.00     0.048 A 
HETATM   24  C   UNL     1      26.267  41.804  50.350  1.00  0.00     0.065 A 
HETATM   25  N   UNL     1      25.145  41.484  49.687  1.00  0.00    -0.177 NA
HETATM   26  C   UNL     1      27.496  40.991  50.175  1.00  0.00     0.073 C 
HETATM   27  H   UNL     1      23.321  42.410  49.714  1.00  0.00     0.191 HD
ENDBRANCH   2  17
TORSDOF 5
ENDMDL
MODEL 5
REMARK VINA RESULT:      -8.1      2.170      3.337
REMARK  5 active torsions:
REMARK  status: ('A' for Active; 'I' for Inactive)
REMARK    1  A    between atoms: C_2  and  O_3 
REMARK    2  A    between atoms: O_3  and  C_4 
REMARK    3  A    between atoms: C_5  and  C_6 
REMARK    4  A    between atoms: C_6  and  C_9 
REMARK       I    between atoms: C_9  and  N_10 
REMARK    5  A    between atoms: N_10  and  C_11 
ROOT
HETATM    1  C   UNL     1      27.351  45.566  54.913  1.00  0.00     0.300 C 
HETATM    2  N   UNL     1      27.057  46.164  53.685  1.00  0.00    -0.320 N 
HETATM    3  O   UNL     1      26.731  44.616  55.386  1.00  0.00    -0.266 OA
HETATM    4  H   UNL     1      27.634  46.967  53.445  1.00  0.00     0.169 HD
ENDROOT
BRANCH   1   5
HETATM    5  C   UNL     1      28.573  46.246  55.610  1.00  0.00     0.352 C 
HETATM    6  F   UNL     1      28.105  46.958  56.701  1.00  0.00    -0.190 F 
HETATM    7  F   UNL     1      29.095  47.221  54.802  1.00  0.00    -0.190 F 
BRANCH   5   8
HETATM    8  C   UNL     1      29.593  45.215  56.052  1.00  0.00     0.056 A 
HETATM    9  C   UNL     1      29.984  44.154  55.226  1.00  0.00     0.081 A 
HETATM   10  C   UNL     1      30.960  43.245  55.647  1.00  0.00     0.037 A 
HETATM   11  C   UNL     1      31.521  43.357  56.917  1.00  0.00     0.003 A 
HETATM   12  C   UNL     1      31.117  44.383  57.766  1.00  0.00     0.001 A 
HETATM   13  C   UNL     1      30.163  45.307  57.337  1.00  0.00     0.017 A 
BRANCH   9  14
HETATM   14  O   UNL     1      29.476  44.058  53.960  1.00  0.00    -0.351 OA
BRANCH  14  15
HETATM   15  C   UNL     1      29.590  42.734  53.419  1.00  0.00     0.171 C 
HETATM   16  C   UNL     1      28.246  42.034  53.499  1.00  0.00     0.034 C 
ENDBRANCH  14  15
ENDBRANCH   9  14
ENDBRANCH   5   8
ENDBRANCH   1   5
BRANCH   2  17
HETATM   17  C   UNL     1      26.082  45.771  52.747  1.00  0.00     0.053 A 
HETATM   18  C   UNL     1      25.497  44.502  52.680  1.00  0.00     0.148 A 
HETATM   19  N   UNL     1      24.575  44.090  51.767  1.00  0.00    -0.239 NA
HETATM   20  C   UNL     1      24.248  45.057  50.891  1.00  0.00     0.156 A 
HETATM   21  C   UNL     1      24.734  46.351  50.841  1.00  0.00     0.039 A 
HETATM   22  N   UNL     1      23.361  44.949  49.861  1.00  0.00    -0.260 N 
HETATM   23  C   UNL     1      25.690  46.727  51.799  1.00  0.00     0.048 A 
HETATM   24  C   UNL     1      24.052  46.946  49.746  1.00  0.00     0.065 A 
HETATM   25  N   UNL     1      23.213  46.086  49.148  1.00  0.00    -0.177 NA
HETATM   26  C   UNL     1      24.170  48.340  49.253  1.00  0.00     0.073 C 
HETATM   27  H   UNL     1      22.829  44.129  49.603  1.00  0.00     0.191 HD
ENDBRANCH   2  17
TORSDOF 5
ENDMDL
MODEL 6
REMARK VINA RESULT:      -7.9      4.034      5.929
REMARK  5 active torsions:
REMARK  status: ('A' for Active; 'I' for Inactive)
REMARK    1  A    between atoms: C_2  and  O_3 
REMARK    2  A    between atoms: O_3  and  C_4 
REMARK    3  A    between atoms: C_5  and  C_6 
REMARK    4  A    between atoms: C_6  and  C_9 
REMARK       I    between atoms: C_9  and  N_10 
REMARK    5  A    between atoms: N_10  and  C_11 
ROOT
HETATM    1  C   UNL     1      26.852  44.019  51.485  1.00  0.00     0.300 C 
HETATM    2  N   UNL     1      26.650  42.639  51.410  1.00  0.00    -0.320 N 
HETATM    3  O   UNL     1      27.573  44.656  50.719  1.00  0.00    -0.266 OA
HETATM    4  H   UNL     1      26.057  42.247  52.138  1.00  0.00     0.169 HD
ENDROOT
BRANCH   1   5
HETATM    5  C   UNL     1      26.039  44.660  52.655  1.00  0.00     0.352 C 
HETATM    6  F   UNL     1      25.285  43.665  53.251  1.00  0.00    -0.190 F 
HETATM    7  F   UNL     1      25.091  45.516  52.160  1.00  0.00    -0.190 F 
BRANCH   5   8
HETATM    8  C   UNL     1      26.961  45.302  53.673  1.00  0.00     0.056 A 
HETATM    9  C   UNL     1      27.891  44.556  54.409  1.00  0.00     0.081 A 
HETATM   10  C   UNL     1      28.758  45.185  55.309  1.00  0.00     0.037 A 
HETATM   11  C   UNL     1      28.673  46.560  55.520  1.00  0.00     0.003 A 
HETATM   12  C   UNL     1      27.730  47.311  54.825  1.00  0.00     0.001 A 
HETATM   13  C   UNL     1      26.883  46.688  53.907  1.00  0.00     0.017 A 
BRANCH   9  14
HETATM   14  O   UNL     1      28.017  43.214  54.180  1.00  0.00    -0.351 OA
BRANCH  14  15
HETATM   15  C   UNL     1      29.364  42.750  54.346  1.00  0.00     0.171 C 
HETATM   16  C   UNL     1      30.092  42.812  53.017  1.00  0.00     0.034 C 
ENDBRANCH  14  15
ENDBRANCH   9  14
ENDBRANCH   5   8
ENDBRANCH   1   5
BRANCH   2  17
HETATM   17  C   UNL     1      27.152  41.746  50.442  1.00  0.00     0.053 A 
HETATM   18  C   UNL     1      26.904  41.830  49.068  1.00  0.00     0.148 A 
HETATM   19  N   UNL     1      27.354  40.964  48.118  1.00  0.00    -0.239 NA
HETATM   20  C   UNL     1      28.102  39.973  48.633  1.00  0.00     0.156 A 
HETATM   21  C   UNL     1      28.436  39.770  49.960  1.00  0.00     0.039 A 
HETATM   22  N   UNL     1      28.685  38.955  47.940  1.00  0.00    -0.260 N 
HETATM   23  C   UNL     1      27.942  40.685  50.906  1.00  0.00     0.048 A 
HETATM   24  C   UNL     1      29.246  38.603  49.949  1.00  0.00     0.065 A 
HETATM   25  N   UNL     1      29.397  38.106  48.712  1.00  0.00    -0.177 NA
HETATM   26  C   UNL     1      29.903  37.944  51.105  1.00  0.00     0.073 C 
HETATM   27  H   UNL     1      28.634  38.794  46.942  1.00  0.00     0.191 HD
ENDBRANCH   2  17
TORSDOF 5
ENDMDL
MODEL 7
REMARK VINA RESULT:      -7.9      1.407      2.051
REMARK  5 active torsions:
REMARK  status: ('A' for Active; 'I' for Inactive)
REMARK    1  A    between atoms: C_2  and  O_3 
REMARK    2  A    between atoms: O_3  and  C_4 
REMARK    3  A    between atoms: C_5  and  C_6 
REMARK    4  A    between atoms: C_6  and  C_9 
REMARK       I    between atoms: C_9  and  N_10 
REMARK    5  A    between atoms: N_10  and  C_11 
ROOT
HETATM    1  C   UNL     1      27.523  43.181  52.681  1.00  0.00     0.300 C 
HETATM    2  N   UNL     1      26.136  43.078  52.553  1.00  0.00    -0.320 N 
HETATM    3  O   UNL     1      28.270  43.599  51.799  1.00  0.00    -0.266 OA
HETATM    4  H   UNL     1      25.655  42.676  53.355  1.00  0.00     0.169 HD
ENDROOT
BRANCH   1   5
HETATM    5  C   UNL     1      28.011  42.710  54.089  1.00  0.00     0.352 C 
HETATM    6  F   UNL     1      28.754  41.554  53.923  1.00  0.00    -0.190 F 
HETATM    7  F   UNL     1      26.946  42.291  54.842  1.00  0.00    -0.190 F 
BRANCH   5   8
HETATM    8  C   UNL     1      28.847  43.780  54.763  1.00  0.00     0.056 A 
HETATM    9  C   UNL     1      28.370  45.082  54.960  1.00  0.00     0.081 A 
HETATM   10  C   UNL     1      29.150  46.034  55.625  1.00  0.00     0.037 A 
HETATM   11  C   UNL     1      30.434  45.710  56.058  1.00  0.00     0.003 A 
HETATM   12  C   UNL     1      30.938  44.432  55.839  1.00  0.00     0.001 A 
HETATM   13  C   UNL     1      30.151  43.473  55.199  1.00  0.00     0.017 A 
BRANCH   9  14
HETATM   14  O   UNL     1      27.096  45.402  54.581  1.00  0.00    -0.351 OA
BRANCH  14  15
HETATM   15  C   UNL     1      27.036  46.614  53.815  1.00  0.00     0.171 C 
HETATM   16  C   UNL     1      25.939  47.508  54.362  1.00  0.00     0.034 C 
ENDBRANCH  14  15
ENDBRANCH   9  14
ENDBRANCH   5   8
ENDBRANCH   1   5
BRANCH   2  17
HETATM   17  C   UNL     1      25.338  43.482  51.464  1.00  0.00     0.053 A 
HETATM   18  C   UNL     1      24.713  42.614  50.562  1.00  0.00     0.148 A 
HETATM   19  N   UNL     1      23.963  42.980  49.486  1.00  0.00    -0.239 NA
HETATM   20  C   UNL     1      23.859  44.314  49.358  1.00  0.00     0.156 A 
HETATM   21  C   UNL     1      24.410  45.287  50.173  1.00  0.00     0.039 A 
HETATM   22  N   UNL     1      23.180  44.983  48.383  1.00  0.00    -0.260 N 
HETATM   23  C   UNL     1      25.184  44.861  51.266  1.00  0.00     0.048 A 
HETATM   24  C   UNL     1      23.981  46.515  49.603  1.00  0.00     0.065 A 
HETATM   25  N   UNL     1      23.229  46.326  48.507  1.00  0.00    -0.177 NA
HETATM   26  C   UNL     1      24.262  47.888  50.090  1.00  0.00     0.073 C 
HETATM   27  H   UNL     1      22.666  44.574  47.613  1.00  0.00     0.191 HD
ENDBRANCH   2  17
TORSDOF 5
ENDMDL
MODEL 8
REMARK VINA RESULT:      -7.7      1.872      3.000
REMARK  5 active torsions:
REMARK  status: ('A' for Active; 'I' for Inactive)
REMARK    1  A    between atoms: C_2  and  O_3 
REMARK    2  A    between atoms: O_3  and  C_4 
REMARK    3  A    between atoms: C_5  and  C_6 
REMARK    4  A    between atoms: C_6  and  C_9 
REMARK       I    between atoms: C_9  and  N_10 
REMARK    5  A    between atoms: N_10  and  C_11 
ROOT
HETATM    1  C   UNL     1      25.826  45.350  53.229  1.00  0.00     0.300 C 
HETATM    2  N   UNL     1      25.819  46.172  52.099  1.00  0.00    -0.320 N 
HETATM    3  O   UNL     1      24.966  44.507  53.476  1.00  0.00    -0.266 OA
HETATM    4  H   UNL     1      26.576  46.850  52.052  1.00  0.00     0.169 HD
ENDROOT
BRANCH   1   5
HETATM    5  C   UNL     1      27.067  45.625  54.137  1.00  0.00     0.352 C 
HETATM    6  F   UNL     1      26.655  45.574  55.457  1.00  0.00    -0.190 F 
HETATM    7  F   UNL     1      27.482  46.922  53.990  1.00  0.00    -0.190 F 
BRANCH   5   8
HETATM    8  C   UNL     1      28.162  44.606  53.888  1.00  0.00     0.056 A 
HETATM    9  C   UNL     1      29.203  44.396  54.801  1.00  0.00     0.081 A 
HETATM   10  C   UNL     1      30.174  43.417  54.561  1.00  0.00     0.037 A 
HETATM   11  C   UNL     1      30.143  42.672  53.385  1.00  0.00     0.003 A 
HETATM   12  C   UNL     1      29.137  42.894  52.450  1.00  0.00     0.001 A 
HETATM   13  C   UNL     1      28.152  43.851  52.700  1.00  0.00     0.017 A 
BRANCH   9  14
HETATM   14  O   UNL     1      29.222  45.088  55.980  1.00  0.00    -0.351 OA
BRANCH  14  15
HETATM   15  C   UNL     1      30.544  45.223  56.520  1.00  0.00     0.171 C 
HETATM   16  C   UNL     1      30.460  45.474  58.014  1.00  0.00     0.034 C 
ENDBRANCH  14  15
ENDBRANCH   9  14
ENDBRANCH   5   8
ENDBRANCH   1   5
BRANCH   2  17
HETATM   17  C   UNL     1      24.907  46.153  51.025  1.00  0.00     0.053 A 
HETATM   18  C   UNL     1      24.300  45.004  50.507  1.00  0.00     0.148 A 
HETATM   19  N   UNL     1      23.439  44.957  49.453  1.00  0.00    -0.239 NA
HETATM   20  C   UNL     1      23.200  46.171  48.927  1.00  0.00     0.156 A 
HETATM   21  C   UNL     1      23.717  47.387  49.338  1.00  0.00     0.039 A 
HETATM   22  N   UNL     1      22.390  46.447  47.866  1.00  0.00    -0.260 N 
HETATM   23  C   UNL     1      24.608  47.384  50.424  1.00  0.00     0.048 A 
HETATM   24  C   UNL     1      23.131  48.338  48.460  1.00  0.00     0.065 A 
HETATM   25  N   UNL     1      22.320  47.760  47.560  1.00  0.00    -0.177 NA
HETATM   26  C   UNL     1      23.317  49.810  48.463  1.00  0.00     0.073 C 
HETATM   27  H   UNL     1      21.860  45.782  47.319  1.00  0.00     0.191 HD
ENDBRANCH   2  17
TORSDOF 5
ENDMDL
MODEL 9
REMARK VINA RESULT:      -7.7      3.265      4.373
REMARK  5 active torsions:
REMARK  status: ('A' for Active; 'I' for Inactive)
REMARK    1  A    between atoms: C_2  and  O_3 
REMARK    2  A    between atoms: O_3  and  C_4 
REMARK    3  A    between atoms: C_5  and  C_6 
REMARK    4  A    between atoms: C_6  and  C_9 
REMARK       I    between atoms: C_9  and  N_10 
REMARK    5  A    between atoms: N_10  and  C_11 
ROOT
HETATM    1  C   UNL     1      26.558  44.383  52.736  1.00  0.00     0.300 C 
HETATM    2  N   UNL     1      25.908  43.221  52.314  1.00  0.00    -0.320 N 
HETATM    3  O   UNL     1      27.032  45.225  51.976  1.00  0.00    -0.266 OA
HETATM    4  H   UNL     1      25.604  42.599  53.061  1.00  0.00     0.169 HD
ENDROOT
BRANCH   1   5
HETATM    5  C   UNL     1      26.600  44.490  54.294  1.00  0.00     0.352 C 
HETATM    6  F   UNL     1      25.869  43.439  54.818  1.00  0.00    -0.190 F 
HETATM    7  F   UNL     1      25.903  45.593  54.711  1.00  0.00    -0.190 F 
BRANCH   5   8
HETATM    8  C   UNL     1      28.026  44.446  54.807  1.00  0.00     0.056 A 
HETATM    9  C   UNL     1      28.853  43.333  54.608  1.00  0.00     0.081 A 
HETATM   10  C   UNL     1      30.179  43.342  55.055  1.00  0.00     0.037 A 
HETATM   11  C   UNL     1      30.678  44.442  55.749  1.00  0.00     0.003 A 
HETATM   12  C   UNL     1      29.859  45.542  55.987  1.00  0.00     0.001 A 
HETATM   13  C   UNL     1      28.544  45.545  55.518  1.00  0.00     0.017 A 
BRANCH   9  14
HETATM   14  O   UNL     1      28.392  42.265  53.891  1.00  0.00    -0.351 OA
BRANCH  14  15
HETATM   15  C   UNL     1      29.299  41.863  52.854  1.00  0.00     0.171 C 
HETATM   16  C   UNL     1      28.935  40.471  52.371  1.00  0.00     0.034 C 
ENDBRANCH  14  15
ENDBRANCH   9  14
ENDBRANCH   5   8
ENDBRANCH   1   5
BRANCH   2  17
HETATM   17  C   UNL     1      25.613  42.829  50.993  1.00  0.00     0.053 A 
HETATM   18  C   UNL     1      24.384  43.023  50.354  1.00  0.00     0.148 A 
HETATM   19  N   UNL     1      24.066  42.629  49.090  1.00  0.00    -0.239 NA
HETATM   20  C   UNL     1      25.086  42.011  48.469  1.00  0.00     0.156 A 
HETATM   21  C   UNL     1      26.352  41.759  48.969  1.00  0.00     0.039 A 
HETATM   22  N   UNL     1      25.074  41.501  47.205  1.00  0.00    -0.260 N 
HETATM   23  C   UNL     1      26.630  42.178  50.281  1.00  0.00     0.048 A 
HETATM   24  C   UNL     1      27.031  41.106  47.907  1.00  0.00     0.065 A 
HETATM   25  N   UNL     1      26.247  40.948  46.829  1.00  0.00    -0.177 NA
HETATM   26  C   UNL     1      28.436  40.629  47.886  1.00  0.00     0.073 C 
HETATM   27  H   UNL     1      24.298  41.506  46.557  1.00  0.00     0.191 HD
ENDBRANCH   2  17
TORSDOF 5
ENDMDL
MODEL 10
REMARK VINA RESULT:      -7.6      1.968      3.582
REMARK  5 active torsions:
REMARK  status: ('A' for Active; 'I' for Inactive)
REMARK    1  A    between atoms: C_2  and  O_3 
REMARK    2  A    between atoms: O_3  and  C_4 
REMARK    3  A    between atoms: C_5  and  C_6 
REMARK    4  A    between atoms: C_6  and  C_9 
REMARK       I    between atoms: C_9  and  N_10 
REMARK    5  A    between atoms: N_10  and  C_11 
ROOT
HETATM    1  C   UNL     1      25.253  44.907  51.816  1.00  0.00     0.300 C 
HETATM    2  N   UNL     1      25.389  45.695  50.670  1.00  0.00    -0.320 N 
HETATM    3  O   UNL     1      24.175  44.603  52.322  1.00  0.00    -0.266 OA
HETATM    4  H   UNL     1      26.348  45.895  50.393  1.00  0.00     0.169 HD
ENDROOT
BRANCH   1   5
HETATM    5  C   UNL     1      26.639  44.449  52.372  1.00  0.00     0.352 C 
HETATM    6  F   UNL     1      27.564  44.532  51.346  1.00  0.00    -0.190 F 
HETATM    7  F   UNL     1      26.614  43.111  52.662  1.00  0.00    -0.190 F 
BRANCH   5   8
HETATM    8  C   UNL     1      27.071  45.314  53.540  1.00  0.00     0.056 A 
HETATM    9  C   UNL     1      27.878  44.820  54.573  1.00  0.00     0.081 A 
HETATM   10  C   UNL     1      28.295  45.656  55.614  1.00  0.00     0.037 A 
HETATM   11  C   UNL     1      27.871  46.982  55.661  1.00  0.00     0.003 A 
HETATM   12  C   UNL     1      27.039  47.480  54.663  1.00  0.00     0.001 A 
HETATM   13  C   UNL     1      26.644  46.654  53.609  1.00  0.00     0.017 A 
BRANCH   9  14
HETATM   14  O   UNL     1      28.339  43.534  54.517  1.00  0.00    -0.351 OA
BRANCH  14  15
HETATM   15  C   UNL     1      29.768  43.464  54.411  1.00  0.00     0.171 C 
HETATM   16  C   UNL     1      30.150  42.846  53.079  1.00  0.00     0.034 C 
ENDBRANCH  14  15
ENDBRANCH   9  14
ENDBRANCH   5   8
ENDBRANCH   1   5
BRANCH   2  17
HETATM   17  C   UNL     1      24.364  46.217  49.856  1.00  0.00     0.053 A 
HETATM   18  C   UNL     1      23.477  45.450  49.093  1.00  0.00     0.148 A 
HETATM   19  N   UNL     1      22.498  45.931  48.277  1.00  0.00    -0.239 NA
HETATM   20  C   UNL     1      22.445  47.275  48.271  1.00  0.00     0.156 A 
HETATM   21  C   UNL     1      23.245  48.156  48.976  1.00  0.00     0.039 A 
HETATM   22  N   UNL     1      21.581  48.047  47.553  1.00  0.00    -0.260 N 
HETATM   23  C   UNL     1      24.247  47.612  49.798  1.00  0.00     0.048 A 
HETATM   24  C   UNL     1      22.759  49.442  48.622  1.00  0.00     0.065 A 
HETATM   25  N   UNL     1      21.741  49.373  47.750  1.00  0.00    -0.177 NA
HETATM   26  C   UNL     1      23.238  50.759  49.108  1.00  0.00     0.073 C 
HETATM   27  H   UNL     1      20.862  47.723  46.919  1.00  0.00     0.191 HD
ENDBRANCH   2  17
TORSDOF 5
ENDMDL
