MODEL 1
REMARK VINA RESULT:     -10.1      0.000      0.000
REMARK  5 active torsions:
REMARK  status: ('A' for Active; 'I' for Inactive)
REMARK    1  A    between atoms: C_4  and  C_5 
REMARK    2  A    between atoms: C_5  and  C_6 
REMARK    3  A    between atoms: C_10  and  C_11 
REMARK       I    between atoms: C_11  and  N_12 
REMARK    4  A    between atoms: N_12  and  N_13 
REMARK    5  A    between atoms: N_13  and  C_14 
ROOT
HETATM    1  C   UNL     1      28.236  43.624  53.846  1.00  0.00     0.033 A 
HETATM    2  C   UNL     1      27.158  42.951  54.393  1.00  0.00     0.104 A 
HETATM    3  N   UNL     1      26.013  43.405  53.794  1.00  0.00    -0.360 N 
HETATM    4  H   UNL     1      25.071  43.086  53.988  1.00  0.00     0.165 HD
HETATM    5  C   UNL     1      26.310  44.375  52.862  1.00  0.00     0.102 A 
HETATM    6  C   UNL     1      27.684  44.546  52.904  1.00  0.00     0.052 A 
ENDROOT
BRANCH   5   7
HETATM    7  C   UNL     1      25.278  44.994  52.061  1.00  0.00     0.282 C 
HETATM    8  N   UNL     1      25.596  46.224  51.518  1.00  0.00    -0.280 N 
HETATM    9  H   UNL     1      26.321  46.808  51.933  1.00  0.00     0.184 HD
HETATM   10  O   UNL     1      24.182  44.463  51.872  1.00  0.00    -0.265 OA
BRANCH   8  11
HETATM   11  N   UNL     1      24.547  46.946  50.889  1.00  0.00    -0.186 NA
HETATM   12  H   UNL     1      23.958  47.399  51.594  1.00  0.00     0.154 HD
BRANCH  11  13
HETATM   13  C   UNL     1      25.051  47.906  49.976  1.00  0.00     0.122 A 
HETATM   14  N   UNL     1      24.204  48.788  49.398  1.00  0.00    -0.223 NA
HETATM   15  C   UNL     1      24.747  49.709  48.576  1.00  0.00     0.128 A 
HETATM   16 CL   UNL     1      23.613  50.783  47.866  1.00  0.00    -0.062 Cl
HETATM   17  C   UNL     1      26.097  49.823  48.299  1.00  0.00     0.044 A 
HETATM   18  C   UNL     1      26.958  48.923  48.913  1.00  0.00     0.007 A 
HETATM   19  C   UNL     1      26.430  47.956  49.765  1.00  0.00     0.046 A 
ENDBRANCH  11  13
ENDBRANCH   8  11
ENDBRANCH   5   7
BRANCH   1  20
HETATM   20  C   UNL     1      29.653  43.481  54.179  1.00  0.00     0.193 C 
HETATM   21  O   UNL     1      30.439  42.932  53.410  1.00  0.00    -0.287 OA
BRANCH  20  22
HETATM   22  C   UNL     1      30.170  43.993  55.476  1.00  0.00     0.015 A 
HETATM   23  C   UNL     1      31.078  43.203  56.192  1.00  0.00     0.015 A 
HETATM   24  C   UNL     1      31.558  43.633  57.431  1.00  0.00     0.001 A 
HETATM   25  C   UNL     1      31.121  44.847  57.963  1.00  0.00     0.000 A 
HETATM   26  C   UNL     1      30.201  45.628  57.265  1.00  0.00     0.001 A 
HETATM   27  C   UNL     1      29.719  45.200  56.026  1.00  0.00     0.015 A 
ENDBRANCH  20  22
ENDBRANCH   1  20
TORSDOF 5
ENDMDL
MODEL 2
REMARK VINA RESULT:      -9.3      1.672      2.278
REMARK  5 active torsions:
REMARK  status: ('A' for Active; 'I' for Inactive)
REMARK    1  A    between atoms: C_4  and  C_5 
REMARK    2  A    between atoms: C_5  and  C_6 
REMARK    3  A    between atoms: C_10  and  C_11 
REMARK       I    between atoms: C_11  and  N_12 
REMARK    4  A    between atoms: N_12  and  N_13 
REMARK    5  A    between atoms: N_13  and  C_14 
ROOT
HETATM    1  C   UNL     1      27.213  45.352  54.410  1.00  0.00     0.033 A 
HETATM    2  C   UNL     1      26.516  44.182  54.651  1.00  0.00     0.104 A 
HETATM    3  N   UNL     1      25.544  44.050  53.696  1.00  0.00    -0.360 N 
HETATM    4  H   UNL     1      24.885  43.284  53.617  1.00  0.00     0.165 HD
HETATM    5  C   UNL     1      25.578  45.117  52.825  1.00  0.00     0.102 A 
HETATM    6  C   UNL     1      26.589  45.952  53.272  1.00  0.00     0.052 A 
ENDROOT
BRANCH   5   7
HETATM    7  C   UNL     1      24.675  45.202  51.699  1.00  0.00     0.282 C 
HETATM    8  N   UNL     1      24.761  46.357  50.947  1.00  0.00    -0.280 N 
HETATM    9  H   UNL     1      25.141  47.215  51.345  1.00  0.00     0.184 HD
HETATM   10  O   UNL     1      23.877  44.303  51.424  1.00  0.00    -0.265 OA
BRANCH   8  11
HETATM   11  N   UNL     1      23.766  46.559  49.954  1.00  0.00    -0.186 NA
HETATM   12  H   UNL     1      22.832  46.478  50.368  1.00  0.00     0.154 HD
BRANCH  11  13
HETATM   13  C   UNL     1      23.914  47.817  49.316  1.00  0.00     0.122 A 
HETATM   14  N   UNL     1      25.145  48.367  49.200  1.00  0.00    -0.223 NA
HETATM   15  C   UNL     1      25.231  49.540  48.541  1.00  0.00     0.128 A 
HETATM   16 CL   UNL     1      26.818  50.186  48.446  1.00  0.00    -0.062 Cl
HETATM   17  C   UNL     1      24.162  50.205  47.969  1.00  0.00     0.044 A 
HETATM   18  C   UNL     1      22.907  49.621  48.080  1.00  0.00     0.007 A 
HETATM   19  C   UNL     1      22.782  48.411  48.757  1.00  0.00     0.046 A 
ENDBRANCH  11  13
ENDBRANCH   8  11
ENDBRANCH   5   7
BRANCH   1  20
HETATM   20  C   UNL     1      28.329  45.912  55.171  1.00  0.00     0.193 C 
HETATM   21  O   UNL     1      28.426  47.121  55.370  1.00  0.00    -0.287 OA
BRANCH  20  22
HETATM   22  C   UNL     1      29.385  45.017  55.715  1.00  0.00     0.015 A 
HETATM   23  C   UNL     1      29.969  45.343  56.946  1.00  0.00     0.015 A 
HETATM   24  C   UNL     1      30.988  44.546  57.471  1.00  0.00     0.001 A 
HETATM   25  C   UNL     1      31.437  43.432  56.762  1.00  0.00     0.000 A 
HETATM   26  C   UNL     1      30.875  43.115  55.526  1.00  0.00     0.001 A 
HETATM   27  C   UNL     1      29.855  43.909  54.998  1.00  0.00     0.015 A 
ENDBRANCH  20  22
ENDBRANCH   1  20
TORSDOF 5
ENDMDL
MODEL 3
REMARK VINA RESULT:      -8.9      2.122      2.829
REMARK  5 active torsions:
REMARK  status: ('A' for Active; 'I' for Inactive)
REMARK    1  A    between atoms: C_4  and  C_5 
REMARK    2  A    between atoms: C_5  and  C_6 
REMARK    3  A    between atoms: C_10  and  C_11 
REMARK       I    between atoms: C_11  and  N_12 
REMARK    4  A    between atoms: N_12  and  N_13 
REMARK    5  A    between atoms: N_13  and  C_14 
ROOT
HETATM    1  C   UNL     1      26.556  45.663  53.824  1.00  0.00     0.033 A 
HETATM    2  C   UNL     1      25.624  44.644  53.904  1.00  0.00     0.104 A 
HETATM    3  N   UNL     1      24.861  44.663  52.767  1.00  0.00    -0.360 N 
HETATM    4  H   UNL     1      24.105  44.026  52.545  1.00  0.00     0.165 HD
HETATM    5  C   UNL     1      25.265  45.684  51.935  1.00  0.00     0.102 A 
HETATM    6  C   UNL     1      26.297  46.335  52.590  1.00  0.00     0.052 A 
ENDROOT
BRANCH   5   7
HETATM    7  C   UNL     1      24.642  45.900  50.647  1.00  0.00     0.282 C 
HETATM    8  N   UNL     1      23.894  47.056  50.529  1.00  0.00    -0.280 N 
HETATM    9  H   UNL     1      23.509  47.517  51.352  1.00  0.00     0.184 HD
HETATM   10  O   UNL     1      24.766  45.106  49.713  1.00  0.00    -0.265 OA
BRANCH   8  11
HETATM   11  N   UNL     1      23.116  47.206  49.351  1.00  0.00    -0.186 NA
HETATM   12  H   UNL     1      22.193  46.779  49.481  1.00  0.00     0.154 HD
BRANCH  11  13
HETATM   13  C   UNL     1      22.981  48.570  48.987  1.00  0.00     0.122 A 
HETATM   14  N   UNL     1      21.852  49.240  49.310  1.00  0.00    -0.223 NA
HETATM   15  C   UNL     1      21.800  50.547  48.981  1.00  0.00     0.128 A 
HETATM   16 CL   UNL     1      20.333  51.328  49.406  1.00  0.00    -0.062 Cl
HETATM   17  C   UNL     1      22.818  51.245  48.357  1.00  0.00     0.044 A 
HETATM   18  C   UNL     1      23.980  50.550  48.048  1.00  0.00     0.007 A 
HETATM   19  C   UNL     1      24.065  49.198  48.369  1.00  0.00     0.046 A 
ENDBRANCH  11  13
ENDBRANCH   8  11
ENDBRANCH   5   7
BRANCH   1  20
HETATM   20  C   UNL     1      27.575  46.033  54.806  1.00  0.00     0.193 C 
HETATM   21  O   UNL     1      27.523  47.102  55.411  1.00  0.00    -0.287 OA
BRANCH  20  22
HETATM   22  C   UNL     1      28.712  45.116  55.084  1.00  0.00     0.015 A 
HETATM   23  C   UNL     1      29.618  45.462  56.094  1.00  0.00     0.015 A 
HETATM   24  C   UNL     1      30.718  44.644  56.360  1.00  0.00     0.001 A 
HETATM   25  C   UNL     1      30.923  43.486  55.609  1.00  0.00     0.000 A 
HETATM   26  C   UNL     1      30.036  43.148  54.588  1.00  0.00     0.001 A 
HETATM   27  C   UNL     1      28.935  43.963  54.319  1.00  0.00     0.015 A 
ENDBRANCH  20  22
ENDBRANCH   1  20
TORSDOF 5
ENDMDL
MODEL 4
REMARK VINA RESULT:      -8.9      2.828      4.301
REMARK  5 active torsions:
REMARK  status: ('A' for Active; 'I' for Inactive)
REMARK    1  A    between atoms: C_4  and  C_5 
REMARK    2  A    between atoms: C_5  and  C_6 
REMARK    3  A    between atoms: C_10  and  C_11 
REMARK       I    between atoms: C_11  and  N_12 
REMARK    4  A    between atoms: N_12  and  N_13 
REMARK    5  A    between atoms: N_13  and  C_14 
ROOT
HETATM    1  C   UNL     1      25.255  44.937  52.685  1.00  0.00     0.033 A 
HETATM    2  C   UNL     1      24.712  44.304  51.581  1.00  0.00     0.104 A 
HETATM    3  N   UNL     1      24.463  45.245  50.619  1.00  0.00    -0.360 N 
HETATM    4  H   UNL     1      24.073  45.070  49.700  1.00  0.00     0.165 HD
HETATM    5  C   UNL     1      24.825  46.497  51.066  1.00  0.00     0.102 A 
HETATM    6  C   UNL     1      25.290  46.328  52.360  1.00  0.00     0.052 A 
ENDROOT
BRANCH   5   7
HETATM    7  C   UNL     1      24.697  47.666  50.224  1.00  0.00     0.282 C 
HETATM    8  N   UNL     1      23.412  47.979  49.824  1.00  0.00    -0.280 N 
HETATM    9  H   UNL     1      22.681  47.269  49.804  1.00  0.00     0.184 HD
HETATM   10  O   UNL     1      25.668  48.342  49.880  1.00  0.00    -0.265 OA
BRANCH   8  11
HETATM   11  N   UNL     1      23.268  49.000  48.848  1.00  0.00    -0.186 NA
HETATM   12  H   UNL     1      23.440  48.619  47.912  1.00  0.00     0.154 HD
BRANCH  11  13
HETATM   13  C   UNL     1      21.985  49.601  48.908  1.00  0.00     0.122 A 
HETATM   14  N   UNL     1      20.946  48.908  49.427  1.00  0.00    -0.223 NA
HETATM   15  C   UNL     1      19.761  49.547  49.503  1.00  0.00     0.128 A 
HETATM   16 CL   UNL     1      18.486  48.604  50.156  1.00  0.00    -0.062 Cl
HETATM   17  C   UNL     1      19.542  50.854  49.106  1.00  0.00     0.044 A 
HETATM   18  C   UNL     1      20.621  51.560  48.592  1.00  0.00     0.007 A 
HETATM   19  C   UNL     1      21.858  50.928  48.495  1.00  0.00     0.046 A 
ENDBRANCH  11  13
ENDBRANCH   8  11
ENDBRANCH   5   7
BRANCH   1  20
HETATM   20  C   UNL     1      25.670  44.341  53.955  1.00  0.00     0.193 C 
HETATM   21  O   UNL     1      24.847  44.001  54.802  1.00  0.00    -0.287 OA
BRANCH  20  22
HETATM   22  C   UNL     1      27.114  44.146  54.251  1.00  0.00     0.015 A 
HETATM   23  C   UNL     1      27.701  42.914  53.933  1.00  0.00     0.015 A 
HETATM   24  C   UNL     1      29.045  42.681  54.228  1.00  0.00     0.001 A 
HETATM   25  C   UNL     1      29.803  43.671  54.854  1.00  0.00     0.000 A 
HETATM   26  C   UNL     1      29.219  44.891  55.193  1.00  0.00     0.001 A 
HETATM   27  C   UNL     1      27.875  45.128  54.899  1.00  0.00     0.015 A 
ENDBRANCH  20  22
ENDBRANCH   1  20
TORSDOF 5
ENDMDL
MODEL 5
REMARK VINA RESULT:      -8.9      3.791      6.111
REMARK  5 active torsions:
REMARK  status: ('A' for Active; 'I' for Inactive)
REMARK    1  A    between atoms: C_4  and  C_5 
REMARK    2  A    between atoms: C_5  and  C_6 
REMARK    3  A    between atoms: C_10  and  C_11 
REMARK       I    between atoms: C_11  and  N_12 
REMARK    4  A    between atoms: N_12  and  N_13 
REMARK    5  A    between atoms: N_13  and  C_14 
ROOT
HETATM    1  C   UNL     1      25.442  47.109  50.525  1.00  0.00     0.033 A 
HETATM    2  C   UNL     1      26.505  47.736  49.901  1.00  0.00     0.104 A 
HETATM    3  N   UNL     1      26.013  48.733  49.101  1.00  0.00    -0.360 N 
HETATM    4  H   UNL     1      26.562  49.365  48.530  1.00  0.00     0.165 HD
HETATM    5  C   UNL     1      24.639  48.776  49.176  1.00  0.00     0.102 A 
HETATM    6  C   UNL     1      24.265  47.753  50.033  1.00  0.00     0.052 A 
ENDROOT
BRANCH   5   7
HETATM    7  C   UNL     1      23.873  49.766  48.452  1.00  0.00     0.282 C 
HETATM    8  N   UNL     1      22.807  50.317  49.136  1.00  0.00    -0.280 N 
HETATM    9  H   UNL     1      22.373  49.824  49.915  1.00  0.00     0.184 HD
HETATM   10  O   UNL     1      24.149  50.099  47.298  1.00  0.00    -0.265 OA
BRANCH   8  11
HETATM   11  N   UNL     1      21.922  51.147  48.397  1.00  0.00    -0.186 NA
HETATM   12  H   UNL     1      21.933  50.880  47.407  1.00  0.00     0.154 HD
BRANCH  11  13
HETATM   13  C   UNL     1      20.602  51.088  48.909  1.00  0.00     0.122 A 
HETATM   14  N   UNL     1      20.254  50.084  49.747  1.00  0.00    -0.223 NA
HETATM   15  C   UNL     1      19.000  50.106  50.242  1.00  0.00     0.128 A 
HETATM   16 CL   UNL     1      18.624  48.796  51.283  1.00  0.00    -0.062 Cl
HETATM   17  C   UNL     1      18.060  51.083  49.967  1.00  0.00     0.044 A 
HETATM   18  C   UNL     1      18.436  52.117  49.120  1.00  0.00     0.007 A 
HETATM   19  C   UNL     1      19.722  52.123  48.588  1.00  0.00     0.046 A 
ENDBRANCH  11  13
ENDBRANCH   8  11
ENDBRANCH   5   7
BRANCH   1  20
HETATM   20  C   UNL     1      25.479  45.985  51.459  1.00  0.00     0.193 C 
HETATM   21  O   UNL     1      24.792  44.981  51.281  1.00  0.00    -0.287 OA
BRANCH  20  22
HETATM   22  C   UNL     1      26.350  46.043  52.663  1.00  0.00     0.015 A 
HETATM   23  C   UNL     1      27.101  44.910  53.001  1.00  0.00     0.015 A 
HETATM   24  C   UNL     1      27.903  44.914  54.144  1.00  0.00     0.001 A 
HETATM   25  C   UNL     1      27.946  46.046  54.959  1.00  0.00     0.000 A 
HETATM   26  C   UNL     1      27.185  47.169  54.640  1.00  0.00     0.001 A 
HETATM   27  C   UNL     1      26.381  47.168  53.498  1.00  0.00     0.015 A 
ENDBRANCH  20  22
ENDBRANCH   1  20
TORSDOF 5
ENDMDL
MODEL 6
REMARK VINA RESULT:      -8.8      1.765      2.628
REMARK  5 active torsions:
REMARK  status: ('A' for Active; 'I' for Inactive)
REMARK    1  A    between atoms: C_4  and  C_5 
REMARK    2  A    between atoms: C_5  and  C_6 
REMARK    3  A    between atoms: C_10  and  C_11 
REMARK       I    between atoms: C_11  and  N_12 
REMARK    4  A    between atoms: N_12  and  N_13 
REMARK    5  A    between atoms: N_13  and  C_14 
ROOT
HETATM    1  C   UNL     1      27.227  43.478  52.391  1.00  0.00     0.033 A 
HETATM    2  C   UNL     1      27.748  44.029  51.234  1.00  0.00     0.104 A 
HETATM    3  N   UNL     1      26.719  44.563  50.505  1.00  0.00    -0.360 N 
HETATM    4  H   UNL     1      26.804  45.041  49.616  1.00  0.00     0.165 HD
HETATM    5  C   UNL     1      25.520  44.370  51.154  1.00  0.00     0.102 A 
HETATM    6  C   UNL     1      25.813  43.669  52.313  1.00  0.00     0.052 A 
ENDROOT
BRANCH   5   7
HETATM    7  C   UNL     1      24.278  44.873  50.610  1.00  0.00     0.282 C 
HETATM    8  N   UNL     1      24.360  46.081  49.945  1.00  0.00    -0.280 N 
HETATM    9  H   UNL     1      25.121  46.732  50.134  1.00  0.00     0.184 HD
HETATM   10  O   UNL     1      23.211  44.268  50.731  1.00  0.00    -0.265 OA
BRANCH   8  11
HETATM   11  N   UNL     1      23.138  46.697  49.566  1.00  0.00    -0.186 NA
HETATM   12  H   UNL     1      22.489  46.711  50.359  1.00  0.00     0.154 HD
BRANCH  11  13
HETATM   13  C   UNL     1      23.347  48.012  49.077  1.00  0.00     0.122 A 
HETATM   14  N   UNL     1      24.608  48.458  48.876  1.00  0.00    -0.223 NA
HETATM   15  C   UNL     1      24.744  49.697  48.364  1.00  0.00     0.128 A 
HETATM   16 CL   UNL     1      26.369  50.204  48.152  1.00  0.00    -0.062 Cl
HETATM   17  C   UNL     1      23.694  50.529  48.018  1.00  0.00     0.044 A 
HETATM   18  C   UNL     1      22.405  50.052  48.211  1.00  0.00     0.007 A 
HETATM   19  C   UNL     1      22.228  48.777  48.743  1.00  0.00     0.046 A 
ENDBRANCH  11  13
ENDBRANCH   8  11
ENDBRANCH   5   7
BRANCH   1  20
HETATM   20  C   UNL     1      27.942  42.789  53.465  1.00  0.00     0.193 C 
HETATM   21  O   UNL     1      27.851  41.573  53.618  1.00  0.00    -0.287 OA
BRANCH  20  22
HETATM   22  C   UNL     1      28.792  43.562  54.410  1.00  0.00     0.015 A 
HETATM   23  C   UNL     1      28.369  44.839  54.798  1.00  0.00     0.015 A 
HETATM   24  C   UNL     1      29.158  45.609  55.655  1.00  0.00     0.001 A 
HETATM   25  C   UNL     1      30.377  45.111  56.115  1.00  0.00     0.000 A 
HETATM   26  C   UNL     1      30.813  43.848  55.715  1.00  0.00     0.001 A 
HETATM   27  C   UNL     1      30.027  43.076  54.858  1.00  0.00     0.015 A 
ENDBRANCH  20  22
ENDBRANCH   1  20
TORSDOF 5
ENDMDL
MODEL 7
REMARK VINA RESULT:      -8.7      4.692      5.872
REMARK  5 active torsions:
REMARK  status: ('A' for Active; 'I' for Inactive)
REMARK    1  A    between atoms: C_4  and  C_5 
REMARK    2  A    between atoms: C_5  and  C_6 
REMARK    3  A    between atoms: C_10  and  C_11 
REMARK       I    between atoms: C_11  and  N_12 
REMARK    4  A    between atoms: N_12  and  N_13 
REMARK    5  A    between atoms: N_13  and  C_14 
ROOT
HETATM    1  C   UNL     1      27.568  44.795  54.212  1.00  0.00     0.033 A 
HETATM    2  C   UNL     1      26.460  44.099  54.664  1.00  0.00     0.104 A 
HETATM    3  N   UNL     1      25.910  43.426  53.606  1.00  0.00    -0.360 N 
HETATM    4  H   UNL     1      25.094  42.826  53.641  1.00  0.00     0.165 HD
HETATM    5  C   UNL     1      26.628  43.668  52.456  1.00  0.00     0.102 A 
HETATM    6  C   UNL     1      27.644  44.541  52.808  1.00  0.00     0.052 A 
ENDROOT
BRANCH   5   7
HETATM    7  C   UNL     1      26.274  43.044  51.200  1.00  0.00     0.282 C 
HETATM    8  N   UNL     1      27.295  42.936  50.275  1.00  0.00    -0.280 N 
HETATM    9  H   UNL     1      28.104  43.554  50.314  1.00  0.00     0.184 HD
HETATM   10  O   UNL     1      25.136  42.634  50.964  1.00  0.00    -0.265 OA
BRANCH   8  11
HETATM   11  N   UNL     1      26.943  42.505  48.969  1.00  0.00    -0.186 NA
HETATM   12  H   UNL     1      27.207  43.218  48.280  1.00  0.00     0.154 HD
BRANCH  11  13
HETATM   13  C   UNL     1      27.547  41.263  48.649  1.00  0.00     0.122 A 
HETATM   14  N   UNL     1      28.160  40.548  49.620  1.00  0.00    -0.223 NA
HETATM   15  C   UNL     1      28.673  39.352  49.267  1.00  0.00     0.128 A 
HETATM   16 CL   UNL     1      29.448  38.508  50.544  1.00  0.00    -0.062 Cl
HETATM   17  C   UNL     1      28.604  38.806  47.998  1.00  0.00     0.044 A 
HETATM   18  C   UNL     1      27.957  39.542  47.015  1.00  0.00     0.007 A 
HETATM   19  C   UNL     1      27.418  40.783  47.344  1.00  0.00     0.046 A 
ENDBRANCH  11  13
ENDBRANCH   8  11
ENDBRANCH   5   7
BRANCH   1  20
HETATM   20  C   UNL     1      28.465  45.660  54.978  1.00  0.00     0.193 C 
HETATM   21  O   UNL     1      28.373  46.884  54.926  1.00  0.00    -0.287 OA
BRANCH  20  22
HETATM   22  C   UNL     1      29.525  45.064  55.835  1.00  0.00     0.015 A 
HETATM   23  C   UNL     1      30.195  43.924  55.373  1.00  0.00     0.015 A 
HETATM   24  C   UNL     1      31.170  43.315  56.165  1.00  0.00     0.001 A 
HETATM   25  C   UNL     1      31.469  43.835  57.424  1.00  0.00     0.000 A 
HETATM   26  C   UNL     1      30.791  44.957  57.898  1.00  0.00     0.001 A 
HETATM   27  C   UNL     1      29.814  45.568  57.110  1.00  0.00     0.015 A 
ENDBRANCH  20  22
ENDBRANCH   1  20
TORSDOF 5
ENDMDL
MODEL 8
REMARK VINA RESULT:      -8.3      4.126      9.567
REMARK  5 active torsions:
REMARK  status: ('A' for Active; 'I' for Inactive)
REMARK    1  A    between atoms: C_4  and  C_5 
REMARK    2  A    between atoms: C_5  and  C_6 
REMARK    3  A    between atoms: C_10  and  C_11 
REMARK       I    between atoms: C_11  and  N_12 
REMARK    4  A    between atoms: N_12  and  N_13 
REMARK    5  A    between atoms: N_13  and  C_14 
ROOT
HETATM    1  C   UNL     1      23.256  48.519  48.622  1.00  0.00     0.033 A 
HETATM    2  C   UNL     1      22.479  47.390  48.813  1.00  0.00     0.104 A 
HETATM    3  N   UNL     1      23.241  46.439  49.437  1.00  0.00    -0.360 N 
HETATM    4  H   UNL     1      22.932  45.513  49.710  1.00  0.00     0.165 HD
HETATM    5  C   UNL     1      24.515  46.913  49.659  1.00  0.00     0.102 A 
HETATM    6  C   UNL     1      24.551  48.193  49.130  1.00  0.00     0.052 A 
ENDROOT
BRANCH   5   7
HETATM    7  C   UNL     1      25.510  46.114  50.338  1.00  0.00     0.282 C 
HETATM    8  N   UNL     1      25.166  45.676  51.603  1.00  0.00    -0.280 N 
HETATM    9  H   UNL     1      24.459  46.164  52.152  1.00  0.00     0.184 HD
HETATM   10  O   UNL     1      26.597  45.838  49.827  1.00  0.00    -0.265 OA
BRANCH   8  11
HETATM   11  N   UNL     1      26.185  45.054  52.372  1.00  0.00    -0.186 NA
HETATM   12  H   UNL     1      26.984  44.819  51.775  1.00  0.00     0.154 HD
BRANCH  11  13
HETATM   13  C   UNL     1      26.600  45.878  53.449  1.00  0.00     0.122 A 
HETATM   14  N   UNL     1      27.727  45.569  54.132  1.00  0.00    -0.223 NA
HETATM   15  C   UNL     1      28.099  46.415  55.113  1.00  0.00     0.128 A 
HETATM   16 CL   UNL     1      29.526  45.952  55.946  1.00  0.00    -0.062 Cl
HETATM   17  C   UNL     1      27.424  47.573  55.456  1.00  0.00     0.044 A 
HETATM   18  C   UNL     1      26.280  47.888  54.736  1.00  0.00     0.007 A 
HETATM   19  C   UNL     1      25.865  47.034  53.718  1.00  0.00     0.046 A 
ENDBRANCH  11  13
ENDBRANCH   8  11
ENDBRANCH   5   7
BRANCH   1  20
HETATM   20  C   UNL     1      22.874  49.782  47.989  1.00  0.00     0.193 C 
HETATM   21  O   UNL     1      23.612  50.341  47.181  1.00  0.00    -0.287 OA
BRANCH  20  22
HETATM   22  C   UNL     1      21.576  50.423  48.326  1.00  0.00     0.015 A 
HETATM   23  C   UNL     1      21.359  50.840  49.645  1.00  0.00     0.015 A 
HETATM   24  C   UNL     1      20.139  51.414  50.008  1.00  0.00     0.001 A 
HETATM   25  C   UNL     1      19.128  51.559  49.058  1.00  0.00     0.000 A 
HETATM   26  C   UNL     1      19.330  51.126  47.748  1.00  0.00     0.001 A 
HETATM   27  C   UNL     1      20.548  50.552  47.381  1.00  0.00     0.015 A 
ENDBRANCH  20  22
ENDBRANCH   1  20
TORSDOF 5
ENDMDL
MODEL 9
REMARK VINA RESULT:      -8.2      2.656      3.490
REMARK  5 active torsions:
REMARK  status: ('A' for Active; 'I' for Inactive)
REMARK    1  A    between atoms: C_4  and  C_5 
REMARK    2  A    between atoms: C_5  and  C_6 
REMARK    3  A    between atoms: C_10  and  C_11 
REMARK       I    between atoms: C_11  and  N_12 
REMARK    4  A    between atoms: N_12  and  N_13 
REMARK    5  A    between atoms: N_13  and  C_14 
ROOT
HETATM    1  C   UNL     1      26.457  44.182  52.443  1.00  0.00     0.033 A 
HETATM    2  C   UNL     1      25.101  44.170  52.720  1.00  0.00     0.104 A 
HETATM    3  N   UNL     1      24.515  45.218  52.062  1.00  0.00    -0.360 N 
HETATM    4  H   UNL     1      23.528  45.452  52.072  1.00  0.00     0.165 HD
HETATM    5  C   UNL     1      25.458  45.932  51.358  1.00  0.00     0.102 A 
HETATM    6  C   UNL     1      26.676  45.321  51.609  1.00  0.00     0.052 A 
ENDROOT
BRANCH   5   7
HETATM    7  C   UNL     1      25.092  47.071  50.545  1.00  0.00     0.282 C 
HETATM    8  N   UNL     1      23.855  46.999  49.934  1.00  0.00    -0.280 N 
HETATM    9  H   UNL     1      23.408  46.099  49.761  1.00  0.00     0.184 HD
HETATM   10  O   UNL     1      25.832  48.046  50.403  1.00  0.00    -0.265 OA
BRANCH   8  11
HETATM   11  N   UNL     1      23.543  48.005  48.982  1.00  0.00    -0.186 NA
HETATM   12  H   UNL     1      23.843  47.711  48.047  1.00  0.00     0.154 HD
BRANCH  11  13
HETATM   13  C   UNL     1      22.158  48.310  48.981  1.00  0.00     0.122 A 
HETATM   14  N   UNL     1      21.747  49.553  49.320  1.00  0.00    -0.223 NA
HETATM   15  C   UNL     1      20.423  49.799  49.253  1.00  0.00     0.128 A 
HETATM   16 CL   UNL     1      19.972  51.390  49.712  1.00  0.00    -0.062 Cl
HETATM   17  C   UNL     1      19.468  48.882  48.853  1.00  0.00     0.044 A 
HETATM   18  C   UNL     1      19.905  47.615  48.491  1.00  0.00     0.007 A 
HETATM   19  C   UNL     1      21.266  47.326  48.552  1.00  0.00     0.046 A 
ENDBRANCH  11  13
ENDBRANCH   8  11
ENDBRANCH   5   7
BRANCH   1  20
HETATM   20  C   UNL     1      27.486  43.263  52.931  1.00  0.00     0.193 C 
HETATM   21  O   UNL     1      27.536  42.097  52.548  1.00  0.00    -0.287 OA
BRANCH  20  22
HETATM   22  C   UNL     1      28.494  43.730  53.920  1.00  0.00     0.015 A 
HETATM   23  C   UNL     1      29.627  42.938  54.143  1.00  0.00     0.015 A 
HETATM   24  C   UNL     1      30.578  43.325  55.090  1.00  0.00     0.001 A 
HETATM   25  C   UNL     1      30.392  44.495  55.825  1.00  0.00     0.000 A 
HETATM   26  C   UNL     1      29.255  45.276  55.623  1.00  0.00     0.001 A 
HETATM   27  C   UNL     1      28.302  44.893  54.677  1.00  0.00     0.015 A 
ENDBRANCH  20  22
ENDBRANCH   1  20
TORSDOF 5
ENDMDL
MODEL 10
REMARK VINA RESULT:      -8.1      4.976      7.684
REMARK  5 active torsions:
REMARK  status: ('A' for Active; 'I' for Inactive)
REMARK    1  A    between atoms: C_4  and  C_5 
REMARK    2  A    between atoms: C_5  and  C_6 
REMARK    3  A    between atoms: C_10  and  C_11 
REMARK       I    between atoms: C_11  and  N_12 
REMARK    4  A    between atoms: N_12  and  N_13 
REMARK    5  A    between atoms: N_13  and  C_14 
ROOT
HETATM    1  C   UNL     1      26.769  41.906  50.029  1.00  0.00     0.033 A 
HETATM    2  C   UNL     1      25.421  41.844  50.335  1.00  0.00     0.104 A 
HETATM    3  N   UNL     1      25.193  42.610  51.447  1.00  0.00    -0.360 N 
HETATM    4  H   UNL     1      24.295  42.758  51.894  1.00  0.00     0.165 HD
HETATM    5  C   UNL     1      26.367  43.175  51.891  1.00  0.00     0.102 A 
HETATM    6  C   UNL     1      27.363  42.724  51.041  1.00  0.00     0.052 A 
ENDROOT
BRANCH   5   7
HETATM    7  C   UNL     1      26.393  44.061  53.034  1.00  0.00     0.282 C 
HETATM    8  N   UNL     1      27.589  44.716  53.258  1.00  0.00    -0.280 N 
HETATM    9  H   UNL     1      28.466  44.343  52.897  1.00  0.00     0.184 HD
HETATM   10  O   UNL     1      25.415  44.225  53.765  1.00  0.00    -0.265 OA
BRANCH   8  11
HETATM   11  N   UNL     1      27.713  45.442  54.472  1.00  0.00    -0.186 NA
HETATM   12  H   UNL     1      26.875  45.313  55.047  1.00  0.00     0.154 HD
BRANCH  11  13
HETATM   13  C   UNL     1      28.871  45.057  55.194  1.00  0.00     0.122 A 
HETATM   14  N   UNL     1      29.240  45.760  56.289  1.00  0.00    -0.223 NA
HETATM   15  C   UNL     1      30.321  45.318  56.963  1.00  0.00     0.128 A 
HETATM   16 CL   UNL     1      30.742  46.265  58.330  1.00  0.00    -0.062 Cl
HETATM   17  C   UNL     1      31.061  44.199  56.624  1.00  0.00     0.044 A 
HETATM   18  C   UNL     1      30.660  43.477  55.508  1.00  0.00     0.007 A 
HETATM   19  C   UNL     1      29.550  43.907  54.787  1.00  0.00     0.046 A 
ENDBRANCH  11  13
ENDBRANCH   8  11
ENDBRANCH   5   7
BRANCH   1  20
HETATM   20  C   UNL     1      27.479  41.243  48.935  1.00  0.00     0.193 C 
HETATM   21  O   UNL     1      27.453  41.690  47.791  1.00  0.00    -0.287 OA
BRANCH  20  22
HETATM   22  C   UNL     1      28.244  39.994  49.192  1.00  0.00     0.015 A 
HETATM   23  C   UNL     1      28.666  39.725  50.500  1.00  0.00     0.015 A 
HETATM   24  C   UNL     1      29.418  38.581  50.773  1.00  0.00     0.001 A 
HETATM   25  C   UNL     1      29.761  37.709  49.739  1.00  0.00     0.000 A 
HETATM   26  C   UNL     1      29.361  37.983  48.431  1.00  0.00     0.001 A 
HETATM   27  C   UNL     1      28.610  39.126  48.154  1.00  0.00     0.015 A 
ENDBRANCH  20  22
ENDBRANCH   1  20
TORSDOF 5
ENDMDL
