MODEL 1
REMARK VINA RESULT:     -10.0      0.000      0.000
REMARK  6 active torsions:
REMARK  status: ('A' for Active; 'I' for Inactive)
REMARK    1  A    between atoms: O_2  and  C_3 
REMARK    2  A    between atoms: C_6  and  C_7 
REMARK    3  A    between atoms: C_12  and  C_13 
REMARK       I    between atoms: C_13  and  N_14 
REMARK    4  A    between atoms: N_14  and  C_15 
REMARK    5  A    between atoms: C_15  and  C_16 
REMARK    6  A    between atoms: C_24  and  C_25 
ROOT
HETATM    1  C   UNL     1      27.127  43.913  53.038  1.00  0.00     0.118 C 
HETATM    2  N   UNL     1      26.305  45.121  53.063  1.00  0.00    -0.366 N 
HETATM    3  C   UNL     1      25.777  45.662  51.948  1.00  0.00     0.123 A 
HETATM    4  N   UNL     1      25.873  45.035  50.739  1.00  0.00    -0.240 N 
HETATM    5  N   UNL     1      25.399  45.752  49.706  1.00  0.00    -0.165 NA
HETATM    6  C   UNL     1      24.907  46.865  50.300  1.00  0.00     0.148 A 
HETATM    7  C   UNL     1      25.112  46.834  51.708  1.00  0.00     0.088 A 
HETATM    8  C   UNL     1      26.536  43.758  50.557  1.00  0.00     0.221 C 
HETATM    9  C   UNL     1      27.642  43.614  51.614  1.00  0.00     0.066 C 
HETATM   10  H   UNL     1      26.200  45.568  53.973  1.00  0.00     0.161 HD
ENDROOT
BRANCH   6  11
HETATM   11  C   UNL     1      24.270  47.946  49.536  1.00  0.00     0.272 C 
HETATM   12  N   UNL     1      23.098  47.565  48.929  1.00  0.00    -0.351 N 
HETATM   13  H   UNL     1      22.842  46.586  49.023  1.00  0.00     0.163 HD
HETATM   14  O   UNL     1      24.747  49.074  49.456  1.00  0.00    -0.266 OA
BRANCH  12  15
HETATM   15  C   UNL     1      22.315  48.451  48.110  1.00  0.00     0.161 C 
BRANCH  15  16
HETATM   16  C   UNL     1      21.230  49.140  48.899  1.00  0.00    -0.041 A 
HETATM   17  C   UNL     1      21.305  50.511  49.191  1.00  0.00     0.009 A 
HETATM   18  C   UNL     1      20.279  51.148  49.888  1.00  0.00     0.001 A 
HETATM   19  C   UNL     1      19.155  50.428  50.285  1.00  0.00     0.000 A 
HETATM   20  C   UNL     1      19.057  49.070  49.985  1.00  0.00     0.001 A 
HETATM   21  C   UNL     1      20.086  48.430  49.293  1.00  0.00     0.009 A 
ENDBRANCH  15  16
ENDBRANCH  12  15
ENDBRANCH   6  11
BRANCH   8  22
HETATM   22  C   UNL     1      25.526  42.636  50.612  1.00  0.00     0.409 C 
HETATM   23  F   UNL     1      24.444  42.949  51.359  1.00  0.00    -0.169 F 
HETATM   24  F   UNL     1      25.065  42.374  49.360  1.00  0.00    -0.169 F 
HETATM   25  F   UNL     1      26.030  41.477  51.084  1.00  0.00    -0.169 F 
ENDBRANCH   8  22
BRANCH   1  26
HETATM   26  C   UNL     1      28.286  44.085  54.005  1.00  0.00    -0.035 A 
HETATM   27  C   UNL     1      28.373  45.221  54.821  1.00  0.00     0.012 A 
HETATM   28  C   UNL     1      29.436  45.378  55.721  1.00  0.00     0.037 A 
HETATM   29  C   UNL     1      30.426  44.400  55.818  1.00  0.00     0.068 A 
HETATM   30  C   UNL     1      30.351  43.272  55.002  1.00  0.00     0.037 A 
HETATM   31  C   UNL     1      29.293  43.112  54.106  1.00  0.00     0.012 A 
BRANCH  29  32
HETATM   32  O   UNL     1      31.509  44.427  56.652  1.00  0.00    -0.356 OA
HETATM   33  C   UNL     1      31.915  43.189  57.220  1.00  0.00     0.210 C 
ENDBRANCH  29  32
ENDBRANCH   1  26
TORSDOF 6
ENDMDL
MODEL 2
REMARK VINA RESULT:      -9.4      1.959      2.528
REMARK  6 active torsions:
REMARK  status: ('A' for Active; 'I' for Inactive)
REMARK    1  A    between atoms: O_2  and  C_3 
REMARK    2  A    between atoms: C_6  and  C_7 
REMARK    3  A    between atoms: C_12  and  C_13 
REMARK       I    between atoms: C_13  and  N_14 
REMARK    4  A    between atoms: N_14  and  C_15 
REMARK    5  A    between atoms: C_15  and  C_16 
REMARK    6  A    between atoms: C_24  and  C_25 
ROOT
HETATM    1  C   UNL     1      27.484  42.975  53.014  1.00  0.00     0.118 C 
HETATM    2  N   UNL     1      26.142  43.546  52.940  1.00  0.00    -0.366 N 
HETATM    3  C   UNL     1      25.498  43.736  51.772  1.00  0.00     0.123 A 
HETATM    4  N   UNL     1      26.016  43.282  50.592  1.00  0.00    -0.240 N 
HETATM    5  N   UNL     1      25.316  43.647  49.505  1.00  0.00    -0.165 NA
HETATM    6  C   UNL     1      24.254  44.307  50.026  1.00  0.00     0.148 A 
HETATM    7  C   UNL     1      24.328  44.367  51.447  1.00  0.00     0.088 A 
HETATM    8  C   UNL     1      27.275  42.570  50.500  1.00  0.00     0.221 C 
HETATM    9  C   UNL     1      28.194  43.027  51.645  1.00  0.00     0.066 C 
HETATM   10  H   UNL     1      25.738  43.849  53.826  1.00  0.00     0.161 HD
ENDROOT
BRANCH   6  11
HETATM   11  C   UNL     1      23.199  44.886  49.184  1.00  0.00     0.272 C 
HETATM   12  N   UNL     1      23.065  46.244  49.337  1.00  0.00    -0.351 N 
HETATM   13  H   UNL     1      23.653  46.677  50.044  1.00  0.00     0.163 HD
HETATM   14  O   UNL     1      22.512  44.212  48.422  1.00  0.00    -0.266 OA
BRANCH  12  15
HETATM   15  C   UNL     1      22.080  47.020  48.632  1.00  0.00     0.161 C 
BRANCH  15  16
HETATM   16  C   UNL     1      22.438  48.485  48.590  1.00  0.00    -0.041 A 
HETATM   17  C   UNL     1      23.776  48.901  48.496  1.00  0.00     0.009 A 
HETATM   18  C   UNL     1      24.096  50.256  48.419  1.00  0.00     0.001 A 
HETATM   19  C   UNL     1      23.083  51.212  48.416  1.00  0.00     0.000 A 
HETATM   20  C   UNL     1      21.750  50.813  48.489  1.00  0.00     0.001 A 
HETATM   21  C   UNL     1      21.428  49.457  48.572  1.00  0.00     0.009 A 
ENDBRANCH  15  16
ENDBRANCH  12  15
ENDBRANCH   6  11
BRANCH   8  22
HETATM   22  C   UNL     1      27.031  41.079  50.509  1.00  0.00     0.409 C 
HETATM   23  F   UNL     1      25.838  40.753  51.054  1.00  0.00    -0.169 F 
HETATM   24  F   UNL     1      27.009  40.612  49.232  1.00  0.00    -0.169 F 
HETATM   25  F   UNL     1      27.985  40.378  51.156  1.00  0.00    -0.169 F 
ENDBRANCH   8  22
BRANCH   1  26
HETATM   26  C   UNL     1      28.284  43.729  54.063  1.00  0.00    -0.035 A 
HETATM   27  C   UNL     1      29.521  43.240  54.506  1.00  0.00     0.012 A 
HETATM   28  C   UNL     1      30.265  43.938  55.467  1.00  0.00     0.037 A 
HETATM   29  C   UNL     1      29.784  45.136  55.995  1.00  0.00     0.068 A 
HETATM   30  C   UNL     1      28.550  45.623  55.567  1.00  0.00     0.037 A 
HETATM   31  C   UNL     1      27.807  44.931  54.610  1.00  0.00     0.012 A 
BRANCH  29  32
HETATM   32  O   UNL     1      30.409  45.914  56.930  1.00  0.00    -0.356 OA
HETATM   33  C   UNL     1      30.715  45.302  58.176  1.00  0.00     0.210 C 
ENDBRANCH  29  32
ENDBRANCH   1  26
TORSDOF 6
ENDMDL
MODEL 3
REMARK VINA RESULT:      -9.0      2.480      9.421
REMARK  6 active torsions:
REMARK  status: ('A' for Active; 'I' for Inactive)
REMARK    1  A    between atoms: O_2  and  C_3 
REMARK    2  A    between atoms: C_6  and  C_7 
REMARK    3  A    between atoms: C_12  and  C_13 
REMARK       I    between atoms: C_13  and  N_14 
REMARK    4  A    between atoms: N_14  and  C_15 
REMARK    5  A    between atoms: C_15  and  C_16 
REMARK    6  A    between atoms: C_24  and  C_25 
ROOT
HETATM    1  C   UNL     1      23.822  45.229  49.385  1.00  0.00     0.118 C 
HETATM    2  N   UNL     1      24.467  46.338  50.085  1.00  0.00    -0.366 N 
HETATM    3  C   UNL     1      25.067  46.189  51.282  1.00  0.00     0.123 A 
HETATM    4  N   UNL     1      25.221  44.958  51.852  1.00  0.00    -0.240 N 
HETATM    5  N   UNL     1      25.734  44.985  53.094  1.00  0.00    -0.165 NA
HETATM    6  C   UNL     1      25.989  46.299  53.297  1.00  0.00     0.148 A 
HETATM    7  C   UNL     1      25.599  47.082  52.173  1.00  0.00     0.088 A 
HETATM    8  C   UNL     1      24.763  43.731  51.229  1.00  0.00     0.221 C 
HETATM    9  C   UNL     1      23.550  44.046  50.338  1.00  0.00     0.066 C 
HETATM   10  H   UNL     1      24.386  47.251  49.640  1.00  0.00     0.161 HD
ENDROOT
BRANCH   6  11
HETATM   11  C   UNL     1      26.577  46.802  54.546  1.00  0.00     0.272 C 
HETATM   12  N   UNL     1      27.736  46.154  54.899  1.00  0.00    -0.351 N 
HETATM   13  H   UNL     1      28.016  45.378  54.306  1.00  0.00     0.163 HD
HETATM   14  O   UNL     1      26.074  47.710  55.199  1.00  0.00    -0.266 OA
BRANCH  12  15
HETATM   15  C   UNL     1      28.472  46.462  56.096  1.00  0.00     0.161 C 
BRANCH  15  16
HETATM   16  C   UNL     1      29.549  45.443  56.375  1.00  0.00    -0.041 A 
HETATM   17  C   UNL     1      30.235  45.432  57.599  1.00  0.00     0.009 A 
HETATM   18  C   UNL     1      31.203  44.463  57.864  1.00  0.00     0.001 A 
HETATM   19  C   UNL     1      31.484  43.481  56.917  1.00  0.00     0.000 A 
HETATM   20  C   UNL     1      30.796  43.468  55.705  1.00  0.00     0.001 A 
HETATM   21  C   UNL     1      29.832  44.441  55.435  1.00  0.00     0.009 A 
ENDBRANCH  15  16
ENDBRANCH  12  15
ENDBRANCH   6  11
BRANCH   8  22
HETATM   22  C   UNL     1      25.894  43.082  50.468  1.00  0.00     0.409 C 
HETATM   23  F   UNL     1      25.481  42.502  49.320  1.00  0.00    -0.169 F 
HETATM   24  F   UNL     1      26.808  44.025  50.114  1.00  0.00    -0.169 F 
HETATM   25  F   UNL     1      26.562  42.152  51.182  1.00  0.00    -0.169 F 
ENDBRANCH   8  22
BRANCH   1  26
HETATM   26  C   UNL     1      22.529  45.725  48.761  1.00  0.00    -0.035 A 
HETATM   27  C   UNL     1      21.407  44.888  48.684  1.00  0.00     0.012 A 
HETATM   28  C   UNL     1      20.209  45.346  48.117  1.00  0.00     0.037 A 
HETATM   29  C   UNL     1      20.116  46.647  47.624  1.00  0.00     0.068 A 
HETATM   30  C   UNL     1      21.231  47.482  47.689  1.00  0.00     0.037 A 
HETATM   31  C   UNL     1      22.425  47.030  48.253  1.00  0.00     0.012 A 
BRANCH  29  32
HETATM   32  O   UNL     1      19.012  47.218  47.053  1.00  0.00    -0.356 OA
HETATM   33  C   UNL     1      18.977  48.638  47.000  1.00  0.00     0.210 C 
ENDBRANCH  29  32
ENDBRANCH   1  26
TORSDOF 6
ENDMDL
MODEL 4
REMARK VINA RESULT:      -8.9      6.816      9.934
REMARK  6 active torsions:
REMARK  status: ('A' for Active; 'I' for Inactive)
REMARK    1  A    between atoms: O_2  and  C_3 
REMARK    2  A    between atoms: C_6  and  C_7 
REMARK    3  A    between atoms: C_12  and  C_13 
REMARK       I    between atoms: C_13  and  N_14 
REMARK    4  A    between atoms: N_14  and  C_15 
REMARK    5  A    between atoms: C_15  and  C_16 
REMARK    6  A    between atoms: C_24  and  C_25 
ROOT
HETATM    1  C   UNL     1      20.392  49.081  49.109  1.00  0.00     0.118 C 
HETATM    2  N   UNL     1      19.816  50.251  49.767  1.00  0.00    -0.366 N 
HETATM    3  C   UNL     1      18.560  50.674  49.526  1.00  0.00     0.123 A 
HETATM    4  N   UNL     1      17.704  49.952  48.744  1.00  0.00    -0.240 N 
HETATM    5  N   UNL     1      16.530  50.559  48.505  1.00  0.00    -0.165 NA
HETATM    6  C   UNL     1      16.613  51.697  49.236  1.00  0.00     0.148 A 
HETATM    7  C   UNL     1      17.867  51.793  49.903  1.00  0.00     0.088 A 
HETATM    8  C   UNL     1      18.068  48.694  48.122  1.00  0.00     0.221 C 
HETATM    9  C   UNL     1      19.582  48.686  47.856  1.00  0.00     0.066 C 
HETATM   10  H   UNL     1      20.443  50.768  50.383  1.00  0.00     0.161 HD
ENDROOT
BRANCH   6  11
HETATM   11  C   UNL     1      15.524  52.682  49.282  1.00  0.00     0.272 C 
HETATM   12  N   UNL     1      15.080  52.942  50.555  1.00  0.00    -0.351 N 
HETATM   13  H   UNL     1      15.501  52.391  51.299  1.00  0.00     0.163 HD
HETATM   14  O   UNL     1      15.066  53.213  48.275  1.00  0.00    -0.266 OA
BRANCH  12  15
HETATM   15  C   UNL     1      14.005  53.854  50.840  1.00  0.00     0.161 C 
BRANCH  15  16
HETATM   16  C   UNL     1      14.512  55.195  51.308  1.00  0.00    -0.041 A 
HETATM   17  C   UNL     1      14.840  56.206  50.391  1.00  0.00     0.009 A 
HETATM   18  C   UNL     1      15.272  57.457  50.834  1.00  0.00     0.001 A 
HETATM   19  C   UNL     1      15.361  57.720  52.199  1.00  0.00     0.000 A 
HETATM   20  C   UNL     1      15.019  56.732  53.121  1.00  0.00     0.001 A 
HETATM   21  C   UNL     1      14.593  55.478  52.679  1.00  0.00     0.009 A 
ENDBRANCH  15  16
ENDBRANCH  12  15
ENDBRANCH   6  11
BRANCH   8  22
HETATM   22  C   UNL     1      17.621  47.539  48.986  1.00  0.00     0.409 C 
HETATM   23  F   UNL     1      18.381  46.436  48.812  1.00  0.00    -0.169 F 
HETATM   24  F   UNL     1      17.734  47.879  50.298  1.00  0.00    -0.169 F 
HETATM   25  F   UNL     1      16.333  47.186  48.793  1.00  0.00    -0.169 F 
ENDBRANCH   8  22
BRANCH   1  26
HETATM   26  C   UNL     1      21.835  49.383  48.742  1.00  0.00    -0.035 A 
HETATM   27  C   UNL     1      22.872  48.538  49.166  1.00  0.00     0.012 A 
HETATM   28  C   UNL     1      24.203  48.808  48.821  1.00  0.00     0.037 A 
HETATM   29  C   UNL     1      24.516  49.925  48.045  1.00  0.00     0.068 A 
HETATM   30  C   UNL     1      23.492  50.774  47.628  1.00  0.00     0.037 A 
HETATM   31  C   UNL     1      22.165  50.508  47.969  1.00  0.00     0.012 A 
BRANCH  29  32
HETATM   32  O   UNL     1      25.767  50.299  47.637  1.00  0.00    -0.356 OA
HETATM   33  C   UNL     1      26.856  49.909  48.462  1.00  0.00     0.210 C 
ENDBRANCH  29  32
ENDBRANCH   1  26
TORSDOF 6
ENDMDL
MODEL 5
REMARK VINA RESULT:      -8.7      2.350      8.999
REMARK  6 active torsions:
REMARK  status: ('A' for Active; 'I' for Inactive)
REMARK    1  A    between atoms: O_2  and  C_3 
REMARK    2  A    between atoms: C_6  and  C_7 
REMARK    3  A    between atoms: C_12  and  C_13 
REMARK       I    between atoms: C_13  and  N_14 
REMARK    4  A    between atoms: N_14  and  C_15 
REMARK    5  A    between atoms: C_15  and  C_16 
REMARK    6  A    between atoms: C_24  and  C_25 
ROOT
HETATM    1  C   UNL     1      23.543  45.182  48.600  1.00  0.00     0.118 C 
HETATM    2  N   UNL     1      24.963  45.089  48.932  1.00  0.00    -0.366 N 
HETATM    3  C   UNL     1      25.482  44.049  49.612  1.00  0.00     0.123 A 
HETATM    4  N   UNL     1      24.729  42.952  49.918  1.00  0.00    -0.240 N 
HETATM    5  N   UNL     1      25.355  42.052  50.695  1.00  0.00    -0.165 NA
HETATM    6  C   UNL     1      26.600  42.569  50.830  1.00  0.00     0.148 A 
HETATM    7  C   UNL     1      26.720  43.814  50.149  1.00  0.00     0.088 A 
HETATM    8  C   UNL     1      23.335  42.816  49.543  1.00  0.00     0.221 C 
HETATM    9  C   UNL     1      22.701  44.215  49.459  1.00  0.00     0.066 C 
HETATM   10  H   UNL     1      25.534  45.892  48.668  1.00  0.00     0.161 HD
ENDROOT
BRANCH   6  11
HETATM   11  C   UNL     1      27.649  41.899  51.609  1.00  0.00     0.272 C 
HETATM   12  N   UNL     1      28.112  42.653  52.659  1.00  0.00    -0.351 N 
HETATM   13  H   UNL     1      27.732  43.592  52.739  1.00  0.00     0.163 HD
HETATM   14  O   UNL     1      28.061  40.775  51.339  1.00  0.00    -0.266 OA
BRANCH  12  15
HETATM   15  C   UNL     1      29.156  42.209  53.543  1.00  0.00     0.161 C 
BRANCH  15  16
HETATM   16  C   UNL     1      29.547  43.275  54.537  1.00  0.00    -0.041 A 
HETATM   17  C   UNL     1      30.690  43.133  55.339  1.00  0.00     0.009 A 
HETATM   18  C   UNL     1      31.066  44.140  56.228  1.00  0.00     0.001 A 
HETATM   19  C   UNL     1      30.315  45.310  56.312  1.00  0.00     0.000 A 
HETATM   20  C   UNL     1      29.189  45.474  55.508  1.00  0.00     0.001 A 
HETATM   21  C   UNL     1      28.808  44.464  54.622  1.00  0.00     0.009 A 
ENDBRANCH  15  16
ENDBRANCH  12  15
ENDBRANCH   6  11
BRANCH   8  22
HETATM   22  C   UNL     1      23.218  42.044  48.250  1.00  0.00     0.409 C 
HETATM   23  F   UNL     1      22.909  40.744  48.450  1.00  0.00    -0.169 F 
HETATM   24  F   UNL     1      22.215  42.565  47.495  1.00  0.00    -0.169 F 
HETATM   25  F   UNL     1      24.332  42.090  47.490  1.00  0.00    -0.169 F 
ENDBRANCH   8  22
BRANCH   1  26
HETATM   26  C   UNL     1      23.082  46.616  48.798  1.00  0.00    -0.035 A 
HETATM   27  C   UNL     1      21.782  47.004  48.445  1.00  0.00     0.012 A 
HETATM   28  C   UNL     1      21.351  48.324  48.636  1.00  0.00     0.037 A 
HETATM   29  C   UNL     1      22.213  49.273  49.185  1.00  0.00     0.068 A 
HETATM   30  C   UNL     1      23.511  48.897  49.529  1.00  0.00     0.037 A 
HETATM   31  C   UNL     1      23.943  47.583  49.341  1.00  0.00     0.012 A 
BRANCH  29  32
HETATM   32  O   UNL     1      21.919  50.587  49.426  1.00  0.00    -0.356 OA
HETATM   33  C   UNL     1      20.641  50.869  49.980  1.00  0.00     0.210 C 
ENDBRANCH  29  32
ENDBRANCH   1  26
TORSDOF 6
ENDMDL
MODEL 6
REMARK VINA RESULT:      -8.6      3.401      4.460
REMARK  6 active torsions:
REMARK  status: ('A' for Active; 'I' for Inactive)
REMARK    1  A    between atoms: O_2  and  C_3 
REMARK    2  A    between atoms: C_6  and  C_7 
REMARK    3  A    between atoms: C_12  and  C_13 
REMARK       I    between atoms: C_13  and  N_14 
REMARK    4  A    between atoms: N_14  and  C_15 
REMARK    5  A    between atoms: C_15  and  C_16 
REMARK    6  A    between atoms: C_24  and  C_25 
ROOT
HETATM    1  C   UNL     1      27.033  44.613  51.585  1.00  0.00     0.118 C 
HETATM    2  N   UNL     1      27.230  45.527  50.463  1.00  0.00    -0.366 N 
HETATM    3  C   UNL     1      26.416  46.575  50.228  1.00  0.00     0.123 A 
HETATM    4  N   UNL     1      25.430  46.920  51.108  1.00  0.00    -0.240 N 
HETATM    5  N   UNL     1      24.632  47.913  50.681  1.00  0.00    -0.165 NA
HETATM    6  C   UNL     1      25.186  48.270  49.497  1.00  0.00     0.148 A 
HETATM    7  C   UNL     1      26.317  47.462  49.190  1.00  0.00     0.088 A 
HETATM    8  C   UNL     1      25.183  46.204  52.344  1.00  0.00     0.221 C 
HETATM    9  C   UNL     1      25.609  44.737  52.166  1.00  0.00     0.066 C 
HETATM   10  H   UNL     1      27.992  45.292  49.827  1.00  0.00     0.161 HD
ENDROOT
BRANCH   6  11
HETATM   11  C   UNL     1      24.635  49.348  48.666  1.00  0.00     0.272 C 
HETATM   12  N   UNL     1      23.343  49.680  48.993  1.00  0.00    -0.351 N 
HETATM   13  H   UNL     1      22.903  49.114  49.714  1.00  0.00     0.163 HD
HETATM   14  O   UNL     1      25.275  49.890  47.771  1.00  0.00    -0.266 OA
BRANCH  12  15
HETATM   15  C   UNL     1      22.593  50.691  48.297  1.00  0.00     0.161 C 
BRANCH  15  16
HETATM   16  C   UNL     1      21.202  50.849  48.859  1.00  0.00    -0.041 A 
HETATM   17  C   UNL     1      20.741  50.022  49.894  1.00  0.00     0.009 A 
HETATM   18  C   UNL     1      19.467  50.199  50.434  1.00  0.00     0.001 A 
HETATM   19  C   UNL     1      18.645  51.218  49.959  1.00  0.00     0.000 A 
HETATM   20  C   UNL     1      19.097  52.061  48.945  1.00  0.00     0.001 A 
HETATM   21  C   UNL     1      20.369  51.880  48.399  1.00  0.00     0.009 A 
ENDBRANCH  15  16
ENDBRANCH  12  15
ENDBRANCH   6  11
BRANCH   8  22
HETATM   22  C   UNL     1      25.895  46.884  53.489  1.00  0.00     0.409 C 
HETATM   23  F   UNL     1      27.078  47.420  53.119  1.00  0.00    -0.169 F 
HETATM   24  F   UNL     1      25.136  47.912  53.954  1.00  0.00    -0.169 F 
HETATM   25  F   UNL     1      26.123  46.071  54.543  1.00  0.00    -0.169 F 
ENDBRANCH   8  22
BRANCH   1  26
HETATM   26  C   UNL     1      27.301  43.193  51.118  1.00  0.00    -0.035 A 
HETATM   27  C   UNL     1      26.844  42.754  49.867  1.00  0.00     0.012 A 
HETATM   28  C   UNL     1      27.098  41.447  49.429  1.00  0.00     0.037 A 
HETATM   29  C   UNL     1      27.815  40.562  50.234  1.00  0.00     0.068 A 
HETATM   30  C   UNL     1      28.264  40.988  51.483  1.00  0.00     0.037 A 
HETATM   31  C   UNL     1      28.014  42.289  51.922  1.00  0.00     0.012 A 
BRANCH  29  32
HETATM   32  O   UNL     1      28.133  39.268  49.927  1.00  0.00    -0.356 OA
HETATM   33  C   UNL     1      28.032  38.888  48.561  1.00  0.00     0.210 C 
ENDBRANCH  29  32
ENDBRANCH   1  26
TORSDOF 6
ENDMDL
MODEL 7
REMARK VINA RESULT:      -8.3      3.868      9.698
REMARK  6 active torsions:
REMARK  status: ('A' for Active; 'I' for Inactive)
REMARK    1  A    between atoms: O_2  and  C_3 
REMARK    2  A    between atoms: C_6  and  C_7 
REMARK    3  A    between atoms: C_12  and  C_13 
REMARK       I    between atoms: C_13  and  N_14 
REMARK    4  A    between atoms: N_14  and  C_15 
REMARK    5  A    between atoms: C_15  and  C_16 
REMARK    6  A    between atoms: C_24  and  C_25 
ROOT
HETATM    1  C   UNL     1      23.962  44.527  49.758  1.00  0.00     0.118 C 
HETATM    2  N   UNL     1      24.337  43.557  50.785  1.00  0.00    -0.366 N 
HETATM    3  C   UNL     1      25.534  43.579  51.401  1.00  0.00     0.123 A 
HETATM    4  N   UNL     1      26.422  44.596  51.194  1.00  0.00    -0.240 N 
HETATM    5  N   UNL     1      27.613  44.419  51.790  1.00  0.00    -0.165 NA
HETATM    6  C   UNL     1      27.449  43.261  52.475  1.00  0.00     0.148 A 
HETATM    7  C   UNL     1      26.151  42.716  52.267  1.00  0.00     0.088 A 
HETATM    8  C   UNL     1      26.156  45.715  50.312  1.00  0.00     0.221 C 
HETATM    9  C   UNL     1      25.201  45.258  49.198  1.00  0.00     0.066 C 
HETATM   10  H   UNL     1      23.657  42.820  50.968  1.00  0.00     0.161 HD
ENDROOT
BRANCH   6  11
HETATM   11  C   UNL     1      28.518  42.677  53.296  1.00  0.00     0.272 C 
HETATM   12  N   UNL     1      29.431  43.603  53.738  1.00  0.00    -0.351 N 
HETATM   13  H   UNL     1      29.304  44.554  53.404  1.00  0.00     0.163 HD
HETATM   14  O   UNL     1      28.577  41.479  53.555  1.00  0.00    -0.266 OA
BRANCH  12  15
HETATM   15  C   UNL     1      30.576  43.256  54.537  1.00  0.00     0.161 C 
BRANCH  15  16
HETATM   16  C   UNL     1      30.600  44.006  55.845  1.00  0.00    -0.041 A 
HETATM   17  C   UNL     1      31.465  43.624  56.883  1.00  0.00     0.009 A 
HETATM   18  C   UNL     1      31.509  44.346  58.076  1.00  0.00     0.001 A 
HETATM   19  C   UNL     1      30.704  45.472  58.238  1.00  0.00     0.000 A 
HETATM   20  C   UNL     1      29.856  45.875  57.209  1.00  0.00     0.001 A 
HETATM   21  C   UNL     1      29.806  45.149  56.017  1.00  0.00     0.009 A 
ENDBRANCH  15  16
ENDBRANCH  12  15
ENDBRANCH   6  11
BRANCH   8  22
HETATM   22  C   UNL     1      25.613  46.882  51.104  1.00  0.00     0.409 C 
HETATM   23  F   UNL     1      26.543  47.837  51.323  1.00  0.00    -0.169 F 
HETATM   24  F   UNL     1      24.607  47.478  50.408  1.00  0.00    -0.169 F 
HETATM   25  F   UNL     1      25.094  46.529  52.298  1.00  0.00    -0.169 F 
ENDBRANCH   8  22
BRANCH   1  26
HETATM   26  C   UNL     1      23.214  43.808  48.649  1.00  0.00    -0.035 A 
HETATM   27  C   UNL     1      23.270  42.412  48.538  1.00  0.00     0.012 A 
HETATM   28  C   UNL     1      22.573  41.745  47.522  1.00  0.00     0.037 A 
HETATM   29  C   UNL     1      21.809  42.465  46.603  1.00  0.00     0.068 A 
HETATM   30  C   UNL     1      21.757  43.854  46.701  1.00  0.00     0.037 A 
HETATM   31  C   UNL     1      22.449  44.522  47.713  1.00  0.00     0.012 A 
BRANCH  29  32
HETATM   32  O   UNL     1      21.081  41.940  45.571  1.00  0.00    -0.356 OA
HETATM   33  C   UNL     1      20.531  42.861  44.638  1.00  0.00     0.210 C 
ENDBRANCH  29  32
ENDBRANCH   1  26
TORSDOF 6
ENDMDL
MODEL 8
REMARK VINA RESULT:      -8.2      4.223      8.032
REMARK  6 active torsions:
REMARK  status: ('A' for Active; 'I' for Inactive)
REMARK    1  A    between atoms: O_2  and  C_3 
REMARK    2  A    between atoms: C_6  and  C_7 
REMARK    3  A    between atoms: C_12  and  C_13 
REMARK       I    between atoms: C_13  and  N_14 
REMARK    4  A    between atoms: N_14  and  C_15 
REMARK    5  A    between atoms: C_15  and  C_16 
REMARK    6  A    between atoms: C_24  and  C_25 
ROOT
HETATM    1  C   UNL     1      27.724  44.474  52.842  1.00  0.00     0.118 C 
HETATM    2  N   UNL     1      28.220  43.468  51.905  1.00  0.00    -0.366 N 
HETATM    3  C   UNL     1      27.403  42.621  51.251  1.00  0.00     0.123 A 
HETATM    4  N   UNL     1      26.044  42.742  51.327  1.00  0.00    -0.240 N 
HETATM    5  N   UNL     1      25.367  41.757  50.713  1.00  0.00    -0.165 NA
HETATM    6  C   UNL     1      26.347  41.008  50.152  1.00  0.00     0.148 A 
HETATM    7  C   UNL     1      27.636  41.532  50.455  1.00  0.00     0.088 A 
HETATM    8  C   UNL     1      25.381  43.772  52.102  1.00  0.00     0.221 C 
HETATM    9  C   UNL     1      26.279  44.163  53.287  1.00  0.00     0.066 C 
HETATM   10  H   UNL     1      29.234  43.405  51.818  1.00  0.00     0.161 HD
ENDROOT
BRANCH   6  11
HETATM   11  C   UNL     1      26.060  39.806  49.358  1.00  0.00     0.272 C 
HETATM   12  N   UNL     1      26.500  38.647  49.949  1.00  0.00    -0.351 N 
HETATM   13  H   UNL     1      27.017  38.754  50.818  1.00  0.00     0.163 HD
HETATM   14  O   UNL     1      25.483  39.847  48.276  1.00  0.00    -0.266 OA
BRANCH  12  15
HETATM   15  C   UNL     1      26.350  37.351  49.343  1.00  0.00     0.161 C 
BRANCH  15  16
HETATM   16  C   UNL     1      27.287  37.161  48.177  1.00  0.00    -0.041 A 
HETATM   17  C   UNL     1      26.896  36.429  47.045  1.00  0.00     0.009 A 
HETATM   18  C   UNL     1      27.755  36.289  45.955  1.00  0.00     0.001 A 
HETATM   19  C   UNL     1      29.009  36.896  45.974  1.00  0.00     0.000 A 
HETATM   20  C   UNL     1      29.403  37.642  47.083  1.00  0.00     0.001 A 
HETATM   21  C   UNL     1      28.547  37.777  48.178  1.00  0.00     0.009 A 
ENDBRANCH  15  16
ENDBRANCH  12  15
ENDBRANCH   6  11
BRANCH   8  22
HETATM   22  C   UNL     1      25.038  44.947  51.217  1.00  0.00     0.409 C 
HETATM   23  F   UNL     1      23.808  44.841  50.668  1.00  0.00    -0.169 F 
HETATM   24  F   UNL     1      25.031  46.089  51.956  1.00  0.00    -0.169 F 
HETATM   25  F   UNL     1      25.920  45.145  50.216  1.00  0.00    -0.169 F 
ENDBRANCH   8  22
BRANCH   1  26
HETATM   26  C   UNL     1      28.655  44.534  54.041  1.00  0.00    -0.035 A 
HETATM   27  C   UNL     1      28.602  45.614  54.933  1.00  0.00     0.012 A 
HETATM   28  C   UNL     1      29.453  45.666  56.046  1.00  0.00     0.037 A 
HETATM   29  C   UNL     1      30.366  44.639  56.283  1.00  0.00     0.068 A 
HETATM   30  C   UNL     1      30.431  43.567  55.394  1.00  0.00     0.037 A 
HETATM   31  C   UNL     1      29.585  43.510  54.286  1.00  0.00     0.012 A 
BRANCH  29  32
HETATM   32  O   UNL     1      31.246  44.566  57.327  1.00  0.00    -0.356 OA
HETATM   33  C   UNL     1      32.094  43.426  57.375  1.00  0.00     0.210 C 
ENDBRANCH  29  32
ENDBRANCH   1  26
TORSDOF 6
ENDMDL
MODEL 9
REMARK VINA RESULT:      -8.2      3.046      9.445
REMARK  6 active torsions:
REMARK  status: ('A' for Active; 'I' for Inactive)
REMARK    1  A    between atoms: O_2  and  C_3 
REMARK    2  A    between atoms: C_6  and  C_7 
REMARK    3  A    between atoms: C_12  and  C_13 
REMARK       I    between atoms: C_13  and  N_14 
REMARK    4  A    between atoms: N_14  and  C_15 
REMARK    5  A    between atoms: C_15  and  C_16 
REMARK    6  A    between atoms: C_24  and  C_25 
ROOT
HETATM    1  C   UNL     1      21.274  47.405  48.259  1.00  0.00     0.118 C 
HETATM    2  N   UNL     1      22.578  47.298  48.908  1.00  0.00    -0.366 N 
HETATM    3  C   UNL     1      23.075  46.127  49.350  1.00  0.00     0.123 A 
HETATM    4  N   UNL     1      22.439  44.945  49.098  1.00  0.00    -0.240 N 
HETATM    5  N   UNL     1      22.995  43.880  49.700  1.00  0.00    -0.165 NA
HETATM    6  C   UNL     1      24.087  44.401  50.308  1.00  0.00     0.148 A 
HETATM    7  C   UNL     1      24.178  45.806  50.095  1.00  0.00     0.088 A 
HETATM    8  C   UNL     1      21.202  44.853  48.348  1.00  0.00     0.221 C 
HETATM    9  C   UNL     1      20.408  46.157  48.530  1.00  0.00     0.066 C 
HETATM   10  H   UNL     1      23.072  48.178  49.060  1.00  0.00     0.161 HD
ENDROOT
BRANCH   6  11
HETATM   11  C   UNL     1      25.017  43.578  51.093  1.00  0.00     0.272 C 
HETATM   12  N   UNL     1      25.666  44.281  52.079  1.00  0.00    -0.351 N 
HETATM   13  H   UNL     1      25.482  45.280  52.113  1.00  0.00     0.163 HD
HETATM   14  O   UNL     1      25.188  42.382  50.880  1.00  0.00    -0.266 OA
BRANCH  12  15
HETATM   15  C   UNL     1      26.640  43.687  52.955  1.00  0.00     0.161 C 
BRANCH  15  16
HETATM   16  C   UNL     1      27.301  44.711  53.843  1.00  0.00    -0.041 A 
HETATM   17  C   UNL     1      28.435  44.386  54.604  1.00  0.00     0.009 A 
HETATM   18  C   UNL     1      29.063  45.349  55.394  1.00  0.00     0.001 A 
HETATM   19  C   UNL     1      28.577  46.654  55.418  1.00  0.00     0.000 A 
HETATM   20  C   UNL     1      27.464  46.997  54.653  1.00  0.00     0.001 A 
HETATM   21  C   UNL     1      26.831  46.032  53.867  1.00  0.00     0.009 A 
ENDBRANCH  15  16
ENDBRANCH  12  15
ENDBRANCH   6  11
BRANCH   8  22
HETATM   22  C   UNL     1      21.496  44.546  46.898  1.00  0.00     0.409 C 
HETATM   23  F   UNL     1      22.719  44.976  46.515  1.00  0.00    -0.169 F 
HETATM   24  F   UNL     1      21.485  43.200  46.704  1.00  0.00    -0.169 F 
HETATM   25  F   UNL     1      20.591  45.063  46.042  1.00  0.00    -0.169 F 
ENDBRANCH   8  22
BRANCH   1  26
HETATM   26  C   UNL     1      20.577  48.660  48.756  1.00  0.00    -0.035 A 
HETATM   27  C   UNL     1      19.504  48.573  49.654  1.00  0.00     0.012 A 
HETATM   28  C   UNL     1      18.865  49.730  50.122  1.00  0.00     0.037 A 
HETATM   29  C   UNL     1      19.292  50.989  49.700  1.00  0.00     0.068 A 
HETATM   30  C   UNL     1      20.352  51.083  48.799  1.00  0.00     0.037 A 
HETATM   31  C   UNL     1      20.991  49.933  48.332  1.00  0.00     0.012 A 
BRANCH  29  32
HETATM   32  O   UNL     1      18.761  52.191  50.080  1.00  0.00    -0.356 OA
HETATM   33  C   UNL     1      17.379  52.394  49.822  1.00  0.00     0.210 C 
ENDBRANCH  29  32
ENDBRANCH   1  26
TORSDOF 6
ENDMDL
MODEL 10
REMARK VINA RESULT:      -8.1      2.741      3.724
REMARK  6 active torsions:
REMARK  status: ('A' for Active; 'I' for Inactive)
REMARK    1  A    between atoms: O_2  and  C_3 
REMARK    2  A    between atoms: C_6  and  C_7 
REMARK    3  A    between atoms: C_12  and  C_13 
REMARK       I    between atoms: C_13  and  N_14 
REMARK    4  A    between atoms: N_14  and  C_15 
REMARK    5  A    between atoms: C_15  and  C_16 
REMARK    6  A    between atoms: C_24  and  C_25 
ROOT
HETATM    1  C   UNL     1      27.646  42.878  53.015  1.00  0.00     0.118 C 
HETATM    2  N   UNL     1      26.360  43.570  53.029  1.00  0.00    -0.366 N 
HETATM    3  C   UNL     1      25.696  43.892  51.902  1.00  0.00     0.123 A 
HETATM    4  N   UNL     1      26.129  43.471  50.677  1.00  0.00    -0.240 N 
HETATM    5  N   UNL     1      25.428  43.967  49.644  1.00  0.00    -0.165 NA
HETATM    6  C   UNL     1      24.449  44.684  50.247  1.00  0.00     0.148 A 
HETATM    7  C   UNL     1      24.577  44.644  51.664  1.00  0.00     0.088 A 
HETATM    8  C   UNL     1      27.314  42.657  50.491  1.00  0.00     0.221 C 
HETATM    9  C   UNL     1      28.310  42.957  51.623  1.00  0.00     0.066 C 
HETATM   10  H   UNL     1      26.017  43.850  53.948  1.00  0.00     0.161 HD
ENDROOT
BRANCH   6  11
HETATM   11  C   UNL     1      23.423  45.408  49.485  1.00  0.00     0.272 C 
HETATM   12  N   UNL     1      22.260  44.694  49.326  1.00  0.00    -0.351 N 
HETATM   13  H   UNL     1      22.262  43.745  49.690  1.00  0.00     0.163 HD
HETATM   14  O   UNL     1      23.599  46.537  49.040  1.00  0.00    -0.266 OA
BRANCH  12  15
HETATM   15  C   UNL     1      21.127  45.193  48.594  1.00  0.00     0.161 C 
BRANCH  15  16
HETATM   16  C   UNL     1      21.225  44.883  47.121  1.00  0.00    -0.041 A 
HETATM   17  C   UNL     1      21.177  43.560  46.655  1.00  0.00     0.009 A 
HETATM   18  C   UNL     1      21.230  43.283  45.289  1.00  0.00     0.001 A 
HETATM   19  C   UNL     1      21.310  44.327  44.370  1.00  0.00     0.000 A 
HETATM   20  C   UNL     1      21.338  45.647  44.817  1.00  0.00     0.001 A 
HETATM   21  C   UNL     1      21.292  45.925  46.184  1.00  0.00     0.009 A 
ENDBRANCH  15  16
ENDBRANCH  12  15
ENDBRANCH   6  11
BRANCH   8  22
HETATM   22  C   UNL     1      26.935  41.197  50.417  1.00  0.00     0.409 C 
HETATM   23  F   UNL     1      26.824  40.754  49.146  1.00  0.00    -0.169 F 
HETATM   24  F   UNL     1      27.903  40.443  51.004  1.00  0.00    -0.169 F 
HETATM   25  F   UNL     1      25.784  40.905  51.057  1.00  0.00    -0.169 F 
ENDBRANCH   8  22
BRANCH   1  26
HETATM   26  C   UNL     1      28.547  43.488  54.075  1.00  0.00    -0.035 A 
HETATM   27  C   UNL     1      29.733  42.847  54.460  1.00  0.00     0.012 A 
HETATM   28  C   UNL     1      30.571  43.413  55.430  1.00  0.00     0.037 A 
HETATM   29  C   UNL     1      30.236  44.628  56.028  1.00  0.00     0.068 A 
HETATM   30  C   UNL     1      29.053  45.266  55.657  1.00  0.00     0.037 A 
HETATM   31  C   UNL     1      28.217  44.706  54.690  1.00  0.00     0.012 A 
BRANCH  29  32
HETATM   32  O   UNL     1      30.963  45.287  56.980  1.00  0.00    -0.356 OA
HETATM   33  C   UNL     1      30.231  45.987  57.978  1.00  0.00     0.210 C 
ENDBRANCH  29  32
ENDBRANCH   1  26
TORSDOF 6
ENDMDL
