MODEL 1
REMARK VINA RESULT:      -8.6      0.000      0.000
REMARK  9 active torsions:
REMARK  status: ('A' for Active; 'I' for Inactive)
REMARK    1  A    between atoms: C_2  and  C_3 
REMARK    2  A    between atoms: C_7  and  C_8 
REMARK    3  A    between atoms: C_8  and  C_9 
REMARK       I    between atoms: C_9  and  N_10 
REMARK    4  A    between atoms: N_10  and  C_11 
REMARK    5  A    between atoms: C_11  and  C_12 
REMARK    6  A    between atoms: C_12  and  C_13 
REMARK    7  A    between atoms: C_21  and  C_22 
REMARK    8  A    between atoms: C_32  and  C_33 
REMARK    9  A    between atoms: C_33  and  O_34 
ROOT
HETATM    1  C   UNL     1      27.261  44.504  51.978  1.00  0.00     0.051 C 
HETATM    2  N   UNL     1      27.684  43.635  50.959  1.00  0.00    -0.228 NA
HETATM    3  C   UNL     1      26.884  43.528  49.948  1.00  0.00     0.170 C 
HETATM    4  N   UNL     1      25.685  44.512  49.723  1.00  0.00    -0.318 N 
HETATM    5  C   UNL     1      24.630  43.800  49.472  1.00  0.00     0.011 C 
HETATM    6  C   UNL     1      26.121  45.819  50.268  1.00  0.00     0.166 C 
HETATM    7  S   UNL     1      26.747  42.158  48.917  1.00  0.00    -0.086 SA
HETATM    8  C   UNL     1      24.930  42.406  48.922  1.00  0.00     0.135 C 
HETATM    9  C   UNL     1      26.419  45.534  51.708  1.00  0.00     0.069 C 
ENDROOT
BRANCH   5  10
HETATM   10  C   UNL     1      23.283  44.225  49.988  1.00  0.00     0.156 C 
BRANCH  10  11
HETATM   11  C   UNL     1      22.119  44.201  49.022  1.00  0.00     0.222 C 
HETATM   12  N   UNL     1      21.310  45.314  49.113  1.00  0.00    -0.361 N 
HETATM   13  H   UNL     1      21.526  46.018  49.819  1.00  0.00     0.162 HD
HETATM   14  O   UNL     1      21.891  43.275  48.247  1.00  0.00    -0.273 OA
BRANCH  12  15
HETATM   15  C   UNL     1      19.955  45.342  48.589  1.00  0.00     0.124 C 
BRANCH  15  16
HETATM   16  C   UNL     1      19.436  46.725  48.188  1.00  0.00     0.053 C 
BRANCH  16  17
HETATM   17  C   UNL     1      19.681  47.845  49.191  1.00  0.00     0.189 C 
HETATM   18  N   UNL     1      20.089  49.180  48.600  1.00  0.00    -0.071 N 
HETATM   19  H   UNL     1      21.105  49.115  48.401  1.00  0.00     0.279 HD
HETATM   20  C   UNL     1      19.391  49.632  47.345  1.00  0.00     0.270 C 
HETATM   21  C   UNL     1      19.872  50.189  49.724  1.00  0.00     0.235 C 
HETATM   22  C   UNL     1      18.955  49.496  50.726  1.00  0.00     0.030 C 
HETATM   23  C   UNL     1      18.485  48.220  50.049  1.00  0.00     0.035 C 
ENDBRANCH  16  17
ENDBRANCH  15  16
ENDBRANCH  12  15
ENDBRANCH  10  11
ENDBRANCH   5  10
BRANCH   6  24
HETATM   24  C   UNL     1      25.445  47.112  49.808  1.00  0.00    -0.024 C 
HETATM   25  C   UNL     1      26.197  48.197  49.281  1.00  0.00    -0.053 C 
HETATM   26  C   UNL     1      27.693  48.193  49.071  1.00  0.00     0.049 C 
HETATM   27  C   UNL     1      25.542  49.373  48.858  1.00  0.00     0.014 C 
HETATM   28  C   UNL     1      24.153  49.480  48.853  1.00  0.00    -0.061 C 
HETATM   29  C   UNL     1      23.487  50.715  48.323  1.00  0.00     0.048 C 
HETATM   30  C   UNL     1      23.407  48.372  49.237  1.00  0.00     0.007 C 
HETATM   31  C   UNL     1      24.041  47.208  49.687  1.00  0.00     0.011 C 
ENDBRANCH   6  24
BRANCH   9  32
HETATM   32  C   UNL     1      25.479  46.069  52.701  1.00  0.00     0.293 C 
HETATM   33  O   UNL     1      24.573  45.360  53.115  1.00  0.00    -0.259 OA
BRANCH  32  34
HETATM   34  O   UNL     1      25.744  47.345  53.022  1.00  0.00    -0.323 OA
HETATM   35  C   UNL     1      26.119  47.538  54.390  1.00  0.00     0.213 C 
ENDBRANCH  32  34
ENDBRANCH   9  32
BRANCH   1  36
HETATM   36  C   UNL     1      27.659  44.035  53.368  1.00  0.00     0.056 C 
HETATM   37  C   UNL     1      29.120  43.613  53.440  1.00  0.00     0.011 C 
ENDBRANCH   1  36
TORSDOF 9
ENDMDL
MODEL 2
REMARK VINA RESULT:      -7.5      7.931     12.158
REMARK  9 active torsions:
REMARK  status: ('A' for Active; 'I' for Inactive)
REMARK    1  A    between atoms: C_2  and  C_3 
REMARK    2  A    between atoms: C_7  and  C_8 
REMARK    3  A    between atoms: C_8  and  C_9 
REMARK       I    between atoms: C_9  and  N_10 
REMARK    4  A    between atoms: N_10  and  C_11 
REMARK    5  A    between atoms: C_11  and  C_12 
REMARK    6  A    between atoms: C_12  and  C_13 
REMARK    7  A    between atoms: C_21  and  C_22 
REMARK    8  A    between atoms: C_32  and  C_33 
REMARK    9  A    between atoms: C_33  and  O_34 
ROOT
HETATM    1  C   UNL     1      14.543  50.328  45.593  1.00  0.00     0.051 C 
HETATM    2  N   UNL     1      14.205  51.589  45.075  1.00  0.00    -0.228 NA
HETATM    3  C   UNL     1      14.578  52.602  45.787  1.00  0.00     0.170 C 
HETATM    4  N   UNL     1      15.589  52.464  46.976  1.00  0.00    -0.318 N 
HETATM    5  C   UNL     1      15.088  53.089  47.997  1.00  0.00     0.011 C 
HETATM    6  C   UNL     1      16.508  51.363  46.605  1.00  0.00     0.166 C 
HETATM    7  S   UNL     1      13.811  54.142  45.818  1.00  0.00    -0.086 SA
HETATM    8  C   UNL     1      14.076  54.174  47.633  1.00  0.00     0.135 C 
HETATM    9  C   UNL     1      15.607  50.179  46.424  1.00  0.00     0.069 C 
ENDROOT
BRANCH   5  10
HETATM   10  C   UNL     1      15.274  52.548  49.388  1.00  0.00     0.156 C 
BRANCH  10  11
HETATM   11  C   UNL     1      14.615  53.295  50.527  1.00  0.00     0.222 C 
HETATM   12  N   UNL     1      15.322  54.407  50.933  1.00  0.00    -0.361 N 
HETATM   13  H   UNL     1      16.213  54.610  50.481  1.00  0.00     0.162 HD
HETATM   14  O   UNL     1      13.568  52.939  51.064  1.00  0.00    -0.273 OA
BRANCH  12  15
HETATM   15  C   UNL     1      15.110  55.041  52.223  1.00  0.00     0.124 C 
BRANCH  15  16
HETATM   16  C   UNL     1      15.228  56.567  52.230  1.00  0.00     0.053 C 
BRANCH  16  17
HETATM   17  C   UNL     1      15.316  57.223  53.603  1.00  0.00     0.189 C 
HETATM   18  N   UNL     1      15.626  58.706  53.606  1.00  0.00    -0.071 N 
HETATM   19  H   UNL     1      16.653  58.793  53.482  1.00  0.00     0.279 HD
HETATM   20  C   UNL     1      14.953  59.563  52.566  1.00  0.00     0.270 C 
HETATM   21  C   UNL     1      15.259  59.181  55.008  1.00  0.00     0.235 C 
HETATM   22  C   UNL     1      14.362  58.093  55.588  1.00  0.00     0.030 C 
HETATM   23  C   UNL     1      14.048  57.152  54.436  1.00  0.00     0.035 C 
ENDBRANCH  16  17
ENDBRANCH  15  16
ENDBRANCH  12  15
ENDBRANCH  10  11
ENDBRANCH   5  10
BRANCH   6  24
HETATM   24  C   UNL     1      17.887  51.254  47.258  1.00  0.00    -0.024 C 
HETATM   25  C   UNL     1      18.937  50.508  46.657  1.00  0.00    -0.053 C 
HETATM   26  C   UNL     1      18.843  49.796  45.327  1.00  0.00     0.049 C 
HETATM   27  C   UNL     1      20.200  50.434  47.281  1.00  0.00     0.014 C 
HETATM   28  C   UNL     1      20.491  51.151  48.439  1.00  0.00    -0.061 C 
HETATM   29  C   UNL     1      21.869  51.111  49.033  1.00  0.00     0.048 C 
HETATM   30  C   UNL     1      19.512  51.991  48.956  1.00  0.00     0.007 C 
HETATM   31  C   UNL     1      18.243  52.054  48.366  1.00  0.00     0.011 C 
ENDBRANCH   6  24
BRANCH   9  32
HETATM   32  C   UNL     1      15.669  49.132  47.450  1.00  0.00     0.293 C 
HETATM   33  O   UNL     1      15.123  49.313  48.529  1.00  0.00    -0.259 OA
BRANCH  32  34
HETATM   34  O   UNL     1      16.377  48.064  47.050  1.00  0.00    -0.323 OA
HETATM   35  C   UNL     1      16.874  47.256  48.123  1.00  0.00     0.213 C 
ENDBRANCH  32  34
ENDBRANCH   9  32
BRANCH   1  36
HETATM   36  C   UNL     1      13.497  49.263  45.306  1.00  0.00     0.056 C 
HETATM   37  C   UNL     1      12.867  49.427  43.929  1.00  0.00     0.011 C 
ENDBRANCH   1  36
TORSDOF 9
ENDMDL
MODEL 3
REMARK VINA RESULT:      -7.3      2.986      8.489
REMARK  9 active torsions:
REMARK  status: ('A' for Active; 'I' for Inactive)
REMARK    1  A    between atoms: C_2  and  C_3 
REMARK    2  A    between atoms: C_7  and  C_8 
REMARK    3  A    between atoms: C_8  and  C_9 
REMARK       I    between atoms: C_9  and  N_10 
REMARK    4  A    between atoms: N_10  and  C_11 
REMARK    5  A    between atoms: C_11  and  C_12 
REMARK    6  A    between atoms: C_12  and  C_13 
REMARK    7  A    between atoms: C_21  and  C_22 
REMARK    8  A    between atoms: C_32  and  C_33 
REMARK    9  A    between atoms: C_33  and  O_34 
ROOT
HETATM    1  C   UNL     1      20.048  50.650  48.824  1.00  0.00     0.051 C 
HETATM    2  N   UNL     1      21.265  51.189  48.375  1.00  0.00    -0.228 NA
HETATM    3  C   UNL     1      22.146  50.327  47.982  1.00  0.00     0.170 C 
HETATM    4  N   UNL     1      21.791  48.821  47.734  1.00  0.00    -0.318 N 
HETATM    5  C   UNL     1      22.685  48.098  48.336  1.00  0.00     0.011 C 
HETATM    6  C   UNL     1      20.386  48.804  47.264  1.00  0.00     0.166 C 
HETATM    7  S   UNL     1      23.851  50.552  48.009  1.00  0.00    -0.086 SA
HETATM    8  C   UNL     1      24.015  48.813  48.570  1.00  0.00     0.135 C 
HETATM    9  C   UNL     1      19.618  49.441  48.382  1.00  0.00     0.069 C 
ENDROOT
BRANCH   5  10
HETATM   10  C   UNL     1      22.298  46.807  49.003  1.00  0.00     0.156 C 
BRANCH  10  11
HETATM   11  C   UNL     1      23.387  45.783  49.239  1.00  0.00     0.222 C 
HETATM   12  N   UNL     1      23.910  45.824  50.514  1.00  0.00    -0.361 N 
HETATM   13  H   UNL     1      23.566  46.534  51.160  1.00  0.00     0.162 HD
HETATM   14  O   UNL     1      23.793  45.006  48.378  1.00  0.00    -0.273 OA
BRANCH  12  15
HETATM   15  C   UNL     1      25.193  45.231  50.853  1.00  0.00     0.124 C 
BRANCH  15  16
HETATM   16  C   UNL     1      25.121  43.920  51.640  1.00  0.00     0.053 C 
BRANCH  16  17
HETATM   17  C   UNL     1      26.067  43.803  52.829  1.00  0.00     0.189 C 
HETATM   18  N   UNL     1      26.888  42.532  52.894  1.00  0.00    -0.071 N 
HETATM   19  H   UNL     1      26.270  41.802  53.296  1.00  0.00     0.279 HD
HETATM   20  C   UNL     1      27.465  42.005  51.606  1.00  0.00     0.270 C 
HETATM   21  C   UNL     1      28.002  42.835  53.892  1.00  0.00     0.235 C 
HETATM   22  C   UNL     1      28.043  44.355  54.012  1.00  0.00     0.030 C 
HETATM   23  C   UNL     1      27.129  44.885  52.919  1.00  0.00     0.035 C 
ENDBRANCH  16  17
ENDBRANCH  15  16
ENDBRANCH  12  15
ENDBRANCH  10  11
ENDBRANCH   5  10
BRANCH   6  24
HETATM   24  C   UNL     1      19.850  47.610  46.473  1.00  0.00    -0.024 C 
HETATM   25  C   UNL     1      18.743  47.739  45.590  1.00  0.00    -0.053 C 
HETATM   26  C   UNL     1      18.015  49.030  45.297  1.00  0.00     0.049 C 
HETATM   27  C   UNL     1      18.278  46.619  44.870  1.00  0.00     0.014 C 
HETATM   28  C   UNL     1      18.930  45.389  44.922  1.00  0.00    -0.061 C 
HETATM   29  C   UNL     1      18.454  44.240  44.081  1.00  0.00     0.048 C 
HETATM   30  C   UNL     1      20.093  45.292  45.675  1.00  0.00     0.007 C 
HETATM   31  C   UNL     1      20.552  46.386  46.419  1.00  0.00     0.011 C 
ENDBRANCH   6  24
BRANCH   9  32
HETATM   32  C   UNL     1      18.767  48.560  49.190  1.00  0.00     0.293 C 
HETATM   33  O   UNL     1      19.272  47.870  50.064  1.00  0.00    -0.259 OA
BRANCH  32  34
HETATM   34  O   UNL     1      17.476  48.618  48.824  1.00  0.00    -0.323 OA
HETATM   35  C   UNL     1      16.808  47.351  48.837  1.00  0.00     0.213 C 
ENDBRANCH  32  34
ENDBRANCH   9  32
BRANCH   1  36
HETATM   36  C   UNL     1      19.430  51.439  49.966  1.00  0.00     0.056 C 
HETATM   37  C   UNL     1      18.264  52.304  49.509  1.00  0.00     0.011 C 
ENDBRANCH   1  36
TORSDOF 9
ENDMDL
MODEL 4
REMARK VINA RESULT:      -7.2      3.274      8.494
REMARK  9 active torsions:
REMARK  status: ('A' for Active; 'I' for Inactive)
REMARK    1  A    between atoms: C_2  and  C_3 
REMARK    2  A    between atoms: C_7  and  C_8 
REMARK    3  A    between atoms: C_8  and  C_9 
REMARK       I    between atoms: C_9  and  N_10 
REMARK    4  A    between atoms: N_10  and  C_11 
REMARK    5  A    between atoms: C_11  and  C_12 
REMARK    6  A    between atoms: C_12  and  C_13 
REMARK    7  A    between atoms: C_21  and  C_22 
REMARK    8  A    between atoms: C_32  and  C_33 
REMARK    9  A    between atoms: C_33  and  O_34 
ROOT
HETATM    1  C   UNL     1      19.239  51.199  48.781  1.00  0.00     0.051 C 
HETATM    2  N   UNL     1      20.537  51.664  48.516  1.00  0.00    -0.228 NA
HETATM    3  C   UNL     1      21.373  50.773  48.092  1.00  0.00     0.170 C 
HETATM    4  N   UNL     1      20.914  49.352  47.618  1.00  0.00    -0.318 N 
HETATM    5  C   UNL     1      21.676  48.475  48.195  1.00  0.00     0.011 C 
HETATM    6  C   UNL     1      19.567  49.534  47.028  1.00  0.00     0.166 C 
HETATM    7  S   UNL     1      23.081  50.821  48.298  1.00  0.00    -0.086 SA
HETATM    8  C   UNL     1      23.034  49.019  48.637  1.00  0.00     0.135 C 
HETATM    9  C   UNL     1      18.750  50.102  48.148  1.00  0.00     0.069 C 
ENDROOT
BRANCH   5  10
HETATM   10  C   UNL     1      21.112  47.157  48.650  1.00  0.00     0.156 C 
BRANCH  10  11
HETATM   11  C   UNL     1      21.936  45.913  48.394  1.00  0.00     0.222 C 
HETATM   12  N   UNL     1      21.610  44.862  49.224  1.00  0.00    -0.361 N 
HETATM   13  H   UNL     1      20.898  45.007  49.940  1.00  0.00     0.162 HD
HETATM   14  O   UNL     1      22.828  45.845  47.552  1.00  0.00    -0.273 OA
BRANCH  12  15
HETATM   15  C   UNL     1      22.495  43.729  49.436  1.00  0.00     0.124 C 
BRANCH  15  16
HETATM   16  C   UNL     1      23.543  43.915  50.537  1.00  0.00     0.053 C 
BRANCH  16  17
HETATM   17  C   UNL     1      24.969  44.171  50.064  1.00  0.00     0.189 C 
HETATM   18  N   UNL     1      25.310  45.613  49.750  1.00  0.00    -0.071 N 
HETATM   19  H   UNL     1      24.944  45.802  48.797  1.00  0.00     0.279 HD
HETATM   20  C   UNL     1      24.779  46.675  50.677  1.00  0.00     0.270 C 
HETATM   21  C   UNL     1      26.834  45.656  49.707  1.00  0.00     0.235 C 
HETATM   22  C   UNL     1      27.300  44.390  50.418  1.00  0.00     0.030 C 
HETATM   23  C   UNL     1      26.058  43.784  51.050  1.00  0.00     0.035 C 
ENDBRANCH  16  17
ENDBRANCH  15  16
ENDBRANCH  12  15
ENDBRANCH  10  11
ENDBRANCH   5  10
BRANCH   6  24
HETATM   24  C   UNL     1      19.009  48.505  46.043  1.00  0.00    -0.024 C 
HETATM   25  C   UNL     1      18.330  48.902  44.858  1.00  0.00    -0.053 C 
HETATM   26  C   UNL     1      18.124  50.332  44.416  1.00  0.00     0.049 C 
HETATM   27  C   UNL     1      17.834  47.928  43.966  1.00  0.00     0.014 C 
HETATM   28  C   UNL     1      18.068  46.568  44.159  1.00  0.00    -0.061 C 
HETATM   29  C   UNL     1      17.593  45.565  43.149  1.00  0.00     0.048 C 
HETATM   30  C   UNL     1      18.848  46.181  45.241  1.00  0.00     0.007 C 
HETATM   31  C   UNL     1      19.324  47.133  46.152  1.00  0.00     0.011 C 
ENDBRANCH   6  24
BRANCH   9  32
HETATM   32  C   UNL     1      17.748  49.219  48.755  1.00  0.00     0.293 C 
HETATM   33  O   UNL     1      18.102  48.372  49.564  1.00  0.00    -0.259 OA
BRANCH  32  34
HETATM   34  O   UNL     1      16.508  49.458  48.298  1.00  0.00    -0.323 OA
HETATM   35  C   UNL     1      15.830  48.295  47.810  1.00  0.00     0.213 C 
ENDBRANCH  32  34
ENDBRANCH   9  32
BRANCH   1  36
HETATM   36  C   UNL     1      18.582  51.899  49.959  1.00  0.00     0.056 C 
HETATM   37  C   UNL     1      17.389  52.746  49.537  1.00  0.00     0.011 C 
ENDBRANCH   1  36
TORSDOF 9
ENDMDL
MODEL 5
REMARK VINA RESULT:      -7.1     11.210     14.329
REMARK  9 active torsions:
REMARK  status: ('A' for Active; 'I' for Inactive)
REMARK    1  A    between atoms: C_2  and  C_3 
REMARK    2  A    between atoms: C_7  and  C_8 
REMARK    3  A    between atoms: C_8  and  C_9 
REMARK       I    between atoms: C_9  and  N_10 
REMARK    4  A    between atoms: N_10  and  C_11 
REMARK    5  A    between atoms: C_11  and  C_12 
REMARK    6  A    between atoms: C_12  and  C_13 
REMARK    7  A    between atoms: C_21  and  C_22 
REMARK    8  A    between atoms: C_32  and  C_33 
REMARK    9  A    between atoms: C_33  and  O_34 
ROOT
HETATM    1  C   UNL     1      30.737  48.698  41.837  1.00  0.00     0.051 C 
HETATM    2  N   UNL     1      30.498  49.875  42.564  1.00  0.00    -0.228 NA
HETATM    3  C   UNL     1      29.926  50.831  41.907  1.00  0.00     0.170 C 
HETATM    4  N   UNL     1      29.273  50.605  40.501  1.00  0.00    -0.318 N 
HETATM    5  C   UNL     1      29.696  51.544  39.711  1.00  0.00     0.011 C 
HETATM    6  C   UNL     1      28.758  49.216  40.508  1.00  0.00     0.166 C 
HETATM    7  S   UNL     1      30.082  52.511  42.242  1.00  0.00    -0.086 SA
HETATM    8  C   UNL     1      30.166  52.806  40.433  1.00  0.00     0.135 C 
HETATM    9  C   UNL     1      29.972  48.376  40.762  1.00  0.00     0.069 C 
ENDROOT
BRANCH   5  10
HETATM   10  C   UNL     1      29.980  51.251  38.264  1.00  0.00     0.156 C 
BRANCH  10  11
HETATM   11  C   UNL     1      31.428  51.196  37.827  1.00  0.00     0.222 C 
HETATM   12  N   UNL     1      32.302  50.938  38.863  1.00  0.00    -0.361 N 
HETATM   13  H   UNL     1      31.926  50.847  39.807  1.00  0.00     0.162 HD
HETATM   14  O   UNL     1      31.803  51.387  36.673  1.00  0.00    -0.273 OA
BRANCH  12  15
HETATM   15  C   UNL     1      33.724  51.219  38.774  1.00  0.00     0.124 C 
BRANCH  15  16
HETATM   16  C   UNL     1      34.216  52.384  39.637  1.00  0.00     0.053 C 
BRANCH  16  17
HETATM   17  C   UNL     1      35.396  52.083  40.554  1.00  0.00     0.189 C 
HETATM   18  N   UNL     1      35.108  52.146  42.040  1.00  0.00    -0.071 N 
HETATM   19  H   UNL     1      35.139  53.148  42.304  1.00  0.00     0.279 HD
HETATM   20  C   UNL     1      33.802  51.572  42.524  1.00  0.00     0.270 C 
HETATM   21  C   UNL     1      36.282  51.428  42.698  1.00  0.00     0.235 C 
HETATM   22  C   UNL     1      36.941  50.617  41.588  1.00  0.00     0.030 C 
HETATM   23  C   UNL     1      36.002  50.700  40.396  1.00  0.00     0.035 C 
ENDBRANCH  16  17
ENDBRANCH  15  16
ENDBRANCH  12  15
ENDBRANCH  10  11
ENDBRANCH   5  10
BRANCH   6  24
HETATM   24  C   UNL     1      27.657  48.795  39.533  1.00  0.00    -0.024 C 
HETATM   25  C   UNL     1      26.835  47.662  39.783  1.00  0.00    -0.053 C 
HETATM   26  C   UNL     1      26.910  46.794  41.017  1.00  0.00     0.049 C 
HETATM   27  C   UNL     1      25.823  47.306  38.868  1.00  0.00     0.014 C 
HETATM   28  C   UNL     1      25.532  48.087  37.751  1.00  0.00    -0.061 C 
HETATM   29  C   UNL     1      24.397  47.720  36.841  1.00  0.00     0.048 C 
HETATM   30  C   UNL     1      26.240  49.270  37.574  1.00  0.00     0.007 C 
HETATM   31  C   UNL     1      27.267  49.624  38.457  1.00  0.00     0.011 C 
ENDBRANCH   6  24
BRANCH   9  32
HETATM   32  C   UNL     1      30.482  47.585  39.636  1.00  0.00     0.293 C 
HETATM   33  O   UNL     1      31.033  48.151  38.703  1.00  0.00    -0.259 OA
BRANCH  32  34
HETATM   34  O   UNL     1      30.240  46.272  39.782  1.00  0.00    -0.323 OA
HETATM   35  C   UNL     1      29.609  45.665  38.650  1.00  0.00     0.213 C 
ENDBRANCH  32  34
ENDBRANCH   9  32
BRANCH   1  36
HETATM   36  C   UNL     1      32.022  47.995  42.242  1.00  0.00     0.056 C 
HETATM   37  C   UNL     1      33.220  48.462  41.426  1.00  0.00     0.011 C 
ENDBRANCH   1  36
TORSDOF 9
ENDMDL
MODEL 6
REMARK VINA RESULT:      -7.1     19.472     22.291
REMARK  9 active torsions:
REMARK  status: ('A' for Active; 'I' for Inactive)
REMARK    1  A    between atoms: C_2  and  C_3 
REMARK    2  A    between atoms: C_7  and  C_8 
REMARK    3  A    between atoms: C_8  and  C_9 
REMARK       I    between atoms: C_9  and  N_10 
REMARK    4  A    between atoms: N_10  and  C_11 
REMARK    5  A    between atoms: C_11  and  C_12 
REMARK    6  A    between atoms: C_12  and  C_13 
REMARK    7  A    between atoms: C_21  and  C_22 
REMARK    8  A    between atoms: C_32  and  C_33 
REMARK    9  A    between atoms: C_33  and  O_34 
ROOT
HETATM    1  C   UNL     1      36.854  44.463  66.344  1.00  0.00     0.051 C 
HETATM    2  N   UNL     1      37.531  43.890  67.433  1.00  0.00    -0.228 NA
HETATM    3  C   UNL     1      38.673  44.424  67.723  1.00  0.00     0.170 C 
HETATM    4  N   UNL     1      39.138  45.790  67.114  1.00  0.00    -0.318 N 
HETATM    5  C   UNL     1      40.349  45.637  66.674  1.00  0.00     0.011 C 
HETATM    6  C   UNL     1      37.906  46.589  66.916  1.00  0.00     0.166 C 
HETATM    7  S   UNL     1      39.989  43.622  68.490  1.00  0.00    -0.086 SA
HETATM    8  C   UNL     1      41.118  44.497  67.339  1.00  0.00     0.135 C 
HETATM    9  C   UNL     1      37.073  45.756  65.991  1.00  0.00     0.069 C 
ENDROOT
BRANCH   5  10
HETATM   10  C   UNL     1      40.794  46.326  65.414  1.00  0.00     0.156 C 
BRANCH  10  11
HETATM   11  C   UNL     1      41.102  45.461  64.210  1.00  0.00     0.222 C 
HETATM   12  N   UNL     1      40.089  44.578  63.898  1.00  0.00    -0.361 N 
HETATM   13  H   UNL     1      39.265  44.550  64.497  1.00  0.00     0.162 HD
HETATM   14  O   UNL     1      42.157  45.512  63.583  1.00  0.00    -0.273 OA
BRANCH  12  15
HETATM   15  C   UNL     1      40.301  43.410  63.060  1.00  0.00     0.124 C 
BRANCH  15  16
HETATM   16  C   UNL     1      39.201  42.347  63.130  1.00  0.00     0.053 C 
BRANCH  16  17
HETATM   17  C   UNL     1      39.282  41.381  64.305  1.00  0.00     0.189 C 
HETATM   18  N   UNL     1      39.042  39.921  63.975  1.00  0.00    -0.071 N 
HETATM   19  H   UNL     1      38.014  39.796  63.923  1.00  0.00     0.279 HD
HETATM   20  C   UNL     1      39.647  39.384  62.705  1.00  0.00     0.270 C 
HETATM   21  C   UNL     1      39.570  39.154  65.184  1.00  0.00     0.235 C 
HETATM   22  C   UNL     1      40.469  40.134  65.931  1.00  0.00     0.030 C 
HETATM   23  C   UNL     1      40.622  41.340  65.019  1.00  0.00     0.035 C 
ENDBRANCH  16  17
ENDBRANCH  15  16
ENDBRANCH  12  15
ENDBRANCH  10  11
ENDBRANCH   5  10
BRANCH   6  24
HETATM   24  C   UNL     1      37.983  48.113  66.806  1.00  0.00    -0.024 C 
HETATM   25  C   UNL     1      37.085  48.956  67.517  1.00  0.00    -0.053 C 
HETATM   26  C   UNL     1      36.016  48.475  68.471  1.00  0.00     0.049 C 
HETATM   27  C   UNL     1      37.188  50.358  67.400  1.00  0.00     0.014 C 
HETATM   28  C   UNL     1      38.210  50.962  66.672  1.00  0.00    -0.061 C 
HETATM   29  C   UNL     1      38.336  52.457  66.633  1.00  0.00     0.048 C 
HETATM   30  C   UNL     1      39.172  50.147  66.087  1.00  0.00     0.007 C 
HETATM   31  C   UNL     1      39.069  48.753  66.170  1.00  0.00     0.011 C 
ENDBRANCH   6  24
BRANCH   9  32
HETATM   32  C   UNL     1      36.931  46.234  64.611  1.00  0.00     0.293 C 
HETATM   33  O   UNL     1      37.514  45.650  63.708  1.00  0.00    -0.259 OA
BRANCH  32  34
HETATM   34  O   UNL     1      36.152  47.324  64.523  1.00  0.00    -0.323 OA
HETATM   35  C   UNL     1      36.589  48.278  63.550  1.00  0.00     0.213 C 
ENDBRANCH  32  34
ENDBRANCH   9  32
BRANCH   1  36
HETATM   36  C   UNL     1      36.070  43.450  65.527  1.00  0.00     0.056 C 
HETATM   37  C   UNL     1      34.654  43.255  66.051  1.00  0.00     0.011 C 
ENDBRANCH   1  36
TORSDOF 9
ENDMDL
MODEL 7
REMARK VINA RESULT:      -6.9     19.784     22.947
REMARK  9 active torsions:
REMARK  status: ('A' for Active; 'I' for Inactive)
REMARK    1  A    between atoms: C_2  and  C_3 
REMARK    2  A    between atoms: C_7  and  C_8 
REMARK    3  A    between atoms: C_8  and  C_9 
REMARK       I    between atoms: C_9  and  N_10 
REMARK    4  A    between atoms: N_10  and  C_11 
REMARK    5  A    between atoms: C_11  and  C_12 
REMARK    6  A    between atoms: C_12  and  C_13 
REMARK    7  A    between atoms: C_21  and  C_22 
REMARK    8  A    between atoms: C_32  and  C_33 
REMARK    9  A    between atoms: C_33  and  O_34 
ROOT
HETATM    1  C   UNL     1      38.295  44.588  63.979  1.00  0.00     0.051 C 
HETATM    2  N   UNL     1      39.461  45.281  63.617  1.00  0.00    -0.228 NA
HETATM    3  C   UNL     1      40.520  44.987  64.300  1.00  0.00     0.170 C 
HETATM    4  N   UNL     1      40.584  43.744  65.251  1.00  0.00    -0.318 N 
HETATM    5  C   UNL     1      41.070  44.139  66.388  1.00  0.00     0.011 C 
HETATM    6  C   UNL     1      39.713  42.714  64.637  1.00  0.00     0.166 C 
HETATM    7  S   UNL     1      41.857  46.034  64.578  1.00  0.00    -0.086 SA
HETATM    8  C   UNL     1      41.916  45.408  66.301  1.00  0.00     0.135 C 
HETATM    9  C   UNL     1      38.366  43.367  64.569  1.00  0.00     0.069 C 
ENDROOT
BRANCH   5  10
HETATM   10  C   UNL     1      40.559  43.558  67.677  1.00  0.00     0.156 C 
BRANCH  10  11
HETATM   11  C   UNL     1      39.946  44.509  68.683  1.00  0.00     0.222 C 
HETATM   12  N   UNL     1      38.960  45.310  68.147  1.00  0.00    -0.361 N 
HETATM   13  H   UNL     1      38.755  45.232  67.151  1.00  0.00     0.162 HD
HETATM   14  O   UNL     1      40.302  44.586  69.856  1.00  0.00    -0.273 OA
BRANCH  12  15
HETATM   15  C   UNL     1      38.512  46.534  68.789  1.00  0.00     0.124 C 
BRANCH  15  16
HETATM   16  C   UNL     1      39.304  47.792  68.423  1.00  0.00     0.053 C 
BRANCH  16  17
HETATM   17  C   UNL     1      38.933  48.453  67.101  1.00  0.00     0.189 C 
HETATM   18  N   UNL     1      38.055  49.683  67.203  1.00  0.00    -0.071 N 
HETATM   19  H   UNL     1      37.083  49.343  67.323  1.00  0.00     0.279 HD
HETATM   20  C   UNL     1      38.350  50.663  68.308  1.00  0.00     0.270 C 
HETATM   21  C   UNL     1      38.172  50.363  65.842  1.00  0.00     0.235 C 
HETATM   22  C   UNL     1      39.418  49.769  65.193  1.00  0.00     0.030 C 
HETATM   23  C   UNL     1      40.106  48.955  66.276  1.00  0.00     0.035 C 
ENDBRANCH  16  17
ENDBRANCH  15  16
ENDBRANCH  12  15
ENDBRANCH  10  11
ENDBRANCH   5  10
BRANCH   6  24
HETATM   24  C   UNL     1      39.894  41.238  64.992  1.00  0.00    -0.024 C 
HETATM   25  C   UNL     1      39.648  40.209  64.041  1.00  0.00    -0.053 C 
HETATM   26  C   UNL     1      39.240  40.437  62.605  1.00  0.00     0.049 C 
HETATM   27  C   UNL     1      39.832  38.857  64.398  1.00  0.00     0.014 C 
HETATM   28  C   UNL     1      40.342  38.487  65.641  1.00  0.00    -0.061 C 
HETATM   29  C   UNL     1      40.599  37.043  65.958  1.00  0.00     0.048 C 
HETATM   30  C   UNL     1      40.714  39.492  66.525  1.00  0.00     0.007 C 
HETATM   31  C   UNL     1      40.511  40.839  66.198  1.00  0.00     0.011 C 
ENDBRANCH   6  24
BRANCH   9  32
HETATM   32  C   UNL     1      37.340  42.875  65.497  1.00  0.00     0.293 C 
HETATM   33  O   UNL     1      37.273  43.345  66.624  1.00  0.00    -0.259 OA
BRANCH  32  34
HETATM   34  O   UNL     1      36.586  41.904  64.958  1.00  0.00    -0.323 OA
HETATM   35  C   UNL     1      35.218  41.925  65.380  1.00  0.00     0.213 C 
ENDBRANCH  32  34
ENDBRANCH   9  32
BRANCH   1  36
HETATM   36  C   UNL     1      37.034  45.426  63.845  1.00  0.00     0.056 C 
HETATM   37  C   UNL     1      36.963  46.537  64.884  1.00  0.00     0.011 C 
ENDBRANCH   1  36
TORSDOF 9
ENDMDL
MODEL 8
REMARK VINA RESULT:      -6.8      3.625      8.934
REMARK  9 active torsions:
REMARK  status: ('A' for Active; 'I' for Inactive)
REMARK    1  A    between atoms: C_2  and  C_3 
REMARK    2  A    between atoms: C_7  and  C_8 
REMARK    3  A    between atoms: C_8  and  C_9 
REMARK       I    between atoms: C_9  and  N_10 
REMARK    4  A    between atoms: N_10  and  C_11 
REMARK    5  A    between atoms: C_11  and  C_12 
REMARK    6  A    between atoms: C_12  and  C_13 
REMARK    7  A    between atoms: C_21  and  C_22 
REMARK    8  A    between atoms: C_32  and  C_33 
REMARK    9  A    between atoms: C_33  and  O_34 
ROOT
HETATM    1  C   UNL     1      17.818  47.143  48.024  1.00  0.00     0.051 C 
HETATM    2  N   UNL     1      17.720  47.704  49.308  1.00  0.00    -0.228 NA
HETATM    3  C   UNL     1      18.239  48.881  49.445  1.00  0.00     0.170 C 
HETATM    4  N   UNL     1      18.674  49.751  48.217  1.00  0.00    -0.318 N 
HETATM    5  C   UNL     1      19.872  50.194  48.449  1.00  0.00     0.011 C 
HETATM    6  C   UNL     1      17.738  49.409  47.121  1.00  0.00     0.166 C 
HETATM    7  S   UNL     1      18.863  49.538  50.907  1.00  0.00    -0.086 SA
HETATM    8  C   UNL     1      20.242  50.252  49.930  1.00  0.00     0.135 C 
HETATM    9  C   UNL     1      17.925  47.935  46.926  1.00  0.00     0.069 C 
ENDROOT
BRANCH   5  10
HETATM   10  C   UNL     1      20.868  50.317  47.330  1.00  0.00     0.156 C 
BRANCH  10  11
HETATM   11  C   UNL     1      22.235  49.701  47.534  1.00  0.00     0.222 C 
HETATM   12  N   UNL     1      22.186  48.397  47.980  1.00  0.00    -0.361 N 
HETATM   13  H   UNL     1      21.275  47.979  48.167  1.00  0.00     0.162 HD
HETATM   14  O   UNL     1      23.291  50.302  47.350  1.00  0.00    -0.273 OA
BRANCH  12  15
HETATM   15  C   UNL     1      23.321  47.741  48.607  1.00  0.00     0.124 C 
BRANCH  15  16
HETATM   16  C   UNL     1      23.088  46.287  49.024  1.00  0.00     0.053 C 
BRANCH  16  17
HETATM   17  C   UNL     1      24.051  45.730  50.066  1.00  0.00     0.189 C 
HETATM   18  N   UNL     1      23.607  44.460  50.761  1.00  0.00    -0.071 N 
HETATM   19  H   UNL     1      22.945  44.748  51.506  1.00  0.00     0.279 HD
HETATM   20  C   UNL     1      22.940  43.400  49.924  1.00  0.00     0.270 C 
HETATM   21  C   UNL     1      24.870  43.907  51.415  1.00  0.00     0.235 C 
HETATM   22  C   UNL     1      26.032  44.606  50.717  1.00  0.00     0.030 C 
HETATM   23  C   UNL     1      25.425  45.351  49.540  1.00  0.00     0.035 C 
ENDBRANCH  16  17
ENDBRANCH  15  16
ENDBRANCH  12  15
ENDBRANCH  10  11
ENDBRANCH   5  10
BRANCH   6  24
HETATM   24  C   UNL     1      17.532  50.373  45.951  1.00  0.00    -0.024 C 
HETATM   25  C   UNL     1      16.581  51.428  46.016  1.00  0.00    -0.053 C 
HETATM   26  C   UNL     1      15.723  51.748  47.218  1.00  0.00     0.049 C 
HETATM   27  C   UNL     1      16.421  52.305  44.923  1.00  0.00     0.014 C 
HETATM   28  C   UNL     1      17.236  52.232  43.796  1.00  0.00    -0.061 C 
HETATM   29  C   UNL     1      17.090  53.230  42.686  1.00  0.00     0.048 C 
HETATM   30  C   UNL     1      18.258  51.290  43.784  1.00  0.00     0.007 C 
HETATM   31  C   UNL     1      18.413  50.393  44.848  1.00  0.00     0.011 C 
ENDBRANCH   6  24
BRANCH   9  32
HETATM   32  C   UNL     1      18.621  47.507  45.707  1.00  0.00     0.293 C 
HETATM   33  O   UNL     1      17.971  47.212  44.714  1.00  0.00    -0.259 OA
BRANCH  32  34
HETATM   34  O   UNL     1      19.954  47.475  45.864  1.00  0.00    -0.323 OA
HETATM   35  C   UNL     1      20.590  46.358  45.233  1.00  0.00     0.213 C 
ENDBRANCH  32  34
ENDBRANCH   9  32
BRANCH   1  36
HETATM   36  C   UNL     1      18.009  45.636  48.042  1.00  0.00     0.056 C 
HETATM   37  C   UNL     1      19.407  45.234  48.492  1.00  0.00     0.011 C 
ENDBRANCH   1  36
TORSDOF 9
ENDMDL
MODEL 9
REMARK VINA RESULT:      -6.8      2.235      3.231
REMARK  9 active torsions:
REMARK  status: ('A' for Active; 'I' for Inactive)
REMARK    1  A    between atoms: C_2  and  C_3 
REMARK    2  A    between atoms: C_7  and  C_8 
REMARK    3  A    between atoms: C_8  and  C_9 
REMARK       I    between atoms: C_9  and  N_10 
REMARK    4  A    between atoms: N_10  and  C_11 
REMARK    5  A    between atoms: C_11  and  C_12 
REMARK    6  A    between atoms: C_12  and  C_13 
REMARK    7  A    between atoms: C_21  and  C_22 
REMARK    8  A    between atoms: C_32  and  C_33 
REMARK    9  A    between atoms: C_33  and  O_34 
ROOT
HETATM    1  C   UNL     1      27.155  44.069  52.282  1.00  0.00     0.051 C 
HETATM    2  N   UNL     1      27.704  43.243  51.288  1.00  0.00    -0.228 NA
HETATM    3  C   UNL     1      27.043  43.192  50.177  1.00  0.00     0.170 C 
HETATM    4  N   UNL     1      25.889  44.197  49.842  1.00  0.00    -0.318 N 
HETATM    5  C   UNL     1      24.873  43.508  49.422  1.00  0.00     0.011 C 
HETATM    6  C   UNL     1      26.255  45.473  50.500  1.00  0.00     0.166 C 
HETATM    7  S   UNL     1      27.038  41.871  49.074  1.00  0.00    -0.086 SA
HETATM    8  C   UNL     1      25.236  42.138  48.852  1.00  0.00     0.135 C 
HETATM    9  C   UNL     1      26.360  45.120  51.953  1.00  0.00     0.069 C 
ENDROOT
BRANCH   5  10
HETATM   10  C   UNL     1      23.472  43.924  49.777  1.00  0.00     0.156 C 
BRANCH  10  11
HETATM   11  C   UNL     1      22.411  43.810  48.703  1.00  0.00     0.222 C 
HETATM   12  N   UNL     1      21.902  45.029  48.306  1.00  0.00    -0.361 N 
HETATM   13  H   UNL     1      22.235  45.872  48.772  1.00  0.00     0.162 HD
HETATM   14  O   UNL     1      22.015  42.742  48.243  1.00  0.00    -0.273 OA
BRANCH  12  15
HETATM   15  C   UNL     1      20.638  45.156  47.601  1.00  0.00     0.124 C 
BRANCH  15  16
HETATM   16  C   UNL     1      20.749  45.532  46.121  1.00  0.00     0.053 C 
BRANCH  16  17
HETATM   17  C   UNL     1      20.293  44.470  45.128  1.00  0.00     0.189 C 
HETATM   18  N   UNL     1      19.812  44.986  43.787  1.00  0.00    -0.071 N 
HETATM   19  H   UNL     1      18.832  45.298  43.925  1.00  0.00     0.279 HD
HETATM   20  C   UNL     1      20.582  46.116  43.156  1.00  0.00     0.270 C 
HETATM   21  C   UNL     1      19.813  43.764  42.873  1.00  0.00     0.235 C 
HETATM   22  C   UNL     1      20.691  42.731  43.571  1.00  0.00     0.030 C 
HETATM   23  C   UNL     1      21.354  43.459  44.729  1.00  0.00     0.035 C 
ENDBRANCH  16  17
ENDBRANCH  15  16
ENDBRANCH  12  15
ENDBRANCH  10  11
ENDBRANCH   5  10
BRANCH   6  24
HETATM   24  C   UNL     1      25.651  46.793  50.017  1.00  0.00    -0.024 C 
HETATM   25  C   UNL     1      26.451  47.796  49.405  1.00  0.00    -0.053 C 
HETATM   26  C   UNL     1      27.931  47.672  49.123  1.00  0.00     0.049 C 
HETATM   27  C   UNL     1      25.862  48.999  48.962  1.00  0.00     0.014 C 
HETATM   28  C   UNL     1      24.486  49.209  49.021  1.00  0.00    -0.061 C 
HETATM   29  C   UNL     1      23.885  50.468  48.469  1.00  0.00     0.048 C 
HETATM   30  C   UNL     1      23.683  48.177  49.490  1.00  0.00     0.007 C 
HETATM   31  C   UNL     1      24.254  46.988  49.960  1.00  0.00     0.011 C 
ENDBRANCH   6  24
BRANCH   9  32
HETATM   32  C   UNL     1      25.300  45.618  52.837  1.00  0.00     0.293 C 
HETATM   33  O   UNL     1      24.372  44.881  53.140  1.00  0.00    -0.259 OA
BRANCH  32  34
HETATM   34  O   UNL     1      25.492  46.898  53.196  1.00  0.00    -0.323 OA
HETATM   35  C   UNL     1      26.538  47.085  54.156  1.00  0.00     0.213 C 
ENDBRANCH  32  34
ENDBRANCH   9  32
BRANCH   1  36
HETATM   36  C   UNL     1      27.363  43.533  53.689  1.00  0.00     0.056 C 
HETATM   37  C   UNL     1      28.570  42.608  53.783  1.00  0.00     0.011 C 
ENDBRANCH   1  36
TORSDOF 9
ENDMDL
MODEL 10
REMARK VINA RESULT:      -6.7      6.526     12.174
REMARK  9 active torsions:
REMARK  status: ('A' for Active; 'I' for Inactive)
REMARK    1  A    between atoms: C_2  and  C_3 
REMARK    2  A    between atoms: C_7  and  C_8 
REMARK    3  A    between atoms: C_8  and  C_9 
REMARK       I    between atoms: C_9  and  N_10 
REMARK    4  A    between atoms: N_10  and  C_11 
REMARK    5  A    between atoms: C_11  and  C_12 
REMARK    6  A    between atoms: C_12  and  C_13 
REMARK    7  A    between atoms: C_21  and  C_22 
REMARK    8  A    between atoms: C_32  and  C_33 
REMARK    9  A    between atoms: C_33  and  O_34 
ROOT
HETATM    1  C   UNL     1      13.392  53.606  45.693  1.00  0.00     0.051 C 
HETATM    2  N   UNL     1      13.880  54.124  46.903  1.00  0.00    -0.228 NA
HETATM    3  C   UNL     1      14.850  53.460  47.444  1.00  0.00     0.170 C 
HETATM    4  N   UNL     1      15.630  52.341  46.673  1.00  0.00    -0.318 N 
HETATM    5  C   UNL     1      15.698  51.301  47.445  1.00  0.00     0.011 C 
HETATM    6  C   UNL     1      15.635  52.753  45.250  1.00  0.00     0.166 C 
HETATM    7  S   UNL     1      15.214  53.406  49.124  1.00  0.00    -0.086 SA
HETATM    8  C   UNL     1      15.561  51.615  48.934  1.00  0.00     0.135 C 
HETATM    9  C   UNL     1      14.183  52.847  44.891  1.00  0.00     0.069 C 
ENDROOT
BRANCH   5  10
HETATM   10  C   UNL     1      15.597  49.916  46.868  1.00  0.00     0.156 C 
BRANCH  10  11
HETATM   11  C   UNL     1      16.224  48.781  47.649  1.00  0.00     0.222 C 
HETATM   12  N   UNL     1      17.601  48.839  47.687  1.00  0.00    -0.361 N 
HETATM   13  H   UNL     1      18.072  49.586  47.177  1.00  0.00     0.162 HD
HETATM   14  O   UNL     1      15.581  47.877  48.177  1.00  0.00    -0.273 OA
BRANCH  12  15
HETATM   15  C   UNL     1      18.423  47.689  48.024  1.00  0.00     0.124 C 
BRANCH  15  16
HETATM   16  C   UNL     1      19.935  47.917  47.936  1.00  0.00     0.053 C 
BRANCH  16  17
HETATM   17  C   UNL     1      20.458  49.184  48.601  1.00  0.00     0.189 C 
HETATM   18  N   UNL     1      21.657  49.005  49.509  1.00  0.00    -0.071 N 
HETATM   19  H   UNL     1      21.290  48.662  50.417  1.00  0.00     0.279 HD
HETATM   20  C   UNL     1      22.743  48.065  49.056  1.00  0.00     0.270 C 
HETATM   21  C   UNL     1      22.215  50.411  49.705  1.00  0.00     0.235 C 
HETATM   22  C   UNL     1      21.615  51.250  48.582  1.00  0.00     0.030 C 
HETATM   23  C   UNL     1      20.929  50.268  47.647  1.00  0.00     0.035 C 
ENDBRANCH  16  17
ENDBRANCH  15  16
ENDBRANCH  12  15
ENDBRANCH  10  11
ENDBRANCH   5  10
BRANCH   6  24
HETATM   24  C   UNL     1      16.685  52.195  44.288  1.00  0.00    -0.024 C 
HETATM   25  C   UNL     1      17.020  52.868  43.081  1.00  0.00    -0.053 C 
HETATM   26  C   UNL     1      16.440  54.191  42.638  1.00  0.00     0.049 C 
HETATM   27  C   UNL     1      17.999  52.331  42.219  1.00  0.00     0.014 C 
HETATM   28  C   UNL     1      18.728  51.192  42.553  1.00  0.00    -0.061 C 
HETATM   29  C   UNL     1      19.816  50.693  41.649  1.00  0.00     0.048 C 
HETATM   30  C   UNL     1      18.502  50.607  43.793  1.00  0.00     0.007 C 
HETATM   31  C   UNL     1      17.514  51.110  44.649  1.00  0.00     0.011 C 
ENDBRANCH   6  24
BRANCH   9  32
HETATM   32  C   UNL     1      13.647  51.807  44.005  1.00  0.00     0.293 C 
HETATM   33  O   UNL     1      13.566  52.022  42.804  1.00  0.00    -0.259 OA
BRANCH  32  34
HETATM   34  O   UNL     1      13.275  50.705  44.676  1.00  0.00    -0.323 OA
HETATM   35  C   UNL     1      13.415  49.492  43.929  1.00  0.00     0.213 C 
ENDBRANCH  32  34
ENDBRANCH   9  32
BRANCH   1  36
HETATM   36  C   UNL     1      11.894  53.798  45.520  1.00  0.00     0.056 C 
HETATM   37  C   UNL     1      11.519  55.259  45.308  1.00  0.00     0.011 C 
ENDBRANCH   1  36
TORSDOF 9
ENDMDL
