MODEL 1
REMARK VINA RESULT:      -9.6      0.000      0.000
REMARK  9 active torsions:
REMARK  status: ('A' for Active; 'I' for Inactive)
REMARK    1  A    between atoms: C_4  and  C_5 
REMARK    2  A    between atoms: C_7  and  O_8 
REMARK    3  A    between atoms: C_10  and  O_11 
REMARK    4  A    between atoms: C_16  and  C_17 
REMARK    5  A    between atoms: C_20  and  C_21 
REMARK    6  A    between atoms: C_21  and  N_22 
REMARK    7  A    between atoms: N_22  and  C_23 
REMARK    8  A    between atoms: C_23  and  N_24 
REMARK    9  A    between atoms: N_24  and  C_25 
ROOT
HETATM    1  C   UNL     1      26.009  45.770  49.696  1.00  0.00     0.067 C 
HETATM    2  C   UNL     1      25.125  44.494  49.629  1.00  0.00     0.001 C 
HETATM    3  C   UNL     1      24.320  44.329  50.936  1.00  0.00     0.040 C 
HETATM    4  C   UNL     1      25.261  44.129  52.137  1.00  0.00     0.206 C 
HETATM    5  N   UNL     1      26.695  44.352  51.638  1.00  0.00    -0.065 N 
HETATM    6  H   UNL     1      27.340  44.299  52.440  1.00  0.00     0.280 HD
HETATM    7  C   UNL     1      26.877  45.719  50.970  1.00  0.00     0.246 C 
HETATM    8  C   UNL     1      26.066  43.278  49.503  1.00  0.00     0.033 C 
HETATM    9  C   UNL     1      27.069  43.249  50.659  1.00  0.00     0.236 C 
ENDROOT
BRANCH   1  10
HETATM   10  C   UNL     1      25.194  47.025  49.564  1.00  0.00     0.038 A 
HETATM   11  N   UNL     1      25.746  48.268  49.349  1.00  0.00    -0.277 N 
HETATM   12  C   UNL     1      27.145  48.625  49.276  1.00  0.00     0.179 C 
HETATM   13  N   UNL     1      24.837  49.230  49.162  1.00  0.00    -0.172 NA
HETATM   14  C   UNL     1      23.644  48.633  49.275  1.00  0.00     0.089 A 
HETATM   15  C   UNL     1      23.828  47.254  49.570  1.00  0.00     0.061 A 
BRANCH  14  16
HETATM   16  C   UNL     1      22.391  49.370  49.068  1.00  0.00    -0.003 A 
HETATM   17  C   UNL     1      21.163  48.685  49.076  1.00  0.00     0.053 A 
HETATM   18  C   UNL     1      19.949  49.365  48.915  1.00  0.00     0.102 A 
HETATM   19  C   UNL     1      19.955  50.762  48.734  1.00  0.00     0.101 A 
HETATM   20  C   UNL     1      21.173  51.448  48.724  1.00  0.00     0.040 A 
HETATM   21  C   UNL     1      22.380  50.758  48.889  1.00  0.00     0.017 A 
BRANCH  18  22
HETATM   22  O   UNL     1      18.716  48.764  48.922  1.00  0.00    -0.353 OA
HETATM   23  C   UNL     1      18.269  48.184  50.140  1.00  0.00     0.210 C 
ENDBRANCH  18  22
BRANCH  19  24
HETATM   24  O   UNL     1      18.727  51.357  48.593  1.00  0.00    -0.353 OA
HETATM   25  C   UNL     1      18.303  52.245  49.617  1.00  0.00     0.210 C 
ENDBRANCH  19  24
ENDBRANCH  14  16
ENDBRANCH   1  10
BRANCH   4  26
HETATM   26  C   UNL     1      24.959  44.997  53.375  1.00  0.00     0.155 C 
BRANCH  26  27
HETATM   27  N   UNL     1      26.053  45.100  54.331  1.00  0.00    -0.365 N 
HETATM   28  H   UNL     1      26.582  44.261  54.553  1.00  0.00     0.161 HD
BRANCH  27  29
HETATM   29  C   UNL     1      26.791  46.240  54.536  1.00  0.00     0.172 C 
HETATM   30  S   UNL     1      26.163  47.736  54.931  1.00  0.00    -0.041 SA
BRANCH  29  31
HETATM   31  N   UNL     1      28.137  46.135  54.333  1.00  0.00    -0.333 N 
HETATM   32  H   UNL     1      28.507  46.842  53.701  1.00  0.00     0.168 HD
BRANCH  31  33
HETATM   33  C   UNL     1      29.105  45.340  54.977  1.00  0.00     0.034 A 
HETATM   34  C   UNL     1      29.486  44.073  54.523  1.00  0.00     0.031 A 
HETATM   35  C   UNL     1      30.416  43.314  55.241  1.00  0.00     0.026 A 
HETATM   36  C   UNL     1      30.963  43.819  56.418  1.00  0.00     0.034 A 
HETATM   37 CL   UNL     1      32.106  42.883  57.297  1.00  0.00    -0.084 Cl
HETATM   38  C   UNL     1      30.576  45.069  56.892  1.00  0.00     0.026 A 
HETATM   39  C   UNL     1      29.639  45.821  56.177  1.00  0.00     0.031 A 
ENDBRANCH  31  33
ENDBRANCH  29  31
ENDBRANCH  27  29
ENDBRANCH  26  27
ENDBRANCH   4  26
TORSDOF 9
ENDMDL
MODEL 2
REMARK VINA RESULT:      -9.4      4.919     10.016
REMARK  9 active torsions:
REMARK  status: ('A' for Active; 'I' for Inactive)
REMARK    1  A    between atoms: C_4  and  C_5 
REMARK    2  A    between atoms: C_7  and  O_8 
REMARK    3  A    between atoms: C_10  and  O_11 
REMARK    4  A    between atoms: C_16  and  C_17 
REMARK    5  A    between atoms: C_20  and  C_21 
REMARK    6  A    between atoms: C_21  and  N_22 
REMARK    7  A    between atoms: N_22  and  C_23 
REMARK    8  A    between atoms: C_23  and  N_24 
REMARK    9  A    between atoms: N_24  and  C_25 
ROOT
HETATM    1  C   UNL     1      25.333  42.322  50.447  1.00  0.00     0.067 C 
HETATM    2  C   UNL     1      25.716  42.920  49.065  1.00  0.00     0.001 C 
HETATM    3  C   UNL     1      25.728  44.463  49.131  1.00  0.00     0.040 C 
HETATM    4  C   UNL     1      24.326  45.008  49.454  1.00  0.00     0.206 C 
HETATM    5  N   UNL     1      23.431  43.806  49.786  1.00  0.00    -0.065 N 
HETATM    6  H   UNL     1      22.506  44.149  50.080  1.00  0.00     0.280 HD
HETATM    7  C   UNL     1      24.002  42.946  50.918  1.00  0.00     0.246 C 
HETATM    8  C   UNL     1      24.624  42.505  48.057  1.00  0.00     0.033 C 
HETATM    9  C   UNL     1      23.243  42.954  48.540  1.00  0.00     0.236 C 
ENDROOT
BRANCH   1  10
HETATM   10  C   UNL     1      26.451  42.449  51.443  1.00  0.00     0.038 A 
HETATM   11  N   UNL     1      27.577  41.658  51.423  1.00  0.00    -0.277 N 
HETATM   12  C   UNL     1      27.879  40.554  50.538  1.00  0.00     0.179 C 
HETATM   13  N   UNL     1      28.489  42.005  52.335  1.00  0.00    -0.172 NA
HETATM   14  C   UNL     1      27.964  43.040  53.003  1.00  0.00     0.089 A 
HETATM   15  C   UNL     1      26.664  43.321  52.498  1.00  0.00     0.061 A 
BRANCH  14  16
HETATM   16  C   UNL     1      28.713  43.738  54.056  1.00  0.00    -0.003 A 
HETATM   17  C   UNL     1      28.182  44.900  54.643  1.00  0.00     0.053 A 
HETATM   18  C   UNL     1      28.857  45.568  55.672  1.00  0.00     0.102 A 
HETATM   19  C   UNL     1      30.095  45.074  56.125  1.00  0.00     0.101 A 
HETATM   20  C   UNL     1      30.628  43.920  55.545  1.00  0.00     0.040 A 
HETATM   21  C   UNL     1      29.944  43.258  54.519  1.00  0.00     0.017 A 
BRANCH  18  22
HETATM   22  O   UNL     1      28.395  46.700  56.297  1.00  0.00    -0.353 OA
HETATM   23  C   UNL     1      27.393  47.460  55.635  1.00  0.00     0.210 C 
ENDBRANCH  18  22
BRANCH  19  24
HETATM   24  O   UNL     1      30.690  45.778  57.142  1.00  0.00    -0.353 OA
HETATM   25  C   UNL     1      30.699  45.189  58.434  1.00  0.00     0.210 C 
ENDBRANCH  19  24
ENDBRANCH  14  16
ENDBRANCH   1  10
BRANCH   4  26
HETATM   26  C   UNL     1      24.263  46.075  50.567  1.00  0.00     0.155 C 
BRANCH  26  27
HETATM   27  N   UNL     1      24.841  47.364  50.211  1.00  0.00    -0.365 N 
HETATM   28  H   UNL     1      25.850  47.429  50.104  1.00  0.00     0.161 HD
BRANCH  27  29
HETATM   29  C   UNL     1      24.185  48.325  49.481  1.00  0.00     0.172 C 
HETATM   30  S   UNL     1      24.923  49.495  48.546  1.00  0.00    -0.041 SA
BRANCH  29  31
HETATM   31  N   UNL     1      22.825  48.348  49.594  1.00  0.00    -0.333 N 
HETATM   32  H   UNL     1      22.456  47.609  50.189  1.00  0.00     0.168 HD
BRANCH  31  33
HETATM   33  C   UNL     1      21.883  49.309  49.176  1.00  0.00     0.034 A 
HETATM   34  C   UNL     1      21.496  50.400  49.960  1.00  0.00     0.031 A 
HETATM   35  C   UNL     1      20.516  51.288  49.505  1.00  0.00     0.026 A 
HETATM   36  C   UNL     1      19.916  51.082  48.265  1.00  0.00     0.034 A 
HETATM   37 CL   UNL     1      18.713  52.176  47.707  1.00  0.00    -0.084 Cl
HETATM   38  C   UNL     1      20.277  49.988  47.484  1.00  0.00     0.026 A 
HETATM   39  C   UNL     1      21.251  49.097  47.946  1.00  0.00     0.031 A 
ENDBRANCH  31  33
ENDBRANCH  29  31
ENDBRANCH  27  29
ENDBRANCH  26  27
ENDBRANCH   4  26
TORSDOF 9
ENDMDL
MODEL 3
REMARK VINA RESULT:      -9.3      4.692      9.028
REMARK  9 active torsions:
REMARK  status: ('A' for Active; 'I' for Inactive)
REMARK    1  A    between atoms: C_4  and  C_5 
REMARK    2  A    between atoms: C_7  and  O_8 
REMARK    3  A    between atoms: C_10  and  O_11 
REMARK    4  A    between atoms: C_16  and  C_17 
REMARK    5  A    between atoms: C_20  and  C_21 
REMARK    6  A    between atoms: C_21  and  N_22 
REMARK    7  A    between atoms: N_22  and  C_23 
REMARK    8  A    between atoms: C_23  and  N_24 
REMARK    9  A    between atoms: N_24  and  C_25 
ROOT
HETATM    1  C   UNL     1      27.235  40.590  49.962  1.00  0.00     0.067 C 
HETATM    2  C   UNL     1      27.332  41.621  48.804  1.00  0.00     0.001 C 
HETATM    3  C   UNL     1      26.378  42.808  49.059  1.00  0.00     0.040 C 
HETATM    4  C   UNL     1      24.914  42.338  49.085  1.00  0.00     0.206 C 
HETATM    5  N   UNL     1      24.923  40.804  49.033  1.00  0.00    -0.065 N 
HETATM    6  H   UNL     1      23.957  40.460  49.126  1.00  0.00     0.280 HD
HETATM    7  C   UNL     1      25.759  40.185  50.158  1.00  0.00     0.246 C 
HETATM    8  C   UNL     1      26.867  40.918  47.512  1.00  0.00     0.033 C 
HETATM    9  C   UNL     1      25.457  40.346  47.685  1.00  0.00     0.236 C 
ENDROOT
BRANCH   1  10
HETATM   10  C   UNL     1      27.901  41.088  51.214  1.00  0.00     0.038 A 
HETATM   11  N   UNL     1      28.901  40.402  51.864  1.00  0.00    -0.277 N 
HETATM   12  C   UNL     1      29.448  39.102  51.545  1.00  0.00     0.179 C 
HETATM   13  N   UNL     1      29.422  41.071  52.897  1.00  0.00    -0.172 NA
HETATM   14  C   UNL     1      28.746  42.225  52.964  1.00  0.00     0.089 A 
HETATM   15  C   UNL     1      27.752  42.253  51.947  1.00  0.00     0.061 A 
BRANCH  14  16
HETATM   16  C   UNL     1      29.083  43.259  53.951  1.00  0.00    -0.003 A 
HETATM   17  C   UNL     1      28.262  44.392  54.090  1.00  0.00     0.053 A 
HETATM   18  C   UNL     1      28.539  45.378  55.045  1.00  0.00     0.102 A 
HETATM   19  C   UNL     1      29.665  45.240  55.879  1.00  0.00     0.101 A 
HETATM   20  C   UNL     1      30.486  44.117  55.744  1.00  0.00     0.040 A 
HETATM   21  C   UNL     1      30.198  43.136  54.788  1.00  0.00     0.017 A 
BRANCH  18  22
HETATM   22  O   UNL     1      27.777  46.502  55.244  1.00  0.00    -0.353 OA
HETATM   23  C   UNL     1      26.920  46.916  54.188  1.00  0.00     0.210 C 
ENDBRANCH  18  22
BRANCH  19  24
HETATM   24  O   UNL     1      29.864  46.242  56.795  1.00  0.00    -0.353 OA
HETATM   25  C   UNL     1      30.347  45.876  58.079  1.00  0.00     0.210 C 
ENDBRANCH  19  24
ENDBRANCH  14  16
ENDBRANCH   1  10
BRANCH   4  26
HETATM   26  C   UNL     1      24.068  42.851  50.269  1.00  0.00     0.155 C 
BRANCH  26  27
HETATM   27  N   UNL     1      22.862  43.576  49.889  1.00  0.00    -0.365 N 
HETATM   28  H   UNL     1      22.049  43.513  50.495  1.00  0.00     0.161 HD
BRANCH  27  29
HETATM   29  C   UNL     1      22.862  44.733  49.149  1.00  0.00     0.172 C 
HETATM   30  S   UNL     1      22.607  44.822  47.501  1.00  0.00    -0.041 SA
BRANCH  29  31
HETATM   31  N   UNL     1      23.158  45.883  49.822  1.00  0.00    -0.333 N 
HETATM   32  H   UNL     1      22.578  46.031  50.645  1.00  0.00     0.168 HD
BRANCH  31  33
HETATM   33  C   UNL     1      24.227  46.788  49.671  1.00  0.00     0.034 A 
HETATM   34  C   UNL     1      24.063  48.105  49.229  1.00  0.00     0.031 A 
HETATM   35  C   UNL     1      25.175  48.935  49.051  1.00  0.00     0.026 A 
HETATM   36  C   UNL     1      26.454  48.447  49.309  1.00  0.00     0.034 A 
HETATM   37 CL   UNL     1      27.818  49.470  49.089  1.00  0.00    -0.084 Cl
HETATM   38  C   UNL     1      26.631  47.132  49.728  1.00  0.00     0.026 A 
HETATM   39  C   UNL     1      25.519  46.302  49.897  1.00  0.00     0.031 A 
ENDBRANCH  31  33
ENDBRANCH  29  31
ENDBRANCH  27  29
ENDBRANCH  26  27
ENDBRANCH   4  26
TORSDOF 9
ENDMDL
MODEL 4
REMARK VINA RESULT:      -9.2      4.851      9.348
REMARK  9 active torsions:
REMARK  status: ('A' for Active; 'I' for Inactive)
REMARK    1  A    between atoms: C_4  and  C_5 
REMARK    2  A    between atoms: C_7  and  O_8 
REMARK    3  A    between atoms: C_10  and  O_11 
REMARK    4  A    between atoms: C_16  and  C_17 
REMARK    5  A    between atoms: C_20  and  C_21 
REMARK    6  A    between atoms: C_21  and  N_22 
REMARK    7  A    between atoms: N_22  and  C_23 
REMARK    8  A    between atoms: C_23  and  N_24 
REMARK    9  A    between atoms: N_24  and  C_25 
ROOT
HETATM    1  C   UNL     1      21.592  49.987  48.060  1.00  0.00     0.067 C 
HETATM    2  C   UNL     1      21.032  51.027  49.068  1.00  0.00     0.001 C 
HETATM    3  C   UNL     1      20.204  50.322  50.165  1.00  0.00     0.040 C 
HETATM    4  C   UNL     1      18.978  49.618  49.558  1.00  0.00     0.206 C 
HETATM    5  N   UNL     1      19.107  49.707  48.031  1.00  0.00    -0.065 N 
HETATM    6  H   UNL     1      18.337  49.177  47.599  1.00  0.00     0.280 HD
HETATM    7  C   UNL     1      20.430  49.127  47.520  1.00  0.00     0.246 C 
HETATM    8  C   UNL     1      20.080  51.963  48.295  1.00  0.00     0.033 C 
HETATM    9  C   UNL     1      18.981  51.158  47.595  1.00  0.00     0.236 C 
ENDROOT
BRANCH   1  10
HETATM   10  C   UNL     1      22.720  49.186  48.648  1.00  0.00     0.038 A 
HETATM   11  N   UNL     1      24.040  49.569  48.573  1.00  0.00    -0.277 N 
HETATM   12  C   UNL     1      24.601  50.717  47.896  1.00  0.00     0.179 C 
HETATM   13  N   UNL     1      24.867  48.765  49.248  1.00  0.00    -0.172 NA
HETATM   14  C   UNL     1      24.096  47.804  49.773  1.00  0.00     0.089 A 
HETATM   15  C   UNL     1      22.745  48.012  49.382  1.00  0.00     0.061 A 
BRANCH  14  16
HETATM   16  C   UNL     1      24.653  46.760  50.643  1.00  0.00    -0.003 A 
HETATM   17  C   UNL     1      24.166  45.443  50.559  1.00  0.00     0.053 A 
HETATM   18  C   UNL     1      24.700  44.419  51.351  1.00  0.00     0.102 A 
HETATM   19  C   UNL     1      25.739  44.711  52.256  1.00  0.00     0.101 A 
HETATM   20  C   UNL     1      26.226  46.018  52.344  1.00  0.00     0.040 A 
HETATM   21  C   UNL     1      25.687  47.033  51.545  1.00  0.00     0.017 A 
BRANCH  18  22
HETATM   22  O   UNL     1      24.282  43.112  51.316  1.00  0.00    -0.353 OA
HETATM   23  C   UNL     1      24.056  42.524  50.042  1.00  0.00     0.210 C 
ENDBRANCH  18  22
BRANCH  19  24
HETATM   24  O   UNL     1      26.216  43.654  52.989  1.00  0.00    -0.353 OA
HETATM   25  C   UNL     1      26.525  43.884  54.355  1.00  0.00     0.210 C 
ENDBRANCH  19  24
ENDBRANCH  14  16
ENDBRANCH   1  10
BRANCH   4  26
HETATM   26  C   UNL     1      18.747  48.163  50.015  1.00  0.00     0.155 C 
BRANCH  26  27
HETATM   27  N   UNL     1      17.506  47.564  49.544  1.00  0.00    -0.365 N 
HETATM   28  H   UNL     1      16.628  48.017  49.785  1.00  0.00     0.161 HD
BRANCH  27  29
HETATM   29  C   UNL     1      17.399  46.816  48.397  1.00  0.00     0.172 C 
HETATM   30  S   UNL     1      16.618  47.299  47.002  1.00  0.00    -0.041 SA
BRANCH  29  31
HETATM   31  N   UNL     1      17.924  45.557  48.443  1.00  0.00    -0.333 N 
HETATM   32  H   UNL     1      17.288  44.868  48.837  1.00  0.00     0.168 HD
BRANCH  31  33
HETATM   33  C   UNL     1      19.108  45.033  47.886  1.00  0.00     0.034 A 
HETATM   34  C   UNL     1      19.137  44.290  46.702  1.00  0.00     0.031 A 
HETATM   35  C   UNL     1      20.341  43.754  46.232  1.00  0.00     0.026 A 
HETATM   36  C   UNL     1      21.517  43.955  46.950  1.00  0.00     0.034 A 
HETATM   37 CL   UNL     1      22.995  43.296  46.370  1.00  0.00    -0.084 Cl
HETATM   38  C   UNL     1      21.497  44.675  48.142  1.00  0.00     0.026 A 
HETATM   39  C   UNL     1      20.291  45.202  48.613  1.00  0.00     0.031 A 
ENDBRANCH  31  33
ENDBRANCH  29  31
ENDBRANCH  27  29
ENDBRANCH  26  27
ENDBRANCH   4  26
TORSDOF 9
ENDMDL
MODEL 5
REMARK VINA RESULT:      -9.1      4.955      9.563
REMARK  9 active torsions:
REMARK  status: ('A' for Active; 'I' for Inactive)
REMARK    1  A    between atoms: C_4  and  C_5 
REMARK    2  A    between atoms: C_7  and  O_8 
REMARK    3  A    between atoms: C_10  and  O_11 
REMARK    4  A    between atoms: C_16  and  C_17 
REMARK    5  A    between atoms: C_20  and  C_21 
REMARK    6  A    between atoms: C_21  and  N_22 
REMARK    7  A    between atoms: N_22  and  C_23 
REMARK    8  A    between atoms: C_23  and  N_24 
REMARK    9  A    between atoms: N_24  and  C_25 
ROOT
HETATM    1  C   UNL     1      21.275  50.133  48.067  1.00  0.00     0.067 C 
HETATM    2  C   UNL     1      20.733  51.120  49.137  1.00  0.00     0.001 C 
HETATM    3  C   UNL     1      19.943  50.356  50.223  1.00  0.00     0.040 C 
HETATM    4  C   UNL     1      18.708  49.666  49.618  1.00  0.00     0.206 C 
HETATM    5  N   UNL     1      18.794  49.826  48.093  1.00  0.00    -0.065 N 
HETATM    6  H   UNL     1      18.017  49.307  47.659  1.00  0.00     0.280 HD
HETATM    7  C   UNL     1      20.108  49.286  47.521  1.00  0.00     0.246 C 
HETATM    8  C   UNL     1      19.750  52.079  48.434  1.00  0.00     0.033 C 
HETATM    9  C   UNL     1      18.641  51.295  47.728  1.00  0.00     0.236 C 
ENDROOT
BRANCH   1  10
HETATM   10  C   UNL     1      22.428  49.320  48.587  1.00  0.00     0.038 A 
HETATM   11  N   UNL     1      23.732  49.760  48.575  1.00  0.00    -0.277 N 
HETATM   12  C   UNL     1      24.254  50.995  48.032  1.00  0.00     0.179 C 
HETATM   13  N   UNL     1      24.582  48.923  49.175  1.00  0.00    -0.172 NA
HETATM   14  C   UNL     1      23.845  47.882  49.583  1.00  0.00     0.089 A 
HETATM   15  C   UNL     1      22.492  48.077  49.193  1.00  0.00     0.061 A 
BRANCH  14  16
HETATM   16  C   UNL     1      24.433  46.774  50.347  1.00  0.00    -0.003 A 
HETATM   17  C   UNL     1      25.281  47.044  51.436  1.00  0.00     0.053 A 
HETATM   18  C   UNL     1      25.828  46.009  52.205  1.00  0.00     0.102 A 
HETATM   19  C   UNL     1      25.533  44.671  51.879  1.00  0.00     0.101 A 
HETATM   20  C   UNL     1      24.692  44.397  50.797  1.00  0.00     0.040 A 
HETATM   21  C   UNL     1      24.148  45.439  50.037  1.00  0.00     0.017 A 
BRANCH  18  22
HETATM   22  O   UNL     1      26.653  46.198  53.285  1.00  0.00    -0.353 OA
HETATM   23  C   UNL     1      26.186  47.029  54.339  1.00  0.00     0.210 C 
ENDBRANCH  18  22
BRANCH  19  24
HETATM   24  O   UNL     1      26.099  43.715  52.684  1.00  0.00    -0.353 OA
HETATM   25  C   UNL     1      27.049  42.838  52.098  1.00  0.00     0.210 C 
ENDBRANCH  19  24
ENDBRANCH  14  16
ENDBRANCH   1  10
BRANCH   4  26
HETATM   26  C   UNL     1      18.506  48.189  50.013  1.00  0.00     0.155 C 
BRANCH  26  27
HETATM   27  N   UNL     1      17.292  47.577  49.490  1.00  0.00    -0.365 N 
HETATM   28  H   UNL     1      16.399  48.016  49.698  1.00  0.00     0.161 HD
BRANCH  27  29
HETATM   29  C   UNL     1      17.241  46.837  48.334  1.00  0.00     0.172 C 
HETATM   30  S   UNL     1      16.522  47.325  46.908  1.00  0.00    -0.041 SA
BRANCH  29  31
HETATM   31  N   UNL     1      17.770  45.579  48.396  1.00  0.00    -0.333 N 
HETATM   32  H   UNL     1      17.149  44.901  48.831  1.00  0.00     0.168 HD
BRANCH  31  33
HETATM   33  C   UNL     1      18.933  45.041  47.811  1.00  0.00     0.034 A 
HETATM   34  C   UNL     1      18.921  44.263  46.649  1.00  0.00     0.031 A 
HETATM   35  C   UNL     1      20.108  43.716  46.151  1.00  0.00     0.026 A 
HETATM   36  C   UNL     1      21.309  43.940  46.819  1.00  0.00     0.034 A 
HETATM   37 CL   UNL     1      22.766  43.266  46.205  1.00  0.00    -0.084 Cl
HETATM   38  C   UNL     1      21.331  44.695  47.989  1.00  0.00     0.026 A 
HETATM   39  C   UNL     1      20.142  45.233  48.489  1.00  0.00     0.031 A 
ENDBRANCH  31  33
ENDBRANCH  29  31
ENDBRANCH  27  29
ENDBRANCH  26  27
ENDBRANCH   4  26
TORSDOF 9
ENDMDL
MODEL 6
REMARK VINA RESULT:      -8.9      1.747      2.031
REMARK  9 active torsions:
REMARK  status: ('A' for Active; 'I' for Inactive)
REMARK    1  A    between atoms: C_4  and  C_5 
REMARK    2  A    between atoms: C_7  and  O_8 
REMARK    3  A    between atoms: C_10  and  O_11 
REMARK    4  A    between atoms: C_16  and  C_17 
REMARK    5  A    between atoms: C_20  and  C_21 
REMARK    6  A    between atoms: C_21  and  N_22 
REMARK    7  A    between atoms: N_22  and  C_23 
REMARK    8  A    between atoms: C_23  and  N_24 
REMARK    9  A    between atoms: N_24  and  C_25 
ROOT
HETATM    1  C   UNL     1      24.809  44.944  48.837  1.00  0.00     0.067 C 
HETATM    2  C   UNL     1      23.946  43.690  49.147  1.00  0.00     0.001 C 
HETATM    3  C   UNL     1      23.833  43.479  50.673  1.00  0.00     0.040 C 
HETATM    4  C   UNL     1      25.214  43.205  51.291  1.00  0.00     0.206 C 
HETATM    5  N   UNL     1      26.262  43.423  50.191  1.00  0.00    -0.065 N 
HETATM    6  H   UNL     1      27.202  43.321  50.599  1.00  0.00     0.280 HD
HETATM    7  C   UNL     1      26.166  44.817  49.560  1.00  0.00     0.246 C 
HETATM    8  C   UNL     1      24.674  42.463  48.559  1.00  0.00     0.033 C 
HETATM    9  C   UNL     1      26.097  42.361  49.115  1.00  0.00     0.236 C 
ENDROOT
BRANCH   1  10
HETATM   10  C   UNL     1      24.075  46.220  49.139  1.00  0.00     0.038 A 
HETATM   11  N   UNL     1      24.608  47.239  49.895  1.00  0.00    -0.277 N 
HETATM   12  C   UNL     1      25.883  47.275  50.577  1.00  0.00     0.179 C 
HETATM   13  N   UNL     1      23.827  48.322  49.956  1.00  0.00    -0.172 NA
HETATM   14  C   UNL     1      22.731  48.023  49.247  1.00  0.00     0.089 A 
HETATM   15  C   UNL     1      22.832  46.693  48.753  1.00  0.00     0.061 A 
BRANCH  14  16
HETATM   16  C   UNL     1      21.659  49.004  49.035  1.00  0.00    -0.003 A 
HETATM   17  C   UNL     1      20.315  48.620  49.186  1.00  0.00     0.053 A 
HETATM   18  C   UNL     1      19.273  49.542  49.024  1.00  0.00     0.102 A 
HETATM   19  C   UNL     1      19.572  50.878  48.695  1.00  0.00     0.101 A 
HETATM   20  C   UNL     1      20.906  51.265  48.542  1.00  0.00     0.040 A 
HETATM   21  C   UNL     1      21.940  50.336  48.710  1.00  0.00     0.017 A 
BRANCH  18  22
HETATM   22  O   UNL     1      17.941  49.241  49.166  1.00  0.00    -0.353 OA
HETATM   23  C   UNL     1      17.562  47.872  49.115  1.00  0.00     0.210 C 
ENDBRANCH  18  22
BRANCH  19  24
HETATM   24  O   UNL     1      18.499  51.722  48.563  1.00  0.00    -0.353 OA
HETATM   25  C   UNL     1      18.053  52.409  49.722  1.00  0.00     0.210 C 
ENDBRANCH  19  24
ENDBRANCH  14  16
ENDBRANCH   1  10
BRANCH   4  26
HETATM   26  C   UNL     1      25.555  44.021  52.556  1.00  0.00     0.155 C 
BRANCH  26  27
HETATM   27  N   UNL     1      26.391  43.325  53.525  1.00  0.00    -0.365 N 
HETATM   28  H   UNL     1      25.937  42.773  54.248  1.00  0.00     0.161 HD
BRANCH  27  29
HETATM   29  C   UNL     1      27.664  42.880  53.263  1.00  0.00     0.172 C 
HETATM   30  S   UNL     1      28.059  41.344  52.740  1.00  0.00    -0.041 SA
BRANCH  29  31
HETATM   31  N   UNL     1      28.677  43.759  53.517  1.00  0.00    -0.333 N 
HETATM   32  H   UNL     1      28.920  44.338  52.716  1.00  0.00     0.168 HD
BRANCH  31  33
HETATM   33  C   UNL     1      29.307  44.112  54.727  1.00  0.00     0.034 A 
HETATM   34  C   UNL     1      28.980  45.257  55.460  1.00  0.00     0.031 A 
HETATM   35  C   UNL     1      29.682  45.575  56.627  1.00  0.00     0.026 A 
HETATM   36  C   UNL     1      30.718  44.751  57.060  1.00  0.00     0.034 A 
HETATM   37 CL   UNL     1      31.578  45.144  58.495  1.00  0.00    -0.084 Cl
HETATM   38  C   UNL     1      31.067  43.620  56.328  1.00  0.00     0.026 A 
HETATM   39  C   UNL     1      30.369  43.309  55.157  1.00  0.00     0.031 A 
ENDBRANCH  31  33
ENDBRANCH  29  31
ENDBRANCH  27  29
ENDBRANCH  26  27
ENDBRANCH   4  26
TORSDOF 9
ENDMDL
MODEL 7
REMARK VINA RESULT:      -8.8      5.680     11.194
REMARK  9 active torsions:
REMARK  status: ('A' for Active; 'I' for Inactive)
REMARK    1  A    between atoms: C_4  and  C_5 
REMARK    2  A    between atoms: C_7  and  O_8 
REMARK    3  A    between atoms: C_10  and  O_11 
REMARK    4  A    between atoms: C_16  and  C_17 
REMARK    5  A    between atoms: C_20  and  C_21 
REMARK    6  A    between atoms: C_21  and  N_22 
REMARK    7  A    between atoms: N_22  and  C_23 
REMARK    8  A    between atoms: C_23  and  N_24 
REMARK    9  A    between atoms: N_24  and  C_25 
ROOT
HETATM    1  C   UNL     1      21.849  49.891  48.060  1.00  0.00     0.067 C 
HETATM    2  C   UNL     1      21.249  50.926  49.050  1.00  0.00     0.001 C 
HETATM    3  C   UNL     1      20.378  50.216  50.109  1.00  0.00     0.040 C 
HETATM    4  C   UNL     1      19.178  49.514  49.450  1.00  0.00     0.206 C 
HETATM    5  N   UNL     1      19.368  49.611  47.930  1.00  0.00    -0.065 N 
HETATM    6  H   UNL     1      18.616  49.082  47.465  1.00  0.00     0.280 HD
HETATM    7  C   UNL     1      20.710  49.033  47.470  1.00  0.00     0.246 C 
HETATM    8  C   UNL     1      20.328  51.866  48.243  1.00  0.00     0.033 C 
HETATM    9  C   UNL     1      19.259  51.064  47.496  1.00  0.00     0.236 C 
ENDROOT
BRANCH   1  10
HETATM   10  C   UNL     1      22.953  49.088  48.689  1.00  0.00     0.038 A 
HETATM   11  N   UNL     1      24.283  49.432  48.604  1.00  0.00    -0.277 N 
HETATM   12  C   UNL     1      24.878  50.533  47.878  1.00  0.00     0.179 C 
HETATM   13  N   UNL     1      25.086  48.638  49.318  1.00  0.00    -0.172 NA
HETATM   14  C   UNL     1      24.288  47.722  49.881  1.00  0.00     0.089 A 
HETATM   15  C   UNL     1      22.944  47.948  49.474  1.00  0.00     0.061 A 
BRANCH  14  16
HETATM   16  C   UNL     1      24.813  46.704  50.800  1.00  0.00    -0.003 A 
HETATM   17  C   UNL     1      24.355  45.377  50.713  1.00  0.00     0.053 A 
HETATM   18  C   UNL     1      24.862  44.377  51.552  1.00  0.00     0.102 A 
HETATM   19  C   UNL     1      25.844  44.704  52.508  1.00  0.00     0.101 A 
HETATM   20  C   UNL     1      26.302  46.020  52.599  1.00  0.00     0.040 A 
HETATM   21  C   UNL     1      25.791  47.012  51.753  1.00  0.00     0.017 A 
BRANCH  18  22
HETATM   22  O   UNL     1      24.470  43.062  51.518  1.00  0.00    -0.353 OA
HETATM   23  C   UNL     1      24.796  42.304  50.361  1.00  0.00     0.210 C 
ENDBRANCH  18  22
BRANCH  19  24
HETATM   24  O   UNL     1      26.297  43.668  53.285  1.00  0.00    -0.353 OA
HETATM   25  C   UNL     1      27.685  43.623  53.581  1.00  0.00     0.210 C 
ENDBRANCH  19  24
ENDBRANCH  14  16
ENDBRANCH   1  10
BRANCH   4  26
HETATM   26  C   UNL     1      18.930  48.057  49.891  1.00  0.00     0.155 C 
BRANCH  26  27
HETATM   27  N   UNL     1      17.546  47.614  49.786  1.00  0.00    -0.365 N 
HETATM   28  H   UNL     1      16.884  47.923  50.491  1.00  0.00     0.161 HD
BRANCH  27  29
HETATM   29  C   UNL     1      16.926  47.307  48.599  1.00  0.00     0.172 C 
HETATM   30  S   UNL     1      17.459  46.170  47.499  1.00  0.00    -0.041 SA
BRANCH  29  31
HETATM   31  N   UNL     1      15.822  48.045  48.284  1.00  0.00    -0.333 N 
HETATM   32  H   UNL     1      14.954  47.647  48.637  1.00  0.00     0.168 HD
BRANCH  31  33
HETATM   33  C   UNL     1      15.706  49.330  47.717  1.00  0.00     0.034 A 
HETATM   34  C   UNL     1      15.793  50.511  48.461  1.00  0.00     0.031 A 
HETATM   35  C   UNL     1      15.616  51.752  47.842  1.00  0.00     0.026 A 
HETATM   36  C   UNL     1      15.346  51.815  46.478  1.00  0.00     0.034 A 
HETATM   37 CL   UNL     1      15.130  53.343  45.720  1.00  0.00    -0.084 Cl
HETATM   38  C   UNL     1      15.235  50.646  45.730  1.00  0.00     0.026 A 
HETATM   39  C   UNL     1      15.403  49.406  46.353  1.00  0.00     0.031 A 
ENDBRANCH  31  33
ENDBRANCH  29  31
ENDBRANCH  27  29
ENDBRANCH  26  27
ENDBRANCH   4  26
TORSDOF 9
ENDMDL
MODEL 8
REMARK VINA RESULT:      -8.6      4.912      9.134
REMARK  9 active torsions:
REMARK  status: ('A' for Active; 'I' for Inactive)
REMARK    1  A    between atoms: C_4  and  C_5 
REMARK    2  A    between atoms: C_7  and  O_8 
REMARK    3  A    between atoms: C_10  and  O_11 
REMARK    4  A    between atoms: C_16  and  C_17 
REMARK    5  A    between atoms: C_20  and  C_21 
REMARK    6  A    between atoms: C_21  and  N_22 
REMARK    7  A    between atoms: N_22  and  C_23 
REMARK    8  A    between atoms: C_23  and  N_24 
REMARK    9  A    between atoms: N_24  and  C_25 
ROOT
HETATM    1  C   UNL     1      27.846  38.989  48.945  1.00  0.00     0.067 C 
HETATM    2  C   UNL     1      28.156  39.896  47.722  1.00  0.00     0.001 C 
HETATM    3  C   UNL     1      27.176  41.089  47.674  1.00  0.00     0.040 C 
HETATM    4  C   UNL     1      25.730  40.601  47.484  1.00  0.00     0.206 C 
HETATM    5  N   UNL     1      25.743  39.070  47.594  1.00  0.00    -0.065 N 
HETATM    6  H   UNL     1      24.774  38.723  47.546  1.00  0.00     0.280 HD
HETATM    7  C   UNL     1      26.358  38.584  48.911  1.00  0.00     0.246 C 
HETATM    8  C   UNL     1      27.931  39.056  46.447  1.00  0.00     0.033 C 
HETATM    9  C   UNL     1      26.511  38.483  46.421  1.00  0.00     0.236 C 
ENDROOT
BRANCH   1  10
HETATM   10  C   UNL     1      28.275  39.624  50.237  1.00  0.00     0.038 A 
HETATM   11  N   UNL     1      29.221  39.076  51.073  1.00  0.00    -0.277 N 
HETATM   12  C   UNL     1      29.914  37.814  50.934  1.00  0.00     0.179 C 
HETATM   13  N   UNL     1      29.525  39.853  52.117  1.00  0.00    -0.172 NA
HETATM   14  C   UNL     1      28.753  40.941  52.000  1.00  0.00     0.089 A 
HETATM   15  C   UNL     1      27.923  40.814  50.852  1.00  0.00     0.061 A 
BRANCH  14  16
HETATM   16  C   UNL     1      28.854  42.062  52.943  1.00  0.00    -0.003 A 
HETATM   17  C   UNL     1      27.687  42.641  53.474  1.00  0.00     0.053 A 
HETATM   18  C   UNL     1      27.752  43.688  54.401  1.00  0.00     0.102 A 
HETATM   19  C   UNL     1      29.008  44.179  54.808  1.00  0.00     0.101 A 
HETATM   20  C   UNL     1      30.170  43.609  54.283  1.00  0.00     0.040 A 
HETATM   21  C   UNL     1      30.094  42.560  53.359  1.00  0.00     0.017 A 
BRANCH  18  22
HETATM   22  O   UNL     1      26.657  44.293  54.967  1.00  0.00    -0.353 OA
HETATM   23  C   UNL     1      25.781  45.011  54.110  1.00  0.00     0.210 C 
ENDBRANCH  18  22
BRANCH  19  24
HETATM   24  O   UNL     1      28.988  45.198  55.726  1.00  0.00    -0.353 OA
HETATM   25  C   UNL     1      30.166  45.423  56.486  1.00  0.00     0.210 C 
ENDBRANCH  19  24
ENDBRANCH  14  16
ENDBRANCH   1  10
BRANCH   4  26
HETATM   26  C   UNL     1      24.684  41.221  48.434  1.00  0.00     0.155 C 
BRANCH  26  27
HETATM   27  N   UNL     1      25.168  42.344  49.226  1.00  0.00    -0.365 N 
HETATM   28  H   UNL     1      26.101  42.702  49.039  1.00  0.00     0.161 HD
BRANCH  27  29
HETATM   29  C   UNL     1      24.353  43.300  49.782  1.00  0.00     0.172 C 
HETATM   30  S   UNL     1      22.716  43.458  49.492  1.00  0.00    -0.041 SA
BRANCH  29  31
HETATM   31  N   UNL     1      24.962  44.224  50.581  1.00  0.00    -0.333 N 
HETATM   32  H   UNL     1      25.118  43.896  51.532  1.00  0.00     0.168 HD
BRANCH  31  33
HETATM   33  C   UNL     1      25.556  45.463  50.269  1.00  0.00     0.034 A 
HETATM   34  C   UNL     1      24.862  46.676  50.291  1.00  0.00     0.031 A 
HETATM   35  C   UNL     1      25.500  47.864  49.918  1.00  0.00     0.026 A 
HETATM   36  C   UNL     1      26.834  47.839  49.517  1.00  0.00     0.034 A 
HETATM   37 CL   UNL     1      27.615  49.300  49.060  1.00  0.00    -0.084 Cl
HETATM   38  C   UNL     1      27.529  46.633  49.470  1.00  0.00     0.026 A 
HETATM   39  C   UNL     1      26.886  45.447  49.834  1.00  0.00     0.031 A 
ENDBRANCH  31  33
ENDBRANCH  29  31
ENDBRANCH  27  29
ENDBRANCH  26  27
ENDBRANCH   4  26
TORSDOF 9
ENDMDL
MODEL 9
REMARK VINA RESULT:      -8.6     11.638     14.033
REMARK  9 active torsions:
REMARK  status: ('A' for Active; 'I' for Inactive)
REMARK    1  A    between atoms: C_4  and  C_5 
REMARK    2  A    between atoms: C_7  and  O_8 
REMARK    3  A    between atoms: C_10  and  O_11 
REMARK    4  A    between atoms: C_16  and  C_17 
REMARK    5  A    between atoms: C_20  and  C_21 
REMARK    6  A    between atoms: C_21  and  N_22 
REMARK    7  A    between atoms: N_22  and  C_23 
REMARK    8  A    between atoms: C_23  and  N_24 
REMARK    9  A    between atoms: N_24  and  C_25 
ROOT
HETATM    1  C   UNL     1      26.116  44.818  40.811  1.00  0.00     0.067 C 
HETATM    2  C   UNL     1      25.319  44.534  39.508  1.00  0.00     0.001 C 
HETATM    3  C   UNL     1      24.776  45.851  38.911  1.00  0.00     0.040 C 
HETATM    4  C   UNL     1      23.784  46.521  39.877  1.00  0.00     0.206 C 
HETATM    5  N   UNL     1      23.820  45.732  41.193  1.00  0.00    -0.065 N 
HETATM    6  H   UNL     1      23.221  46.207  41.884  1.00  0.00     0.280 HD
HETATM    7  C   UNL     1      25.233  45.634  41.778  1.00  0.00     0.246 C 
HETATM    8  C   UNL     1      24.106  43.657  39.883  1.00  0.00     0.033 C 
HETATM    9  C   UNL     1      23.262  44.337  40.964  1.00  0.00     0.236 C 
ENDROOT
BRANCH   1  10
HETATM   10  C   UNL     1      27.451  45.448  40.526  1.00  0.00     0.038 A 
HETATM   11  N   UNL     1      28.453  44.817  39.825  1.00  0.00    -0.277 N 
HETATM   12  C   UNL     1      28.466  43.468  39.303  1.00  0.00     0.179 C 
HETATM   13  N   UNL     1      29.516  45.593  39.599  1.00  0.00    -0.172 NA
HETATM   14  C   UNL     1      29.241  46.768  40.178  1.00  0.00     0.089 A 
HETATM   15  C   UNL     1      27.968  46.702  40.807  1.00  0.00     0.061 A 
BRANCH  14  16
HETATM   16  C   UNL     1      30.163  47.908  40.084  1.00  0.00    -0.003 A 
HETATM   17  C   UNL     1      30.954  48.264  41.191  1.00  0.00     0.053 A 
HETATM   18  C   UNL     1      31.867  49.323  41.122  1.00  0.00     0.102 A 
HETATM   19  C   UNL     1      31.993  50.054  39.924  1.00  0.00     0.101 A 
HETATM   20  C   UNL     1      31.209  49.705  38.821  1.00  0.00     0.040 A 
HETATM   21  C   UNL     1      30.302  48.642  38.901  1.00  0.00     0.017 A 
BRANCH  18  22
HETATM   22  O   UNL     1      32.677  49.720  42.157  1.00  0.00    -0.353 OA
HETATM   23  C   UNL     1      32.068  50.379  43.259  1.00  0.00     0.210 C 
ENDBRANCH  18  22
BRANCH  19  24
HETATM   24  O   UNL     1      32.915  51.070  39.932  1.00  0.00    -0.353 OA
HETATM   25  C   UNL     1      33.172  51.737  38.705  1.00  0.00     0.210 C 
ENDBRANCH  19  24
ENDBRANCH  14  16
ENDBRANCH   1  10
BRANCH   4  26
HETATM   26  C   UNL     1      24.004  48.028  40.122  1.00  0.00     0.155 C 
BRANCH  26  27
HETATM   27  N   UNL     1      25.400  48.443  40.160  1.00  0.00    -0.365 N 
HETATM   28  H   UNL     1      26.082  47.812  40.570  1.00  0.00     0.161 HD
BRANCH  27  29
HETATM   29  C   UNL     1      25.973  49.295  39.248  1.00  0.00     0.172 C 
HETATM   30  S   UNL     1      26.485  48.864  37.717  1.00  0.00    -0.041 SA
BRANCH  29  31
HETATM   31  N   UNL     1      26.192  50.575  39.667  1.00  0.00    -0.333 N 
HETATM   32  H   UNL     1      25.335  51.094  39.846  1.00  0.00     0.168 HD
BRANCH  31  33
HETATM   33  C   UNL     1      27.380  51.226  40.055  1.00  0.00     0.034 A 
HETATM   34  C   UNL     1      27.865  51.226  41.367  1.00  0.00     0.031 A 
HETATM   35  C   UNL     1      29.024  51.937  41.693  1.00  0.00     0.026 A 
HETATM   36  C   UNL     1      29.698  52.655  40.709  1.00  0.00     0.034 A 
HETATM   37 CL   UNL     1      31.123  53.528  41.113  1.00  0.00    -0.084 Cl
HETATM   38  C   UNL     1      29.213  52.681  39.404  1.00  0.00     0.026 A 
HETATM   39  C   UNL     1      28.049  51.977  39.083  1.00  0.00     0.031 A 
ENDBRANCH  31  33
ENDBRANCH  29  31
ENDBRANCH  27  29
ENDBRANCH  26  27
ENDBRANCH   4  26
TORSDOF 9
ENDMDL
MODEL 10
REMARK VINA RESULT:      -8.5      5.334      9.345
REMARK  9 active torsions:
REMARK  status: ('A' for Active; 'I' for Inactive)
REMARK    1  A    between atoms: C_4  and  C_5 
REMARK    2  A    between atoms: C_7  and  O_8 
REMARK    3  A    between atoms: C_10  and  O_11 
REMARK    4  A    between atoms: C_16  and  C_17 
REMARK    5  A    between atoms: C_20  and  C_21 
REMARK    6  A    between atoms: C_21  and  N_22 
REMARK    7  A    between atoms: N_22  and  C_23 
REMARK    8  A    between atoms: C_23  and  N_24 
REMARK    9  A    between atoms: N_24  and  C_25 
ROOT
HETATM    1  C   UNL     1      27.924  38.820  49.015  1.00  0.00     0.067 C 
HETATM    2  C   UNL     1      28.391  39.558  47.731  1.00  0.00     0.001 C 
HETATM    3  C   UNL     1      27.519  40.809  47.482  1.00  0.00     0.040 C 
HETATM    4  C   UNL     1      26.054  40.413  47.233  1.00  0.00     0.206 C 
HETATM    5  N   UNL     1      25.932  38.908  47.506  1.00  0.00    -0.065 N 
HETATM    6  H   UNL     1      24.943  38.632  47.421  1.00  0.00     0.280 HD
HETATM    7  C   UNL     1      26.413  38.527  48.910  1.00  0.00     0.246 C 
HETATM    8  C   UNL     1      28.184  38.601  46.539  1.00  0.00     0.033 C 
HETATM    9  C   UNL     1      26.727  38.137  46.465  1.00  0.00     0.236 C 
ENDROOT
BRANCH   1  10
HETATM   10  C   UNL     1      28.315  39.561  50.263  1.00  0.00     0.038 A 
HETATM   11  N   UNL     1      29.238  39.088  51.167  1.00  0.00    -0.277 N 
HETATM   12  C   UNL     1      29.938  37.823  51.152  1.00  0.00     0.179 C 
HETATM   13  N   UNL     1      29.511  39.950  52.151  1.00  0.00    -0.172 NA
HETATM   14  C   UNL     1      28.741  41.022  51.923  1.00  0.00     0.089 A 
HETATM   15  C   UNL     1      27.943  40.796  50.767  1.00  0.00     0.061 A 
BRANCH  14  16
HETATM   16  C   UNL     1      28.812  42.217  52.773  1.00  0.00    -0.003 A 
HETATM   17  C   UNL     1      29.912  42.406  53.629  1.00  0.00     0.053 A 
HETATM   18  C   UNL     1      30.024  43.552  54.426  1.00  0.00     0.102 A 
HETATM   19  C   UNL     1      29.015  44.533  54.378  1.00  0.00     0.101 A 
HETATM   20  C   UNL     1      27.919  44.350  53.531  1.00  0.00     0.040 A 
HETATM   21  C   UNL     1      27.818  43.202  52.736  1.00  0.00     0.017 A 
BRANCH  18  22
HETATM   22  O   UNL     1      31.072  43.807  55.275  1.00  0.00    -0.353 OA
HETATM   23  C   UNL     1      31.081  43.146  56.533  1.00  0.00     0.210 C 
ENDBRANCH  18  22
BRANCH  19  24
HETATM   24  O   UNL     1      29.202  45.630  55.181  1.00  0.00    -0.353 OA
HETATM   25  C   UNL     1      28.276  45.840  56.237  1.00  0.00     0.210 C 
ENDBRANCH  19  24
ENDBRANCH  14  16
ENDBRANCH   1  10
BRANCH   4  26
HETATM   26  C   UNL     1      25.001  41.212  48.029  1.00  0.00     0.155 C 
BRANCH  26  27
HETATM   27  N   UNL     1      25.220  42.652  48.057  1.00  0.00    -0.365 N 
HETATM   28  H   UNL     1      25.992  43.035  47.519  1.00  0.00     0.161 HD
BRANCH  27  29
HETATM   29  C   UNL     1      24.224  43.577  48.255  1.00  0.00     0.172 C 
HETATM   30  S   UNL     1      22.592  43.297  48.039  1.00  0.00    -0.041 SA
BRANCH  29  31
HETATM   31  N   UNL     1      24.626  44.837  48.594  1.00  0.00    -0.333 N 
HETATM   32  H   UNL     1      24.549  45.505  47.830  1.00  0.00     0.168 HD
BRANCH  31  33
HETATM   33  C   UNL     1      24.955  45.393  49.846  1.00  0.00     0.034 A 
HETATM   34  C   UNL     1      24.519  44.859  51.063  1.00  0.00     0.031 A 
HETATM   35  C   UNL     1      24.840  45.491  52.269  1.00  0.00     0.026 A 
HETATM   36  C   UNL     1      25.591  46.663  52.259  1.00  0.00     0.034 A 
HETATM   37 CL   UNL     1      25.984  47.438  53.742  1.00  0.00    -0.084 Cl
HETATM   38  C   UNL     1      26.012  47.217  51.053  1.00  0.00     0.026 A 
HETATM   39  C   UNL     1      25.683  46.587  49.849  1.00  0.00     0.031 A 
ENDBRANCH  31  33
ENDBRANCH  29  31
ENDBRANCH  27  29
ENDBRANCH  26  27
ENDBRANCH   4  26
TORSDOF 9
ENDMDL
