MODEL 1
REMARK VINA RESULT:      -9.2      0.000      0.000
REMARK  3 active torsions:
REMARK  status: ('A' for Active; 'I' for Inactive)
REMARK    1  A    between atoms: C_9  and  C_10 
REMARK       I    between atoms: C_10  and  N_11 
REMARK    2  A    between atoms: N_11  and  C_12 
REMARK    3  A    between atoms: C_20  and  N_21 
ROOT
HETATM    1  C   UNL     1      26.957  45.508  53.609  1.00  0.00     0.258 C 
HETATM    2  N   UNL     1      26.619  44.921  52.404  1.00  0.00    -0.305 N 
HETATM    3  O   UNL     1      26.417  46.464  54.149  1.00  0.00    -0.267 OA
HETATM    4  H   UNL     1      27.214  44.213  52.007  1.00  0.00     0.170 HD
ENDROOT
BRANCH   2   5
HETATM    5  C   UNL     1      25.526  45.274  51.632  1.00  0.00     0.163 A 
HETATM    6  N   UNL     1      24.358  44.634  51.620  1.00  0.00    -0.155 NA
HETATM    7  N   UNL     1      23.606  45.304  50.741  1.00  0.00    -0.275 N 
HETATM    8  H   UNL     1      22.657  44.980  50.583  1.00  0.00     0.189 HD
HETATM    9  C   UNL     1      24.243  46.361  50.152  1.00  0.00     0.064 A 
HETATM   10  C   UNL     1      25.514  46.374  50.719  1.00  0.00     0.042 A 
HETATM   11  C   UNL     1      23.814  47.281  49.189  1.00  0.00     0.034 A 
HETATM   12  C   UNL     1      26.431  47.363  50.309  1.00  0.00     0.053 A 
HETATM   13  C   UNL     1      26.019  48.295  49.337  1.00  0.00     0.103 A 
HETATM   14  C   UNL     1      24.732  48.257  48.785  1.00  0.00     0.038 A 
BRANCH  13  15
HETATM   15  N   UNL     1      26.968  49.324  48.891  1.00  0.00    -0.116 N 
HETATM   16  O   UNL     1      28.109  49.307  49.372  1.00  0.00    -0.532 OA
HETATM   17  O   UNL     1      26.566  50.153  48.060  1.00  0.00    -0.532 OA
ENDBRANCH  13  15
ENDBRANCH   2   5
BRANCH   1  18
HETATM   18  C   UNL     1      28.133  44.913  54.299  1.00  0.00     0.051 A 
HETATM   19  C   UNL     1      28.747  43.802  53.717  1.00  0.00     0.136 A 
HETATM   20  N   UNL     1      29.825  43.139  54.206  1.00  0.00    -0.233 NA
HETATM   21  C   UNL     1      30.297  43.677  55.347  1.00  0.00     0.206 A 
HETATM   22  O   UNL     1      31.374  43.199  56.030  1.00  0.00    -0.192 OA
HETATM   23  C   UNL     1      29.796  44.784  56.019  1.00  0.00     0.047 A 
HETATM   24  N   UNL     1      31.601  43.979  57.156  1.00  0.00    -0.130 NA
HETATM   25  C   UNL     1      30.654  44.926  57.137  1.00  0.00     0.073 A 
HETATM   26  C   UNL     1      30.597  45.944  58.211  1.00  0.00     0.074 C 
HETATM   27  C   UNL     1      28.675  45.440  55.480  1.00  0.00     0.036 A 
ENDBRANCH   1  18
TORSDOF 3
ENDMDL
MODEL 2
REMARK VINA RESULT:      -9.1      4.541      6.503
REMARK  3 active torsions:
REMARK  status: ('A' for Active; 'I' for Inactive)
REMARK    1  A    between atoms: C_9  and  C_10 
REMARK       I    between atoms: C_10  and  N_11 
REMARK    2  A    between atoms: N_11  and  C_12 
REMARK    3  A    between atoms: C_20  and  N_21 
ROOT
HETATM    1  C   UNL     1      27.522  43.570  51.947  1.00  0.00     0.258 C 
HETATM    2  N   UNL     1      27.071  42.274  52.108  1.00  0.00    -0.305 N 
HETATM    3  O   UNL     1      27.625  44.199  50.902  1.00  0.00    -0.267 OA
HETATM    4  H   UNL     1      27.145  41.825  53.006  1.00  0.00     0.170 HD
ENDROOT
BRANCH   2   5
HETATM    5  C   UNL     1      26.563  41.482  51.093  1.00  0.00     0.163 A 
HETATM    6  N   UNL     1      25.370  41.643  50.521  1.00  0.00    -0.155 NA
HETATM    7  N   UNL     1      25.292  40.669  49.608  1.00  0.00    -0.275 N 
HETATM    8  H   UNL     1      24.450  40.614  49.043  1.00  0.00     0.189 HD
HETATM    9  C   UNL     1      26.387  39.852  49.566  1.00  0.00     0.064 A 
HETATM   10  C   UNL     1      27.250  40.361  50.532  1.00  0.00     0.042 A 
HETATM   11  C   UNL     1      26.680  38.734  48.778  1.00  0.00     0.034 A 
HETATM   12  C   UNL     1      28.490  39.724  50.740  1.00  0.00     0.053 A 
HETATM   13  C   UNL     1      28.800  38.593  49.959  1.00  0.00     0.103 A 
HETATM   14  C   UNL     1      27.911  38.105  48.992  1.00  0.00     0.038 A 
BRANCH  13  15
HETATM   15  N   UNL     1      30.084  37.911  50.171  1.00  0.00    -0.116 N 
HETATM   16  O   UNL     1      30.151  37.074  51.081  1.00  0.00    -0.532 OA
HETATM   17  O   UNL     1      31.027  38.220  49.427  1.00  0.00    -0.532 OA
ENDBRANCH  13  15
ENDBRANCH   2   5
BRANCH   1  18
HETATM   18  C   UNL     1      27.956  44.253  53.196  1.00  0.00     0.051 A 
HETATM   19  C   UNL     1      27.217  45.353  53.636  1.00  0.00     0.136 A 
HETATM   20  N   UNL     1      27.468  46.089  54.749  1.00  0.00    -0.233 NA
HETATM   21  C   UNL     1      28.529  45.638  55.446  1.00  0.00     0.206 A 
HETATM   22  O   UNL     1      28.979  46.200  56.602  1.00  0.00    -0.192 OA
HETATM   23  C   UNL     1      29.334  44.552  55.132  1.00  0.00     0.047 A 
HETATM   24  N   UNL     1      30.082  45.497  57.068  1.00  0.00    -0.130 NA
HETATM   25  C   UNL     1      30.283  44.511  56.184  1.00  0.00     0.073 A 
HETATM   26  C   UNL     1      31.398  43.556  56.375  1.00  0.00     0.074 C 
HETATM   27  C   UNL     1      29.043  43.819  53.968  1.00  0.00     0.036 A 
ENDBRANCH   1  18
TORSDOF 3
ENDMDL
MODEL 3
REMARK VINA RESULT:      -9.0      2.014      2.360
REMARK  3 active torsions:
REMARK  status: ('A' for Active; 'I' for Inactive)
REMARK    1  A    between atoms: C_9  and  C_10 
REMARK       I    between atoms: C_10  and  N_11 
REMARK    2  A    between atoms: N_11  and  C_12 
REMARK    3  A    between atoms: C_20  and  N_21 
ROOT
HETATM    1  C   UNL     1      27.303  44.528  52.964  1.00  0.00     0.258 C 
HETATM    2  N   UNL     1      25.928  44.658  53.002  1.00  0.00    -0.305 N 
HETATM    3  O   UNL     1      27.984  44.075  52.054  1.00  0.00    -0.267 OA
HETATM    4  H   UNL     1      25.474  44.936  53.856  1.00  0.00     0.170 HD
ENDROOT
BRANCH   2   5
HETATM    5  C   UNL     1      25.077  44.369  51.948  1.00  0.00     0.163 A 
HETATM    6  N   UNL     1      24.616  43.156  51.648  1.00  0.00    -0.155 NA
HETATM    7  N   UNL     1      23.845  43.336  50.571  1.00  0.00    -0.275 N 
HETATM    8  H   UNL     1      23.381  42.525  50.176  1.00  0.00     0.189 HD
HETATM    9  C   UNL     1      23.793  44.630  50.132  1.00  0.00     0.064 A 
HETATM   10  C   UNL     1      24.593  45.342  51.020  1.00  0.00     0.042 A 
HETATM   11  C   UNL     1      23.125  45.216  49.051  1.00  0.00     0.034 A 
HETATM   12  C   UNL     1      24.750  46.730  50.832  1.00  0.00     0.053 A 
HETATM   13  C   UNL     1      24.089  47.336  49.746  1.00  0.00     0.103 A 
HETATM   14  C   UNL     1      23.288  46.593  48.869  1.00  0.00     0.038 A 
BRANCH  13  15
HETATM   15  N   UNL     1      24.252  48.781  49.530  1.00  0.00    -0.116 N 
HETATM   16  O   UNL     1      25.377  49.197  49.222  1.00  0.00    -0.532 OA
HETATM   17  O   UNL     1      23.251  49.498  49.673  1.00  0.00    -0.532 OA
ENDBRANCH  13  15
ENDBRANCH   2   5
BRANCH   1  18
HETATM   18  C   UNL     1      28.017  44.969  54.192  1.00  0.00     0.051 A 
HETATM   19  C   UNL     1      27.560  46.115  54.846  1.00  0.00     0.136 A 
HETATM   20  N   UNL     1      28.088  46.655  55.973  1.00  0.00    -0.233 NA
HETATM   21  C   UNL     1      29.131  45.950  56.452  1.00  0.00     0.206 A 
HETATM   22  O   UNL     1      29.828  46.281  57.575  1.00  0.00    -0.192 OA
HETATM   23  C   UNL     1      29.673  44.791  55.914  1.00  0.00     0.047 A 
HETATM   24  N   UNL     1      30.834  45.351  57.795  1.00  0.00    -0.130 NA
HETATM   25  C   UNL     1      30.730  44.461  56.799  1.00  0.00     0.073 A 
HETATM   26  C   UNL     1      31.665  43.316  56.722  1.00  0.00     0.074 C 
HETATM   27  C   UNL     1      29.099  44.267  54.742  1.00  0.00     0.036 A 
ENDBRANCH   1  18
TORSDOF 3
ENDMDL
MODEL 4
REMARK VINA RESULT:      -8.8      2.087      8.099
REMARK  3 active torsions:
REMARK  status: ('A' for Active; 'I' for Inactive)
REMARK    1  A    between atoms: C_9  and  C_10 
REMARK       I    between atoms: C_10  and  N_11 
REMARK    2  A    between atoms: N_11  and  C_12 
REMARK    3  A    between atoms: C_20  and  N_21 
ROOT
HETATM    1  C   UNL     1      25.587  46.068  51.022  1.00  0.00     0.258 C 
HETATM    2  N   UNL     1      26.373  45.047  50.524  1.00  0.00    -0.305 N 
HETATM    3  O   UNL     1      24.996  46.100  52.093  1.00  0.00    -0.267 OA
HETATM    4  H   UNL     1      26.710  45.090  49.577  1.00  0.00     0.170 HD
ENDROOT
BRANCH   2   5
HETATM    5  C   UNL     1      26.702  43.893  51.216  1.00  0.00     0.163 A 
HETATM    6  N   UNL     1      26.325  42.663  50.873  1.00  0.00    -0.155 NA
HETATM    7  N   UNL     1      26.855  41.867  51.808  1.00  0.00    -0.275 N 
HETATM    8  H   UNL     1      26.692  40.869  51.731  1.00  0.00     0.189 HD
HETATM    9  C   UNL     1      27.557  42.533  52.775  1.00  0.00     0.064 A 
HETATM   10  C   UNL     1      27.481  43.874  52.414  1.00  0.00     0.042 A 
HETATM   11  C   UNL     1      28.235  42.072  53.909  1.00  0.00     0.034 A 
HETATM   12  C   UNL     1      28.115  44.835  53.227  1.00  0.00     0.053 A 
HETATM   13  C   UNL     1      28.798  44.391  54.377  1.00  0.00     0.103 A 
HETATM   14  C   UNL     1      28.859  43.032  54.714  1.00  0.00     0.038 A 
BRANCH  13  15
HETATM   15  N   UNL     1      29.454  45.381  55.242  1.00  0.00    -0.116 N 
HETATM   16  O   UNL     1      29.082  46.560  55.158  1.00  0.00    -0.532 OA
HETATM   17  O   UNL     1      30.346  44.977  56.002  1.00  0.00    -0.532 OA
ENDBRANCH  13  15
ENDBRANCH   2   5
BRANCH   1  18
HETATM   18  C   UNL     1      25.429  47.245  50.126  1.00  0.00     0.051 A 
HETATM   19  C   UNL     1      26.578  47.941  49.743  1.00  0.00     0.136 A 
HETATM   20  N   UNL     1      26.618  49.029  48.933  1.00  0.00    -0.233 NA
HETATM   21  C   UNL     1      25.402  49.394  48.484  1.00  0.00     0.206 A 
HETATM   22  O   UNL     1      25.177  50.449  47.653  1.00  0.00    -0.192 OA
HETATM   23  C   UNL     1      24.188  48.783  48.772  1.00  0.00     0.047 A 
HETATM   24  N   UNL     1      23.820  50.551  47.379  1.00  0.00    -0.130 NA
HETATM   25  C   UNL     1      23.239  49.547  48.049  1.00  0.00     0.073 A 
HETATM   26  C   UNL     1      21.772  49.357  47.980  1.00  0.00     0.074 C 
HETATM   27  C   UNL     1      24.190  47.661  49.618  1.00  0.00     0.036 A 
ENDBRANCH   1  18
TORSDOF 3
ENDMDL
MODEL 5
REMARK VINA RESULT:      -8.7      3.043      8.333
REMARK  3 active torsions:
REMARK  status: ('A' for Active; 'I' for Inactive)
REMARK    1  A    between atoms: C_9  and  C_10 
REMARK       I    between atoms: C_10  and  N_11 
REMARK    2  A    between atoms: N_11  and  C_12 
REMARK    3  A    between atoms: C_20  and  N_21 
ROOT
HETATM    1  C   UNL     1      25.286  46.232  51.213  1.00  0.00     0.258 C 
HETATM    2  N   UNL     1      26.474  46.221  51.918  1.00  0.00    -0.305 N 
HETATM    3  O   UNL     1      24.371  45.421  51.282  1.00  0.00    -0.267 OA
HETATM    4  H   UNL     1      27.200  46.878  51.686  1.00  0.00     0.170 HD
ENDROOT
BRANCH   2   5
HETATM    5  C   UNL     1      26.795  45.313  52.913  1.00  0.00     0.163 A 
HETATM    6  N   UNL     1      26.791  45.577  54.219  1.00  0.00    -0.155 NA
HETATM    7  N   UNL     1      27.163  44.433  54.802  1.00  0.00    -0.275 N 
HETATM    8  H   UNL     1      27.219  44.412  55.815  1.00  0.00     0.189 HD
HETATM    9  C   UNL     1      27.434  43.420  53.924  1.00  0.00     0.064 A 
HETATM   10  C   UNL     1      27.198  43.965  52.665  1.00  0.00     0.042 A 
HETATM   11  C   UNL     1      27.858  42.103  54.132  1.00  0.00     0.034 A 
HETATM   12  C   UNL     1      27.395  43.157  51.527  1.00  0.00     0.053 A 
HETATM   13  C   UNL     1      27.828  41.830  51.716  1.00  0.00     0.103 A 
HETATM   14  C   UNL     1      28.055  41.309  52.997  1.00  0.00     0.038 A 
BRANCH  13  15
HETATM   15  N   UNL     1      28.049  40.979  50.539  1.00  0.00    -0.116 N 
HETATM   16  O   UNL     1      27.681  41.409  49.437  1.00  0.00    -0.532 OA
HETATM   17  O   UNL     1      28.589  39.878  50.721  1.00  0.00    -0.532 OA
ENDBRANCH  13  15
ENDBRANCH   2   5
BRANCH   1  18
HETATM   18  C   UNL     1      25.132  47.347  50.241  1.00  0.00     0.051 A 
HETATM   19  C   UNL     1      26.281  48.023  49.826  1.00  0.00     0.136 A 
HETATM   20  N   UNL     1      26.325  49.057  48.948  1.00  0.00    -0.233 NA
HETATM   21  C   UNL     1      25.111  49.385  48.464  1.00  0.00     0.206 A 
HETATM   22  O   UNL     1      24.891  50.384  47.565  1.00  0.00    -0.192 OA
HETATM   23  C   UNL     1      23.898  48.788  48.778  1.00  0.00     0.047 A 
HETATM   24  N   UNL     1      23.536  50.460  47.270  1.00  0.00    -0.130 NA
HETATM   25  C   UNL     1      22.953  49.498  47.998  1.00  0.00     0.073 A 
HETATM   26  C   UNL     1      21.487  49.296  47.926  1.00  0.00     0.074 C 
HETATM   27  C   UNL     1      23.896  47.723  49.695  1.00  0.00     0.036 A 
ENDBRANCH   1  18
TORSDOF 3
ENDMDL
MODEL 6
REMARK VINA RESULT:      -8.6      3.048      8.300
REMARK  3 active torsions:
REMARK  status: ('A' for Active; 'I' for Inactive)
REMARK    1  A    between atoms: C_9  and  C_10 
REMARK       I    between atoms: C_10  and  N_11 
REMARK    2  A    between atoms: N_11  and  C_12 
REMARK    3  A    between atoms: C_20  and  N_21 
ROOT
HETATM    1  C   UNL     1      26.342  43.754  50.373  1.00  0.00     0.258 C 
HETATM    2  N   UNL     1      26.503  43.096  51.577  1.00  0.00    -0.305 N 
HETATM    3  O   UNL     1      27.218  44.199  49.643  1.00  0.00    -0.267 OA
HETATM    4  H   UNL     1      25.699  42.883  52.143  1.00  0.00     0.170 HD
ENDROOT
BRANCH   2   5
HETATM    5  C   UNL     1      27.724  42.744  52.128  1.00  0.00     0.163 A 
HETATM    6  N   UNL     1      28.471  41.713  51.737  1.00  0.00    -0.155 NA
HETATM    7  N   UNL     1      29.544  41.744  52.532  1.00  0.00    -0.275 N 
HETATM    8  H   UNL     1      30.258  41.036  52.396  1.00  0.00     0.189 HD
HETATM    9  C   UNL     1      29.527  42.752  53.456  1.00  0.00     0.064 A 
HETATM   10  C   UNL     1      28.339  43.437  53.216  1.00  0.00     0.042 A 
HETATM   11  C   UNL     1      30.437  43.106  54.458  1.00  0.00     0.034 A 
HETATM   12  C   UNL     1      28.021  44.549  54.021  1.00  0.00     0.053 A 
HETATM   13  C   UNL     1      28.923  44.918  55.038  1.00  0.00     0.103 A 
HETATM   14  C   UNL     1      30.112  44.210  55.255  1.00  0.00     0.038 A 
BRANCH  13  15
HETATM   15  N   UNL     1      28.600  46.069  55.893  1.00  0.00    -0.116 N 
HETATM   16  O   UNL     1      28.106  47.069  55.354  1.00  0.00    -0.532 OA
HETATM   17  O   UNL     1      28.845  45.970  57.104  1.00  0.00    -0.532 OA
ENDBRANCH  13  15
ENDBRANCH   2   5
BRANCH   1  18
HETATM   18  C   UNL     1      24.932  43.962  49.945  1.00  0.00     0.051 A 
HETATM   19  C   UNL     1      24.029  42.910  50.116  1.00  0.00     0.136 A 
HETATM   20  N   UNL     1      22.713  42.927  49.785  1.00  0.00    -0.233 NA
HETATM   21  C   UNL     1      22.317  44.108  49.272  1.00  0.00     0.206 A 
HETATM   22  O   UNL     1      21.045  44.379  48.869  1.00  0.00    -0.192 OA
HETATM   23  C   UNL     1      23.103  45.234  49.065  1.00  0.00     0.047 A 
HETATM   24  N   UNL     1      20.970  45.682  48.395  1.00  0.00    -0.130 NA
HETATM   25  C   UNL     1      22.205  46.185  48.521  1.00  0.00     0.073 A 
HETATM   26  C   UNL     1      22.488  47.577  48.100  1.00  0.00     0.074 C 
HETATM   27  C   UNL     1      24.463  45.173  49.417  1.00  0.00     0.036 A 
ENDBRANCH   1  18
TORSDOF 3
ENDMDL
MODEL 7
REMARK VINA RESULT:      -8.6      2.375      8.253
REMARK  3 active torsions:
REMARK  status: ('A' for Active; 'I' for Inactive)
REMARK    1  A    between atoms: C_9  and  C_10 
REMARK       I    between atoms: C_10  and  N_11 
REMARK    2  A    between atoms: N_11  and  C_12 
REMARK    3  A    between atoms: C_20  and  N_21 
ROOT
HETATM    1  C   UNL     1      25.567  44.596  51.533  1.00  0.00     0.258 C 
HETATM    2  N   UNL     1      26.887  44.409  51.168  1.00  0.00    -0.305 N 
HETATM    3  O   UNL     1      24.941  43.997  52.397  1.00  0.00    -0.267 OA
HETATM    4  H   UNL     1      27.255  44.882  50.360  1.00  0.00     0.170 HD
ENDROOT
BRANCH   2   5
HETATM    5  C   UNL     1      27.767  43.546  51.799  1.00  0.00     0.163 A 
HETATM    6  N   UNL     1      28.109  42.340  51.351  1.00  0.00    -0.155 NA
HETATM    7  N   UNL     1      28.965  41.863  52.261  1.00  0.00    -0.275 N 
HETATM    8  H   UNL     1      29.360  40.942  52.107  1.00  0.00     0.189 HD
HETATM    9  C   UNL     1      29.188  42.708  53.313  1.00  0.00     0.064 A 
HETATM   10  C   UNL     1      28.416  43.833  53.040  1.00  0.00     0.042 A 
HETATM   11  C   UNL     1      29.987  42.575  54.454  1.00  0.00     0.034 A 
HETATM   12  C   UNL     1      28.427  44.905  53.955  1.00  0.00     0.053 A 
HETATM   13  C   UNL     1      29.221  44.787  55.113  1.00  0.00     0.103 A 
HETATM   14  C   UNL     1      29.990  43.642  55.360  1.00  0.00     0.038 A 
BRANCH  13  15
HETATM   15  N   UNL     1      29.234  45.891  56.082  1.00  0.00    -0.116 N 
HETATM   16  O   UNL     1      30.147  45.916  56.919  1.00  0.00    -0.532 OA
HETATM   17  O   UNL     1      28.325  46.731  56.006  1.00  0.00    -0.532 OA
ENDBRANCH  13  15
ENDBRANCH   2   5
BRANCH   1  18
HETATM   18  C   UNL     1      24.832  45.630  50.756  1.00  0.00     0.051 A 
HETATM   19  C   UNL     1      25.049  46.972  51.074  1.00  0.00     0.136 A 
HETATM   20  N   UNL     1      24.468  48.039  50.470  1.00  0.00    -0.233 NA
HETATM   21  C   UNL     1      23.637  47.686  49.470  1.00  0.00     0.206 A 
HETATM   22  O   UNL     1      22.939  48.572  48.706  1.00  0.00    -0.192 OA
HETATM   23  C   UNL     1      23.346  46.398  49.041  1.00  0.00     0.047 A 
HETATM   24  N   UNL     1      22.182  47.887  47.765  1.00  0.00    -0.130 NA
HETATM   25  C   UNL     1      22.437  46.588  47.971  1.00  0.00     0.073 A 
HETATM   26  C   UNL     1      21.783  45.559  47.131  1.00  0.00     0.074 C 
HETATM   27  C   UNL     1      23.967  45.320  49.697  1.00  0.00     0.036 A 
ENDBRANCH   1  18
TORSDOF 3
ENDMDL
MODEL 8
REMARK VINA RESULT:      -8.6      4.128      7.748
REMARK  3 active torsions:
REMARK  status: ('A' for Active; 'I' for Inactive)
REMARK    1  A    between atoms: C_9  and  C_10 
REMARK       I    between atoms: C_10  and  N_11 
REMARK    2  A    between atoms: N_11  and  C_12 
REMARK    3  A    between atoms: C_20  and  N_21 
ROOT
HETATM    1  C   UNL     1      27.177  42.780  51.802  1.00  0.00     0.258 C 
HETATM    2  N   UNL     1      28.183  43.400  52.518  1.00  0.00    -0.305 N 
HETATM    3  O   UNL     1      25.972  42.981  51.882  1.00  0.00    -0.267 OA
HETATM    4  H   UNL     1      29.129  43.064  52.449  1.00  0.00     0.170 HD
ENDROOT
BRANCH   2   5
HETATM    5  C   UNL     1      27.992  44.445  53.407  1.00  0.00     0.163 A 
HETATM    6  N   UNL     1      27.083  45.409  53.269  1.00  0.00    -0.155 NA
HETATM    7  N   UNL     1      27.251  46.197  54.336  1.00  0.00    -0.275 N 
HETATM    8  H   UNL     1      26.643  47.003  54.433  1.00  0.00     0.189 HD
HETATM    9  C   UNL     1      28.257  45.797  55.172  1.00  0.00     0.064 A 
HETATM   10  C   UNL     1      28.768  44.640  54.591  1.00  0.00     0.042 A 
HETATM   11  C   UNL     1      28.748  46.348  56.361  1.00  0.00     0.034 A 
HETATM   12  C   UNL     1      29.838  43.977  55.223  1.00  0.00     0.053 A 
HETATM   13  C   UNL     1      30.349  44.520  56.418  1.00  0.00     0.103 A 
HETATM   14  C   UNL     1      29.813  45.686  56.980  1.00  0.00     0.038 A 
BRANCH  13  15
HETATM   15  N   UNL     1      31.473  43.846  57.083  1.00  0.00    -0.116 N 
HETATM   16  O   UNL     1      31.999  42.887  56.502  1.00  0.00    -0.532 OA
HETATM   17  O   UNL     1      31.826  44.277  58.191  1.00  0.00    -0.532 OA
ENDBRANCH  13  15
ENDBRANCH   2   5
BRANCH   1  18
HETATM   18  C   UNL     1      27.629  41.729  50.851  1.00  0.00     0.051 A 
HETATM   19  C   UNL     1      27.381  41.921  49.490  1.00  0.00     0.136 A 
HETATM   20  N   UNL     1      27.724  41.071  48.489  1.00  0.00    -0.233 NA
HETATM   21  C   UNL     1      28.377  39.978  48.931  1.00  0.00     0.206 A 
HETATM   22  O   UNL     1      28.831  38.980  48.123  1.00  0.00    -0.192 OA
HETATM   23  C   UNL     1      28.700  39.674  50.246  1.00  0.00     0.047 A 
HETATM   24  N   UNL     1      29.460  38.007  48.887  1.00  0.00    -0.130 NA
HETATM   25  C   UNL     1      29.381  38.434  50.155  1.00  0.00     0.073 A 
HETATM   26  C   UNL     1      29.959  37.623  51.251  1.00  0.00     0.074 C 
HETATM   27  C   UNL     1      28.323  40.579  51.253  1.00  0.00     0.036 A 
ENDBRANCH   1  18
TORSDOF 3
ENDMDL
MODEL 9
REMARK VINA RESULT:      -8.6      1.944      2.313
REMARK  3 active torsions:
REMARK  status: ('A' for Active; 'I' for Inactive)
REMARK    1  A    between atoms: C_9  and  C_10 
REMARK       I    between atoms: C_10  and  N_11 
REMARK    2  A    between atoms: N_11  and  C_12 
REMARK    3  A    between atoms: C_20  and  N_21 
ROOT
HETATM    1  C   UNL     1      26.957  43.558  51.435  1.00  0.00     0.258 C 
HETATM    2  N   UNL     1      25.658  43.741  51.869  1.00  0.00    -0.305 N 
HETATM    3  O   UNL     1      27.341  43.374  50.288  1.00  0.00    -0.267 OA
HETATM    4  H   UNL     1      25.457  43.764  52.855  1.00  0.00     0.170 HD
ENDROOT
BRANCH   2   5
HETATM    5  C   UNL     1      24.553  43.837  51.039  1.00  0.00     0.163 A 
HETATM    6  N   UNL     1      23.721  42.836  50.755  1.00  0.00    -0.155 NA
HETATM    7  N   UNL     1      22.816  43.366  49.926  1.00  0.00    -0.275 N 
HETATM    8  H   UNL     1      22.073  42.765  49.586  1.00  0.00     0.189 HD
HETATM    9  C   UNL     1      23.031  44.685  49.633  1.00  0.00     0.064 A 
HETATM   10  C   UNL     1      24.169  45.031  50.355  1.00  0.00     0.042 A 
HETATM   11  C   UNL     1      22.332  45.577  48.811  1.00  0.00     0.034 A 
HETATM   12  C   UNL     1      24.659  46.349  50.261  1.00  0.00     0.053 A 
HETATM   13  C   UNL     1      23.972  47.260  49.434  1.00  0.00     0.103 A 
HETATM   14  C   UNL     1      22.827  46.882  48.721  1.00  0.00     0.038 A 
BRANCH  13  15
HETATM   15  N   UNL     1      24.477  48.635  49.317  1.00  0.00    -0.116 N 
HETATM   16  O   UNL     1      25.680  48.791  49.065  1.00  0.00    -0.532 OA
HETATM   17  O   UNL     1      23.667  49.559  49.482  1.00  0.00    -0.532 OA
ENDBRANCH  13  15
ENDBRANCH   2   5
BRANCH   1  18
HETATM   18  C   UNL     1      27.991  43.559  52.504  1.00  0.00     0.051 A 
HETATM   19  C   UNL     1      29.029  42.628  52.419  1.00  0.00     0.136 A 
HETATM   20  N   UNL     1      30.052  42.491  53.300  1.00  0.00    -0.233 NA
HETATM   21  C   UNL     1      30.000  43.384  54.307  1.00  0.00     0.206 A 
HETATM   22  O   UNL     1      30.914  43.457  55.314  1.00  0.00    -0.192 OA
HETATM   23  C   UNL     1      29.039  44.368  54.501  1.00  0.00     0.047 A 
HETATM   24  N   UNL     1      30.575  44.485  56.183  1.00  0.00    -0.130 NA
HETATM   25  C   UNL     1      29.455  45.026  55.685  1.00  0.00     0.073 A 
HETATM   26  C   UNL     1      28.808  46.165  56.375  1.00  0.00     0.074 C 
HETATM   27  C   UNL     1      27.994  44.474  53.567  1.00  0.00     0.036 A 
ENDBRANCH   1  18
TORSDOF 3
ENDMDL
MODEL 10
REMARK VINA RESULT:      -8.5      2.394      7.872
REMARK  3 active torsions:
REMARK  status: ('A' for Active; 'I' for Inactive)
REMARK    1  A    between atoms: C_9  and  C_10 
REMARK       I    between atoms: C_10  and  N_11 
REMARK    2  A    between atoms: N_11  and  C_12 
REMARK    3  A    between atoms: C_20  and  N_21 
ROOT
HETATM    1  C   UNL     1      24.954  44.984  50.842  1.00  0.00     0.258 C 
HETATM    2  N   UNL     1      25.989  44.188  50.389  1.00  0.00    -0.305 N 
HETATM    3  O   UNL     1      24.232  44.787  51.810  1.00  0.00    -0.267 OA
HETATM    4  H   UNL     1      26.434  44.396  49.510  1.00  0.00     0.170 HD
ENDROOT
BRANCH   2   5
HETATM    5  C   UNL     1      26.449  43.049  51.028  1.00  0.00     0.163 A 
HETATM    6  N   UNL     1      26.134  41.801  50.686  1.00  0.00    -0.155 NA
HETATM    7  N   UNL     1      26.786  41.029  51.561  1.00  0.00    -0.275 N 
HETATM    8  H   UNL     1      26.688  40.023  51.474  1.00  0.00     0.189 HD
HETATM    9  C   UNL     1      27.511  41.725  52.489  1.00  0.00     0.064 A 
HETATM   10  C   UNL     1      27.315  43.064  52.165  1.00  0.00     0.042 A 
HETATM   11  C   UNL     1      28.303  41.295  53.559  1.00  0.00     0.034 A 
HETATM   12  C   UNL     1      27.940  44.053  52.951  1.00  0.00     0.053 A 
HETATM   13  C   UNL     1      28.736  43.639  54.037  1.00  0.00     0.103 A 
HETATM   14  C   UNL     1      28.917  42.283  54.337  1.00  0.00     0.038 A 
BRANCH  13  15
HETATM   15  N   UNL     1      29.385  44.658  54.873  1.00  0.00    -0.116 N 
HETATM   16  O   UNL     1      30.431  44.346  55.459  1.00  0.00    -0.532 OA
HETATM   17  O   UNL     1      28.843  45.771  54.945  1.00  0.00    -0.532 OA
ENDBRANCH  13  15
ENDBRANCH   2   5
BRANCH   1  18
HETATM   18  C   UNL     1      24.684  46.200  50.029  1.00  0.00     0.051 A 
HETATM   19  C   UNL     1      23.402  46.368  49.500  1.00  0.00     0.136 A 
HETATM   20  N   UNL     1      22.982  47.412  48.742  1.00  0.00    -0.233 NA
HETATM   21  C   UNL     1      23.942  48.337  48.547  1.00  0.00     0.206 A 
HETATM   22  O   UNL     1      23.768  49.480  47.827  1.00  0.00    -0.192 OA
HETATM   23  C   UNL     1      25.244  48.302  49.027  1.00  0.00     0.047 A 
HETATM   24  N   UNL     1      24.946  50.215  47.822  1.00  0.00    -0.130 NA
HETATM   25  C   UNL     1      25.820  49.504  48.546  1.00  0.00     0.073 A 
HETATM   26  C   UNL     1      27.200  50.004  48.748  1.00  0.00     0.074 C 
HETATM   27  C   UNL     1      25.640  47.200  49.805  1.00  0.00     0.036 A 
ENDBRANCH   1  18
TORSDOF 3
ENDMDL
