MODEL 1
REMARK VINA RESULT:      -8.2      0.000      0.000
REMARK  6 active torsions:
REMARK  status: ('A' for Active; 'I' for Inactive)
REMARK    1  A    between atoms: C_2  and  C_3 
REMARK    2  A    between atoms: C_7  and  C_8 
REMARK       I    between atoms: C_8  and  N_9 
REMARK    3  A    between atoms: N_9  and  C_10 
REMARK    4  A    between atoms: C_10  and  C_11 
REMARK    5  A    between atoms: C_10  and  C_19 
REMARK    6  A    between atoms: C_14  and  O_15 
ROOT
HETATM    1  C   UNL     1      26.565  43.142  51.694  1.00  0.00     0.151 C 
ENDROOT
BRANCH   1   2
HETATM    2  N   UNL     1      26.364  44.456  51.106  1.00  0.00    -0.343 N 
HETATM    3  C   UNL     1      25.182  45.142  51.201  1.00  0.00     0.270 C 
HETATM    4  O   UNL     1      24.197  44.701  51.785  1.00  0.00    -0.266 OA
HETATM    5  H   UNL     1      27.141  44.859  50.610  1.00  0.00     0.163 HD
BRANCH   3   6
HETATM    6  C   UNL     1      25.169  46.425  50.550  1.00  0.00     0.119 A 
HETATM    7  N   UNL     1      24.045  47.206  50.536  1.00  0.00    -0.273 N 
HETATM    8  N   UNL     1      24.193  48.374  49.889  1.00  0.00    -0.179 NA
HETATM    9  H   UNL     1      23.146  46.986  50.955  1.00  0.00     0.189 HD
HETATM   10  C   UNL     1      25.464  48.352  49.473  1.00  0.00     0.056 A 
HETATM   11  C   UNL     1      26.115  47.154  49.855  1.00  0.00     0.065 A 
BRANCH  10  12
HETATM   12  C   UNL     1      26.033  49.500  48.709  1.00  0.00     0.056 C 
HETATM   13  C   UNL     1      27.542  49.608  48.866  1.00  0.00     0.011 C 
ENDBRANCH  10  12
ENDBRANCH   3   6
ENDBRANCH   1   2
BRANCH   1  14
HETATM   14  C   UNL     1      27.762  43.237  52.638  1.00  0.00    -0.031 A 
HETATM   15  C   UNL     1      28.977  42.595  52.351  1.00  0.00     0.012 A 
HETATM   16  C   UNL     1      30.056  42.690  53.234  1.00  0.00     0.037 A 
HETATM   17  C   UNL     1      29.946  43.422  54.416  1.00  0.00     0.068 A 
HETATM   18  C   UNL     1      28.751  44.083  54.701  1.00  0.00     0.037 A 
HETATM   19  C   UNL     1      27.669  43.994  53.816  1.00  0.00     0.012 A 
BRANCH  17  20
HETATM   20  O   UNL     1      31.069  43.421  55.197  1.00  0.00    -0.356 OA
HETATM   21  C   UNL     1      30.975  44.082  56.452  1.00  0.00     0.210 C 
ENDBRANCH  17  20
ENDBRANCH   1  14
BRANCH   1  22
HETATM   22  C   UNL     1      26.691  42.037  50.639  1.00  0.00    -0.031 A 
HETATM   23  C   UNL     1      26.352  40.708  50.961  1.00  0.00     0.009 A 
HETATM   24  C   UNL     1      26.427  39.690  50.008  1.00  0.00     0.001 A 
HETATM   25  C   UNL     1      26.821  39.983  48.706  1.00  0.00     0.000 A 
HETATM   26  C   UNL     1      27.131  41.293  48.356  1.00  0.00     0.001 A 
HETATM   27  C   UNL     1      27.060  42.313  49.311  1.00  0.00     0.009 A 
ENDBRANCH   1  22
TORSDOF 6
ENDMDL
MODEL 2
REMARK VINA RESULT:      -8.1      3.117      7.349
REMARK  6 active torsions:
REMARK  status: ('A' for Active; 'I' for Inactive)
REMARK    1  A    between atoms: C_2  and  C_3 
REMARK    2  A    between atoms: C_7  and  C_8 
REMARK       I    between atoms: C_8  and  N_9 
REMARK    3  A    between atoms: N_9  and  C_10 
REMARK    4  A    between atoms: C_10  and  C_11 
REMARK    5  A    between atoms: C_10  and  C_19 
REMARK    6  A    between atoms: C_14  and  O_15 
ROOT
HETATM    1  C   UNL     1      24.910  46.924  50.996  1.00  0.00     0.151 C 
ENDROOT
BRANCH   1   2
HETATM    2  N   UNL     1      25.917  46.442  51.926  1.00  0.00    -0.343 N 
HETATM    3  C   UNL     1      26.085  46.965  53.180  1.00  0.00     0.270 C 
HETATM    4  O   UNL     1      25.403  47.886  53.619  1.00  0.00    -0.266 OA
HETATM    5  H   UNL     1      26.508  45.690  51.611  1.00  0.00     0.163 HD
BRANCH   3   6
HETATM    6  C   UNL     1      27.138  46.363  53.955  1.00  0.00     0.119 A 
HETATM    7  N   UNL     1      27.482  45.048  53.790  1.00  0.00    -0.273 N 
HETATM    8  N   UNL     1      28.482  44.636  54.586  1.00  0.00    -0.179 NA
HETATM    9  H   UNL     1      27.060  44.385  53.145  1.00  0.00     0.189 HD
HETATM   10  C   UNL     1      28.805  45.727  55.289  1.00  0.00     0.056 A 
HETATM   11  C   UNL     1      27.991  46.831  54.936  1.00  0.00     0.065 A 
BRANCH  10  12
HETATM   12  C   UNL     1      29.904  45.684  56.295  1.00  0.00     0.056 C 
HETATM   13  C   UNL     1      30.824  44.489  56.096  1.00  0.00     0.011 C 
ENDBRANCH  10  12
ENDBRANCH   3   6
ENDBRANCH   1   2
BRANCH   1  14
HETATM   14  C   UNL     1      24.253  45.705  50.352  1.00  0.00    -0.031 A 
HETATM   15  C   UNL     1      23.537  45.806  49.148  1.00  0.00     0.012 A 
HETATM   16  C   UNL     1      22.939  44.677  48.582  1.00  0.00     0.037 A 
HETATM   17  C   UNL     1      23.040  43.431  49.202  1.00  0.00     0.068 A 
HETATM   18  C   UNL     1      23.768  43.315  50.386  1.00  0.00     0.037 A 
HETATM   19  C   UNL     1      24.373  44.443  50.954  1.00  0.00     0.012 A 
BRANCH  17  20
HETATM   20  O   UNL     1      22.396  42.415  48.551  1.00  0.00    -0.356 OA
HETATM   21  C   UNL     1      23.163  41.252  48.267  1.00  0.00     0.210 C 
ENDBRANCH  17  20
ENDBRANCH   1  14
BRANCH   1  22
HETATM   22  C   UNL     1      25.473  47.933  49.989  1.00  0.00    -0.031 A 
HETATM   23  C   UNL     1      24.606  48.796  49.290  1.00  0.00     0.009 A 
HETATM   24  C   UNL     1      25.098  49.745  48.391  1.00  0.00     0.001 A 
HETATM   25  C   UNL     1      26.469  49.867  48.188  1.00  0.00     0.000 A 
HETATM   26  C   UNL     1      27.347  49.046  48.889  1.00  0.00     0.001 A 
HETATM   27  C   UNL     1      26.855  48.093  49.786  1.00  0.00     0.009 A 
ENDBRANCH   1  22
TORSDOF 6
ENDMDL
MODEL 3
REMARK VINA RESULT:      -7.9      2.909      7.370
REMARK  6 active torsions:
REMARK  status: ('A' for Active; 'I' for Inactive)
REMARK    1  A    between atoms: C_2  and  C_3 
REMARK    2  A    between atoms: C_7  and  C_8 
REMARK       I    between atoms: C_8  and  N_9 
REMARK    3  A    between atoms: N_9  and  C_10 
REMARK    4  A    between atoms: C_10  and  C_11 
REMARK    5  A    between atoms: C_10  and  C_19 
REMARK    6  A    between atoms: C_14  and  O_15 
ROOT
HETATM    1  C   UNL     1      27.579  42.977  52.981  1.00  0.00     0.151 C 
ENDROOT
BRANCH   1   2
HETATM    2  N   UNL     1      28.134  41.933  52.135  1.00  0.00    -0.343 N 
HETATM    3  C   UNL     1      27.357  41.066  51.414  1.00  0.00     0.270 C 
HETATM    4  O   UNL     1      26.130  41.098  51.426  1.00  0.00    -0.266 OA
HETATM    5  H   UNL     1      29.137  41.861  52.096  1.00  0.00     0.163 HD
BRANCH   3   6
HETATM    6  C   UNL     1      28.085  40.095  50.641  1.00  0.00     0.119 A 
HETATM    7  N   UNL     1      29.064  39.323  51.206  1.00  0.00    -0.273 N 
HETATM    8  N   UNL     1      29.650  38.466  50.354  1.00  0.00    -0.179 NA
HETATM    9  H   UNL     1      29.373  39.344  52.173  1.00  0.00     0.189 HD
HETATM   10  C   UNL     1      29.022  38.685  49.194  1.00  0.00     0.056 A 
HETATM   11  C   UNL     1      28.039  39.697  49.319  1.00  0.00     0.065 A 
BRANCH  10  12
HETATM   12  C   UNL     1      29.382  37.904  47.975  1.00  0.00     0.056 C 
HETATM   13  C   UNL     1      28.157  37.399  47.229  1.00  0.00     0.011 C 
ENDBRANCH  10  12
ENDBRANCH   3   6
ENDBRANCH   1   2
BRANCH   1  14
HETATM   14  C   UNL     1      26.951  44.026  52.066  1.00  0.00    -0.031 A 
HETATM   15  C   UNL     1      27.577  44.433  50.876  1.00  0.00     0.012 A 
HETATM   16  C   UNL     1      26.987  45.401  50.059  1.00  0.00     0.037 A 
HETATM   17  C   UNL     1      25.768  45.982  50.409  1.00  0.00     0.068 A 
HETATM   18  C   UNL     1      25.126  45.568  51.577  1.00  0.00     0.037 A 
HETATM   19  C   UNL     1      25.712  44.595  52.396  1.00  0.00     0.012 A 
BRANCH  17  20
HETATM   20  O   UNL     1      25.310  46.925  49.531  1.00  0.00    -0.356 OA
HETATM   21  C   UNL     1      25.954  48.192  49.563  1.00  0.00     0.210 C 
ENDBRANCH  17  20
ENDBRANCH   1  14
BRANCH   1  22
HETATM   22  C   UNL     1      28.605  43.544  53.967  1.00  0.00    -0.031 A 
HETATM   23  C   UNL     1      28.361  44.771  54.616  1.00  0.00     0.009 A 
HETATM   24  C   UNL     1      29.267  45.293  55.543  1.00  0.00     0.001 A 
HETATM   25  C   UNL     1      30.424  44.588  55.858  1.00  0.00     0.000 A 
HETATM   26  C   UNL     1      30.672  43.360  55.253  1.00  0.00     0.001 A 
HETATM   27  C   UNL     1      29.769  42.839  54.322  1.00  0.00     0.009 A 
ENDBRANCH   1  22
TORSDOF 6
ENDMDL
MODEL 4
REMARK VINA RESULT:      -7.6      2.591      6.624
REMARK  6 active torsions:
REMARK  status: ('A' for Active; 'I' for Inactive)
REMARK    1  A    between atoms: C_2  and  C_3 
REMARK    2  A    between atoms: C_7  and  C_8 
REMARK       I    between atoms: C_8  and  N_9 
REMARK    3  A    between atoms: N_9  and  C_10 
REMARK    4  A    between atoms: C_10  and  C_11 
REMARK    5  A    between atoms: C_10  and  C_19 
REMARK    6  A    between atoms: C_14  and  O_15 
ROOT
HETATM    1  C   UNL     1      26.742  43.527  52.084  1.00  0.00     0.151 C 
ENDROOT
BRANCH   1   2
HETATM    2  N   UNL     1      26.719  42.531  51.025  1.00  0.00    -0.343 N 
HETATM    3  C   UNL     1      25.559  42.014  50.513  1.00  0.00     0.270 C 
HETATM    4  O   UNL     1      24.446  42.346  50.909  1.00  0.00    -0.266 OA
HETATM    5  H   UNL     1      27.608  42.221  50.670  1.00  0.00     0.163 HD
BRANCH   3   6
HETATM    6  C   UNL     1      25.736  41.034  49.475  1.00  0.00     0.119 A 
HETATM    7  N   UNL     1      24.729  40.738  48.595  1.00  0.00    -0.273 N 
HETATM    8  N   UNL     1      25.050  39.802  47.686  1.00  0.00    -0.179 NA
HETATM    9  H   UNL     1      23.799  41.146  48.575  1.00  0.00     0.189 HD
HETATM   10  C   UNL     1      26.315  39.485  47.982  1.00  0.00     0.056 A 
HETATM   11  C   UNL     1      26.788  40.223  49.095  1.00  0.00     0.065 A 
BRANCH  10  12
HETATM   12  C   UNL     1      27.052  38.470  47.177  1.00  0.00     0.056 C 
HETATM   13  C   UNL     1      28.389  38.098  47.798  1.00  0.00     0.011 C 
ENDBRANCH  10  12
ENDBRANCH   3   6
ENDBRANCH   1   2
BRANCH   1  14
HETATM   14  C   UNL     1      26.450  44.884  51.448  1.00  0.00    -0.031 A 
HETATM   15  C   UNL     1      27.018  45.257  50.219  1.00  0.00     0.012 A 
HETATM   16  C   UNL     1      26.742  46.507  49.660  1.00  0.00     0.037 A 
HETATM   17  C   UNL     1      25.899  47.408  50.311  1.00  0.00     0.068 A 
HETATM   18  C   UNL     1      25.310  47.040  51.521  1.00  0.00     0.037 A 
HETATM   19  C   UNL     1      25.581  45.785  52.082  1.00  0.00     0.012 A 
BRANCH  17  20
HETATM   20  O   UNL     1      25.726  48.600  49.664  1.00  0.00    -0.356 OA
HETATM   21  C   UNL     1      26.811  49.057  48.867  1.00  0.00     0.210 C 
ENDBRANCH  17  20
ENDBRANCH   1  14
BRANCH   1  22
HETATM   22  C   UNL     1      28.038  43.489  52.901  1.00  0.00    -0.031 A 
HETATM   23  C   UNL     1      28.121  44.173  54.130  1.00  0.00     0.009 A 
HETATM   24  C   UNL     1      29.280  44.126  54.908  1.00  0.00     0.001 A 
HETATM   25  C   UNL     1      30.373  43.376  54.485  1.00  0.00     0.000 A 
HETATM   26  C   UNL     1      30.304  42.668  53.290  1.00  0.00     0.001 A 
HETATM   27  C   UNL     1      29.146  42.717  52.508  1.00  0.00     0.009 A 
ENDBRANCH   1  22
TORSDOF 6
ENDMDL
MODEL 5
REMARK VINA RESULT:      -7.5     10.801     14.339
REMARK  6 active torsions:
REMARK  status: ('A' for Active; 'I' for Inactive)
REMARK    1  A    between atoms: C_2  and  C_3 
REMARK    2  A    between atoms: C_7  and  C_8 
REMARK       I    between atoms: C_8  and  N_9 
REMARK    3  A    between atoms: N_9  and  C_10 
REMARK    4  A    between atoms: C_10  and  C_11 
REMARK    5  A    between atoms: C_10  and  C_19 
REMARK    6  A    between atoms: C_14  and  O_15 
ROOT
HETATM    1  C   UNL     1      16.243  52.225  49.127  1.00  0.00     0.151 C 
ENDROOT
BRANCH   1   2
HETATM    2  N   UNL     1      16.150  53.586  49.628  1.00  0.00    -0.343 N 
HETATM    3  C   UNL     1      15.189  53.989  50.517  1.00  0.00     0.270 C 
HETATM    4  O   UNL     1      14.327  53.236  50.958  1.00  0.00    -0.266 OA
HETATM    5  H   UNL     1      16.831  54.246  49.291  1.00  0.00     0.163 HD
BRANCH   3   6
HETATM    6  C   UNL     1      15.251  55.377  50.894  1.00  0.00     0.119 A 
HETATM    7  N   UNL     1      15.578  56.348  49.986  1.00  0.00    -0.273 N 
HETATM    8  N   UNL     1      15.594  57.592  50.492  1.00  0.00    -0.179 NA
HETATM    9  H   UNL     1      15.802  56.213  49.004  1.00  0.00     0.189 HD
HETATM   10  C   UNL     1      15.257  57.422  51.775  1.00  0.00     0.056 A 
HETATM   11  C   UNL     1      15.038  56.056  52.077  1.00  0.00     0.065 A 
BRANCH  10  12
HETATM   12  C   UNL     1      15.149  58.592  52.693  1.00  0.00     0.056 C 
HETATM   13  C   UNL     1      15.584  58.257  54.111  1.00  0.00     0.011 C 
ENDBRANCH  10  12
ENDBRANCH   3   6
ENDBRANCH   1   2
BRANCH   1  14
HETATM   14  C   UNL     1      17.708  51.801  49.212  1.00  0.00    -0.031 A 
HETATM   15  C   UNL     1      18.700  52.426  48.438  1.00  0.00     0.012 A 
HETATM   16  C   UNL     1      20.032  52.015  48.528  1.00  0.00     0.037 A 
HETATM   17  C   UNL     1      20.402  50.978  49.385  1.00  0.00     0.068 A 
HETATM   18  C   UNL     1      19.429  50.366  50.175  1.00  0.00     0.037 A 
HETATM   19  C   UNL     1      18.093  50.778  50.091  1.00  0.00     0.012 A 
BRANCH  17  20
HETATM   20  O   UNL     1      21.733  50.666  49.364  1.00  0.00    -0.356 OA
HETATM   21  C   UNL     1      22.322  50.466  48.086  1.00  0.00     0.210 C 
ENDBRANCH  17  20
ENDBRANCH   1  14
BRANCH   1  22
HETATM   22  C   UNL     1      15.630  52.069  47.731  1.00  0.00    -0.031 A 
HETATM   23  C   UNL     1      15.620  50.810  47.099  1.00  0.00     0.009 A 
HETATM   24  C   UNL     1      15.038  50.635  45.841  1.00  0.00     0.001 A 
HETATM   25  C   UNL     1      14.434  51.711  45.198  1.00  0.00     0.000 A 
HETATM   26  C   UNL     1      14.403  52.957  45.816  1.00  0.00     0.001 A 
HETATM   27  C   UNL     1      14.989  53.134  47.073  1.00  0.00     0.009 A 
ENDBRANCH   1  22
TORSDOF 6
ENDMDL
MODEL 6
REMARK VINA RESULT:      -7.4      3.072      7.917
REMARK  6 active torsions:
REMARK  status: ('A' for Active; 'I' for Inactive)
REMARK    1  A    between atoms: C_2  and  C_3 
REMARK    2  A    between atoms: C_7  and  C_8 
REMARK       I    between atoms: C_8  and  N_9 
REMARK    3  A    between atoms: N_9  and  C_10 
REMARK    4  A    between atoms: C_10  and  C_11 
REMARK    5  A    between atoms: C_10  and  C_19 
REMARK    6  A    between atoms: C_14  and  O_15 
ROOT
HETATM    1  C   UNL     1      24.499  46.947  50.258  1.00  0.00     0.151 C 
ENDROOT
BRANCH   1   2
HETATM    2  N   UNL     1      25.243  46.048  51.125  1.00  0.00    -0.343 N 
HETATM    3  C   UNL     1      25.586  46.368  52.412  1.00  0.00     0.270 C 
HETATM    4  O   UNL     1      25.297  47.439  52.936  1.00  0.00    -0.266 OA
HETATM    5  H   UNL     1      25.510  45.157  50.740  1.00  0.00     0.163 HD
BRANCH   3   6
HETATM    6  C   UNL     1      26.328  45.354  53.114  1.00  0.00     0.119 A 
HETATM    7  N   UNL     1      25.981  44.964  54.380  1.00  0.00    -0.273 N 
HETATM    8  N   UNL     1      26.771  44.010  54.898  1.00  0.00    -0.179 NA
HETATM    9  H   UNL     1      25.211  45.323  54.937  1.00  0.00     0.189 HD
HETATM   10  C   UNL     1      27.660  43.765  53.929  1.00  0.00     0.056 A 
HETATM   11  C   UNL     1      27.429  44.582  52.795  1.00  0.00     0.065 A 
BRANCH  10  12
HETATM   12  C   UNL     1      28.722  42.736  54.114  1.00  0.00     0.056 C 
HETATM   13  C   UNL     1      29.906  42.953  53.185  1.00  0.00     0.011 C 
ENDBRANCH  10  12
ENDBRANCH   3   6
ENDBRANCH   1   2
BRANCH   1  14
HETATM   14  C   UNL     1      23.710  46.089  49.271  1.00  0.00    -0.031 A 
HETATM   15  C   UNL     1      22.514  46.546  48.694  1.00  0.00     0.012 A 
HETATM   16  C   UNL     1      21.806  45.739  47.799  1.00  0.00     0.037 A 
HETATM   17  C   UNL     1      22.271  44.467  47.464  1.00  0.00     0.068 A 
HETATM   18  C   UNL     1      23.470  44.013  48.014  1.00  0.00     0.037 A 
HETATM   19  C   UNL     1      24.185  44.820  48.908  1.00  0.00     0.012 A 
BRANCH  17  20
HETATM   20  O   UNL     1      21.476  43.779  46.591  1.00  0.00    -0.356 OA
HETATM   21  C   UNL     1      20.101  44.142  46.557  1.00  0.00     0.210 C 
ENDBRANCH  17  20
ENDBRANCH   1  14
BRANCH   1  22
HETATM   22  C   UNL     1      25.394  47.998  49.593  1.00  0.00    -0.031 A 
HETATM   23  C   UNL     1      24.819  49.076  48.890  1.00  0.00     0.009 A 
HETATM   24  C   UNL     1      25.612  50.064  48.303  1.00  0.00     0.001 A 
HETATM   25  C   UNL     1      26.997  50.007  48.424  1.00  0.00     0.000 A 
HETATM   26  C   UNL     1      27.587  48.970  49.139  1.00  0.00     0.001 A 
HETATM   27  C   UNL     1      26.794  47.978  49.724  1.00  0.00     0.009 A 
ENDBRANCH   1  22
TORSDOF 6
ENDMDL
MODEL 7
REMARK VINA RESULT:      -7.3      2.360      6.768
REMARK  6 active torsions:
REMARK  status: ('A' for Active; 'I' for Inactive)
REMARK    1  A    between atoms: C_2  and  C_3 
REMARK    2  A    between atoms: C_7  and  C_8 
REMARK       I    between atoms: C_8  and  N_9 
REMARK    3  A    between atoms: N_9  and  C_10 
REMARK    4  A    between atoms: C_10  and  C_11 
REMARK    5  A    between atoms: C_10  and  C_19 
REMARK    6  A    between atoms: C_14  and  O_15 
ROOT
HETATM    1  C   UNL     1      25.383  45.579  51.264  1.00  0.00     0.151 C 
ENDROOT
BRANCH   1   2
HETATM    2  N   UNL     1      26.483  45.533  52.212  1.00  0.00    -0.343 N 
HETATM    3  C   UNL     1      26.334  45.828  53.541  1.00  0.00     0.270 C 
HETATM    4  O   UNL     1      25.262  46.159  54.038  1.00  0.00    -0.266 OA
HETATM    5  H   UNL     1      27.387  45.273  51.853  1.00  0.00     0.163 HD
BRANCH   3   6
HETATM    6  C   UNL     1      27.538  45.735  54.324  1.00  0.00     0.119 A 
HETATM    7  N   UNL     1      28.054  46.826  54.970  1.00  0.00    -0.273 N 
HETATM    8  N   UNL     1      29.181  46.577  55.658  1.00  0.00    -0.179 NA
HETATM    9  H   UNL     1      27.675  47.768  54.972  1.00  0.00     0.189 HD
HETATM   10  C   UNL     1      29.400  45.273  55.456  1.00  0.00     0.056 A 
HETATM   11  C   UNL     1      28.405  44.702  54.626  1.00  0.00     0.065 A 
BRANCH  10  12
HETATM   12  C   UNL     1      30.574  44.595  56.077  1.00  0.00     0.056 C 
HETATM   13  C   UNL     1      30.756  43.174  55.569  1.00  0.00     0.011 C 
ENDBRANCH  10  12
ENDBRANCH   3   6
ENDBRANCH   1   2
BRANCH   1  14
HETATM   14  C   UNL     1      25.407  44.276  50.466  1.00  0.00    -0.031 A 
HETATM   15  C   UNL     1      26.594  43.782  49.901  1.00  0.00     0.012 A 
HETATM   16  C   UNL     1      26.589  42.592  49.169  1.00  0.00     0.037 A 
HETATM   17  C   UNL     1      25.407  41.874  48.984  1.00  0.00     0.068 A 
HETATM   18  C   UNL     1      24.227  42.343  49.561  1.00  0.00     0.037 A 
HETATM   19  C   UNL     1      24.228  43.533  50.299  1.00  0.00     0.012 A 
BRANCH  17  20
HETATM   20  O   UNL     1      25.539  40.737  48.236  1.00  0.00    -0.356 OA
HETATM   21  C   UNL     1      26.603  40.714  47.293  1.00  0.00     0.210 C 
ENDBRANCH  17  20
ENDBRANCH   1  14
BRANCH   1  22
HETATM   22  C   UNL     1      25.406  46.841  50.395  1.00  0.00    -0.031 A 
HETATM   23  C   UNL     1      24.200  47.418  49.952  1.00  0.00     0.009 A 
HETATM   24  C   UNL     1      24.194  48.587  49.187  1.00  0.00     0.001 A 
HETATM   25  C   UNL     1      25.393  49.215  48.866  1.00  0.00     0.000 A 
HETATM   26  C   UNL     1      26.596  48.681  49.318  1.00  0.00     0.001 A 
HETATM   27  C   UNL     1      26.603  47.509  50.081  1.00  0.00     0.009 A 
ENDBRANCH   1  22
TORSDOF 6
ENDMDL
MODEL 8
REMARK VINA RESULT:      -7.3      2.683      6.799
REMARK  6 active torsions:
REMARK  status: ('A' for Active; 'I' for Inactive)
REMARK    1  A    between atoms: C_2  and  C_3 
REMARK    2  A    between atoms: C_7  and  C_8 
REMARK       I    between atoms: C_8  and  N_9 
REMARK    3  A    between atoms: N_9  and  C_10 
REMARK    4  A    between atoms: C_10  and  C_11 
REMARK    5  A    between atoms: C_10  and  C_19 
REMARK    6  A    between atoms: C_14  and  O_15 
ROOT
HETATM    1  C   UNL     1      26.956  43.248  51.733  1.00  0.00     0.151 C 
ENDROOT
BRANCH   1   2
HETATM    2  N   UNL     1      27.289  42.514  50.524  1.00  0.00    -0.343 N 
HETATM    3  C   UNL     1      26.823  41.253  50.265  1.00  0.00     0.270 C 
HETATM    4  O   UNL     1      26.092  40.638  51.035  1.00  0.00    -0.266 OA
HETATM    5  H   UNL     1      27.892  42.973  49.861  1.00  0.00     0.163 HD
BRANCH   3   6
HETATM    6  C   UNL     1      27.265  40.684  49.020  1.00  0.00     0.119 A 
HETATM    7  N   UNL     1      27.652  39.373  48.932  1.00  0.00    -0.273 N 
HETATM    8  N   UNL     1      28.038  38.994  47.703  1.00  0.00    -0.179 NA
HETATM    9  H   UNL     1      27.673  38.693  49.686  1.00  0.00     0.189 HD
HETATM   10  C   UNL     1      27.889  40.098  46.963  1.00  0.00     0.056 A 
HETATM   11  C   UNL     1      27.414  41.183  47.740  1.00  0.00     0.065 A 
BRANCH  10  12
HETATM   12  C   UNL     1      28.207  40.085  45.506  1.00  0.00     0.056 C 
HETATM   13  C   UNL     1      27.184  40.855  44.684  1.00  0.00     0.011 C 
ENDBRANCH  10  12
ENDBRANCH   3   6
ENDBRANCH   1   2
BRANCH   1  14
HETATM   14  C   UNL     1      26.470  44.634  51.314  1.00  0.00    -0.031 A 
HETATM   15  C   UNL     1      25.539  45.350  52.084  1.00  0.00     0.012 A 
HETATM   16  C   UNL     1      25.103  46.613  51.676  1.00  0.00     0.037 A 
HETATM   17  C   UNL     1      25.583  47.186  50.497  1.00  0.00     0.068 A 
HETATM   18  C   UNL     1      26.525  46.494  49.737  1.00  0.00     0.037 A 
HETATM   19  C   UNL     1      26.968  45.229  50.145  1.00  0.00     0.012 A 
BRANCH  17  20
HETATM   20  O   UNL     1      25.064  48.417  50.207  1.00  0.00    -0.356 OA
HETATM   21  C   UNL     1      24.443  48.565  48.936  1.00  0.00     0.210 C 
ENDBRANCH  17  20
ENDBRANCH   1  14
BRANCH   1  22
HETATM   22  C   UNL     1      28.108  43.272  52.744  1.00  0.00    -0.031 A 
HETATM   23  C   UNL     1      29.349  42.689  52.417  1.00  0.00     0.009 A 
HETATM   24  C   UNL     1      30.424  42.727  53.308  1.00  0.00     0.001 A 
HETATM   25  C   UNL     1      30.288  43.368  54.536  1.00  0.00     0.000 A 
HETATM   26  C   UNL     1      29.083  43.978  54.868  1.00  0.00     0.001 A 
HETATM   27  C   UNL     1      28.005  43.937  53.978  1.00  0.00     0.009 A 
ENDBRANCH   1  22
TORSDOF 6
ENDMDL
MODEL 9
REMARK VINA RESULT:      -7.1      7.400      9.814
REMARK  6 active torsions:
REMARK  status: ('A' for Active; 'I' for Inactive)
REMARK    1  A    between atoms: C_2  and  C_3 
REMARK    2  A    between atoms: C_7  and  C_8 
REMARK       I    between atoms: C_8  and  N_9 
REMARK    3  A    between atoms: N_9  and  C_10 
REMARK    4  A    between atoms: C_10  and  C_11 
REMARK    5  A    between atoms: C_10  and  C_19 
REMARK    6  A    between atoms: C_14  and  O_15 
ROOT
HETATM    1  C   UNL     1      20.366  48.390  49.077  1.00  0.00     0.151 C 
ENDROOT
BRANCH   1   2
HETATM    2  N   UNL     1      19.441  49.510  49.037  1.00  0.00    -0.343 N 
HETATM    3  C   UNL     1      18.636  49.851  50.091  1.00  0.00     0.270 C 
HETATM    4  O   UNL     1      18.627  49.235  51.153  1.00  0.00    -0.266 OA
HETATM    5  H   UNL     1      19.405  50.044  48.184  1.00  0.00     0.163 HD
BRANCH   3   6
HETATM    6  C   UNL     1      17.781  50.985  49.863  1.00  0.00     0.119 A 
HETATM    7  N   UNL     1      18.234  52.266  50.034  1.00  0.00    -0.273 N 
HETATM    8  N   UNL     1      17.317  53.213  49.782  1.00  0.00    -0.179 NA
HETATM    9  H   UNL     1      19.166  52.547  50.325  1.00  0.00     0.189 HD
HETATM   10  C   UNL     1      16.229  52.522  49.427  1.00  0.00     0.056 A 
HETATM   11  C   UNL     1      16.465  51.126  49.466  1.00  0.00     0.065 A 
BRANCH  10  12
HETATM   12  C   UNL     1      14.970  53.227  49.049  1.00  0.00     0.056 C 
HETATM   13  C   UNL     1      14.083  53.511  50.251  1.00  0.00     0.011 C 
ENDBRANCH  10  12
ENDBRANCH   3   6
ENDBRANCH   1   2
BRANCH   1  14
HETATM   14  C   UNL     1      21.749  48.920  48.703  1.00  0.00    -0.031 A 
HETATM   15  C   UNL     1      21.905  50.075  47.920  1.00  0.00     0.012 A 
HETATM   16  C   UNL     1      23.181  50.536  47.584  1.00  0.00     0.037 A 
HETATM   17  C   UNL     1      24.321  49.858  48.017  1.00  0.00     0.068 A 
HETATM   18  C   UNL     1      24.177  48.723  48.815  1.00  0.00     0.037 A 
HETATM   19  C   UNL     1      22.900  48.260  49.158  1.00  0.00     0.012 A 
BRANCH  17  20
HETATM   20  O   UNL     1      25.504  50.406  47.605  1.00  0.00    -0.356 OA
HETATM   21  C   UNL     1      26.670  50.017  48.320  1.00  0.00     0.210 C 
ENDBRANCH  17  20
ENDBRANCH   1  14
BRANCH   1  22
HETATM   22  C   UNL     1      19.898  47.209  48.219  1.00  0.00    -0.031 A 
HETATM   23  C   UNL     1      19.490  47.418  46.887  1.00  0.00     0.009 A 
HETATM   24  C   UNL     1      19.092  46.353  46.076  1.00  0.00     0.001 A 
HETATM   25  C   UNL     1      19.113  45.054  46.573  1.00  0.00     0.000 A 
HETATM   26  C   UNL     1      19.542  44.818  47.875  1.00  0.00     0.001 A 
HETATM   27  C   UNL     1      19.937  45.884  48.689  1.00  0.00     0.009 A 
ENDBRANCH   1  22
TORSDOF 6
ENDMDL
MODEL 10
REMARK VINA RESULT:      -7.1      5.874      9.861
REMARK  6 active torsions:
REMARK  status: ('A' for Active; 'I' for Inactive)
REMARK    1  A    between atoms: C_2  and  C_3 
REMARK    2  A    between atoms: C_7  and  C_8 
REMARK       I    between atoms: C_8  and  N_9 
REMARK    3  A    between atoms: N_9  and  C_10 
REMARK    4  A    between atoms: C_10  and  C_11 
REMARK    5  A    between atoms: C_10  and  C_19 
REMARK    6  A    between atoms: C_14  and  O_15 
ROOT
HETATM    1  C   UNL     1      20.988  48.556  47.496  1.00  0.00     0.151 C 
ENDROOT
BRANCH   1   2
HETATM    2  N   UNL     1      22.097  48.206  48.367  1.00  0.00    -0.343 N 
HETATM    3  C   UNL     1      23.335  48.784  48.267  1.00  0.00     0.270 C 
HETATM    4  O   UNL     1      23.609  49.640  47.431  1.00  0.00    -0.266 OA
HETATM    5  H   UNL     1      21.926  47.503  49.067  1.00  0.00     0.163 HD
BRANCH   3   6
HETATM    6  C   UNL     1      24.309  48.304  49.211  1.00  0.00     0.119 A 
HETATM    7  N   UNL     1      25.583  48.804  49.237  1.00  0.00    -0.273 N 
HETATM    8  N   UNL     1      26.372  48.254  50.175  1.00  0.00    -0.179 NA
HETATM    9  H   UNL     1      25.967  49.525  48.632  1.00  0.00     0.189 HD
HETATM   10  C   UNL     1      25.578  47.369  50.785  1.00  0.00     0.056 A 
HETATM   11  C   UNL     1      24.281  47.357  50.217  1.00  0.00     0.065 A 
BRANCH  10  12
HETATM   12  C   UNL     1      26.088  46.544  51.918  1.00  0.00     0.056 C 
HETATM   13  C   UNL     1      25.832  47.195  53.268  1.00  0.00     0.011 C 
ENDBRANCH  10  12
ENDBRANCH   3   6
ENDBRANCH   1   2
BRANCH   1  14
HETATM   14  C   UNL     1      20.161  49.625  48.209  1.00  0.00    -0.031 A 
HETATM   15  C   UNL     1      20.265  50.983  47.867  1.00  0.00     0.012 A 
HETATM   16  C   UNL     1      19.504  51.943  48.538  1.00  0.00     0.037 A 
HETATM   17  C   UNL     1      18.629  51.572  49.560  1.00  0.00     0.068 A 
HETATM   18  C   UNL     1      18.501  50.224  49.892  1.00  0.00     0.037 A 
HETATM   19  C   UNL     1      19.258  49.258  49.218  1.00  0.00     0.012 A 
BRANCH  17  20
HETATM   20  O   UNL     1      17.958  52.611  50.143  1.00  0.00    -0.356 OA
HETATM   21  C   UNL     1      16.550  52.654  49.942  1.00  0.00     0.210 C 
ENDBRANCH  17  20
ENDBRANCH   1  14
BRANCH   1  22
HETATM   22  C   UNL     1      20.177  47.333  47.055  1.00  0.00    -0.031 A 
HETATM   23  C   UNL     1      19.299  47.424  45.956  1.00  0.00     0.009 A 
HETATM   24  C   UNL     1      18.574  46.315  45.515  1.00  0.00     0.001 A 
HETATM   25  C   UNL     1      18.727  45.086  46.149  1.00  0.00     0.000 A 
HETATM   26  C   UNL     1      19.610  44.964  47.217  1.00  0.00     0.001 A 
HETATM   27  C   UNL     1      20.334  46.074  47.662  1.00  0.00     0.009 A 
ENDBRANCH   1  22
TORSDOF 6
ENDMDL
