MODEL 1
REMARK VINA RESULT:      -8.1      0.000      0.000
REMARK  9 active torsions:
REMARK  status: ('A' for Active; 'I' for Inactive)
REMARK    1  A    between atoms: C_4  and  C_5 
REMARK    2  A    between atoms: C_11  and  C_12 
REMARK    3  A    between atoms: C_15  and  C_16 
REMARK    4  A    between atoms: C_16  and  N_17 
REMARK    5  A    between atoms: N_17  and  C_18 
REMARK    6  A    between atoms: C_18  and  N_19 
REMARK    7  A    between atoms: N_19  and  C_20 
REMARK    8  A    between atoms: C_22  and  C_23 
REMARK    9  A    between atoms: C_23  and  O_24 
ROOT
HETATM    1  C   UNL     1      25.987  46.147  50.649  1.00  0.00     0.067 C 
HETATM    2  C   UNL     1      26.343  45.039  49.618  1.00  0.00     0.001 C 
HETATM    3  C   UNL     1      25.073  44.309  49.127  1.00  0.00     0.040 C 
HETATM    4  C   UNL     1      24.384  43.578  50.290  1.00  0.00     0.206 C 
HETATM    5  N   UNL     1      25.076  44.015  51.586  1.00  0.00    -0.065 N 
HETATM    6  H   UNL     1      24.553  43.620  52.380  1.00  0.00     0.280 HD
HETATM    7  C   UNL     1      25.119  45.524  51.765  1.00  0.00     0.246 C 
HETATM    8  C   UNL     1      27.215  43.994  50.353  1.00  0.00     0.033 C 
HETATM    9  C   UNL     1      26.492  43.465  51.598  1.00  0.00     0.236 C 
ENDROOT
BRANCH   4  10
HETATM   10  C   UNL     1      22.849  43.720  50.356  1.00  0.00     0.155 C 
BRANCH  10  11
HETATM   11  N   UNL     1      22.309  44.895  49.678  1.00  0.00    -0.365 N 
HETATM   12  H   UNL     1      22.915  45.704  49.614  1.00  0.00     0.161 HD
BRANCH  11  13
HETATM   13  C   UNL     1      21.348  44.871  48.703  1.00  0.00     0.172 C 
HETATM   14  S   UNL     1      21.573  44.204  47.191  1.00  0.00    -0.041 SA
BRANCH  13  15
HETATM   15  N   UNL     1      20.104  45.314  49.065  1.00  0.00    -0.333 N 
HETATM   16  H   UNL     1      19.604  44.684  49.687  1.00  0.00     0.168 HD
BRANCH  15  17
HETATM   17  C   UNL     1      19.373  46.438  48.614  1.00  0.00     0.035 A 
HETATM   18  C   UNL     1      19.240  47.608  49.362  1.00  0.00     0.047 A 
HETATM   19  C   UNL     1      18.453  48.674  48.906  1.00  0.00     0.041 A 
HETATM   20  C   UNL     1      17.848  48.599  47.653  1.00  0.00     0.018 A 
HETATM   21  C   UNL     1      18.033  47.458  46.866  1.00  0.00     0.003 A 
HETATM   22  C   UNL     1      18.796  46.385  47.344  1.00  0.00     0.029 A 
BRANCH  19  23
HETATM   23  C   UNL     1      18.281  49.826  49.826  1.00  0.00     0.293 C 
HETATM   24  O   UNL     1      18.467  49.733  51.031  1.00  0.00    -0.259 OA
BRANCH  23  25
HETATM   25  O   UNL     1      17.929  50.938  49.144  1.00  0.00    -0.323 OA
HETATM   26  C   UNL     1      17.048  51.805  49.861  1.00  0.00     0.213 C 
ENDBRANCH  23  25
ENDBRANCH  19  23
ENDBRANCH  15  17
ENDBRANCH  13  15
ENDBRANCH  11  13
ENDBRANCH  10  11
ENDBRANCH   4  10
BRANCH   1  27
HETATM   27  C   UNL     1      25.375  47.390  50.058  1.00  0.00     0.038 A 
HETATM   28  N   UNL     1      26.115  48.381  49.440  1.00  0.00    -0.277 N 
HETATM   29  C   UNL     1      27.543  48.436  49.217  1.00  0.00     0.179 C 
HETATM   30  N   UNL     1      25.374  49.404  48.995  1.00  0.00    -0.170 NA
HETATM   31  C   UNL     1      24.112  49.028  49.217  1.00  0.00     0.112 A 
HETATM   32  C   UNL     1      24.061  47.792  49.895  1.00  0.00     0.063 A 
BRANCH  31  33
HETATM   33  C   UNL     1      22.935  49.823  48.766  1.00  0.00     0.105 A 
HETATM   34  O   UNL     1      22.416  50.895  49.441  1.00  0.00    -0.320 OA
HETATM   35  C   UNL     1      21.330  51.319  48.743  1.00  0.00     0.142 A 
HETATM   36  C   UNL     1      21.141  50.546  47.624  1.00  0.00     0.027 A 
HETATM   37  C   UNL     1      22.179  49.584  47.634  1.00  0.00     0.041 A 
ENDBRANCH  31  33
ENDBRANCH   1  27
TORSDOF 9
ENDMDL
MODEL 2
REMARK VINA RESULT:      -8.1      3.578      6.811
REMARK  9 active torsions:
REMARK  status: ('A' for Active; 'I' for Inactive)
REMARK    1  A    between atoms: C_4  and  C_5 
REMARK    2  A    between atoms: C_11  and  C_12 
REMARK    3  A    between atoms: C_15  and  C_16 
REMARK    4  A    between atoms: C_16  and  N_17 
REMARK    5  A    between atoms: N_17  and  C_18 
REMARK    6  A    between atoms: C_18  and  N_19 
REMARK    7  A    between atoms: N_19  and  C_20 
REMARK    8  A    between atoms: C_22  and  C_23 
REMARK    9  A    between atoms: C_23  and  O_24 
ROOT
HETATM    1  C   UNL     1      26.087  42.717  51.157  1.00  0.00     0.067 C 
HETATM    2  C   UNL     1      26.512  43.110  49.714  1.00  0.00     0.001 C 
HETATM    3  C   UNL     1      26.731  44.635  49.597  1.00  0.00     0.040 C 
HETATM    4  C   UNL     1      25.419  45.393  49.856  1.00  0.00     0.206 C 
HETATM    5  N   UNL     1      24.392  44.376  50.368  1.00  0.00    -0.065 N 
HETATM    6  H   UNL     1      23.544  44.888  50.651  1.00  0.00     0.280 HD
HETATM    7  C   UNL     1      24.877  43.584  51.570  1.00  0.00     0.246 C 
HETATM    8  C   UNL     1      25.339  42.743  48.776  1.00  0.00     0.033 C 
HETATM    9  C   UNL     1      24.042  43.419  49.240  1.00  0.00     0.236 C 
ENDROOT
BRANCH   4  10
HETATM   10  C   UNL     1      25.530  46.635  50.764  1.00  0.00     0.155 C 
BRANCH  10  11
HETATM   11  N   UNL     1      25.049  47.878  50.170  1.00  0.00    -0.365 N 
HETATM   12  H   UNL     1      24.359  48.400  50.698  1.00  0.00     0.161 HD
BRANCH  11  13
HETATM   13  C   UNL     1      25.757  48.662  49.298  1.00  0.00     0.172 C 
HETATM   14  S   UNL     1      27.422  48.679  49.203  1.00  0.00    -0.041 SA
BRANCH  13  15
HETATM   15  N   UNL     1      25.023  49.365  48.380  1.00  0.00    -0.333 N 
HETATM   16  H   UNL     1      25.583  49.834  47.672  1.00  0.00     0.168 HD
BRANCH  15  17
HETATM   17  C   UNL     1      23.635  49.632  48.338  1.00  0.00     0.035 A 
HETATM   18  C   UNL     1      22.691  48.690  47.927  1.00  0.00     0.047 A 
HETATM   19  C   UNL     1      21.332  49.018  47.839  1.00  0.00     0.041 A 
HETATM   20  C   UNL     1      20.898  50.282  48.235  1.00  0.00     0.018 A 
HETATM   21  C   UNL     1      21.829  51.208  48.716  1.00  0.00     0.003 A 
HETATM   22  C   UNL     1      23.190  50.883  48.770  1.00  0.00     0.029 A 
BRANCH  19  23
HETATM   23  C   UNL     1      20.425  47.984  47.281  1.00  0.00     0.293 C 
HETATM   24  O   UNL     1      20.843  46.949  46.781  1.00  0.00    -0.259 OA
BRANCH  23  25
HETATM   25  O   UNL     1      19.132  48.346  47.431  1.00  0.00    -0.323 OA
HETATM   26  C   UNL     1      18.213  47.252  47.391  1.00  0.00     0.213 C 
ENDBRANCH  23  25
ENDBRANCH  19  23
ENDBRANCH  15  17
ENDBRANCH  13  15
ENDBRANCH  11  13
ENDBRANCH  10  11
ENDBRANCH   4  10
BRANCH   1  27
HETATM   27  C   UNL     1      27.198  42.741  52.174  1.00  0.00     0.038 A 
HETATM   28  N   UNL     1      28.180  41.771  52.250  1.00  0.00    -0.277 N 
HETATM   29  C   UNL     1      28.364  40.604  51.415  1.00  0.00     0.179 C 
HETATM   30  N   UNL     1      29.064  41.979  53.234  1.00  0.00    -0.170 NA
HETATM   31  C   UNL     1      28.729  43.167  53.742  1.00  0.00     0.112 A 
HETATM   32  C   UNL     1      27.563  43.673  53.130  1.00  0.00     0.063 A 
BRANCH  31  33
HETATM   33  C   UNL     1      29.526  43.855  54.796  1.00  0.00     0.105 A 
HETATM   34  O   UNL     1      29.240  45.094  55.303  1.00  0.00    -0.320 OA
HETATM   35  C   UNL     1      30.213  45.394  56.203  1.00  0.00     0.142 A 
HETATM   36  C   UNL     1      31.120  44.367  56.294  1.00  0.00     0.027 A 
HETATM   37  C   UNL     1      30.675  43.370  55.392  1.00  0.00     0.041 A 
ENDBRANCH  31  33
ENDBRANCH   1  27
TORSDOF 9
ENDMDL
MODEL 3
REMARK VINA RESULT:      -7.7      3.149      8.030
REMARK  9 active torsions:
REMARK  status: ('A' for Active; 'I' for Inactive)
REMARK    1  A    between atoms: C_4  and  C_5 
REMARK    2  A    between atoms: C_11  and  C_12 
REMARK    3  A    between atoms: C_15  and  C_16 
REMARK    4  A    between atoms: C_16  and  N_17 
REMARK    5  A    between atoms: N_17  and  C_18 
REMARK    6  A    between atoms: C_18  and  N_19 
REMARK    7  A    between atoms: N_19  and  C_20 
REMARK    8  A    between atoms: C_22  and  C_23 
REMARK    9  A    between atoms: C_23  and  O_24 
ROOT
HETATM    1  C   UNL     1      19.226  49.193  48.792  1.00  0.00     0.067 C 
HETATM    2  C   UNL     1      19.551  50.028  47.522  1.00  0.00     0.001 C 
HETATM    3  C   UNL     1      21.070  50.286  47.400  1.00  0.00     0.040 C 
HETATM    4  C   UNL     1      21.573  51.129  48.582  1.00  0.00     0.206 C 
HETATM    5  N   UNL     1      20.428  51.233  49.597  1.00  0.00    -0.065 N 
HETATM    6  H   UNL     1      20.787  51.699  50.442  1.00  0.00     0.280 HD
HETATM    7  C   UNL     1      19.872  49.882  50.015  1.00  0.00     0.246 C 
HETATM    8  C   UNL     1      18.866  51.405  47.692  1.00  0.00     0.033 C 
HETATM    9  C   UNL     1      19.313  52.074  48.998  1.00  0.00     0.236 C 
ENDROOT
BRANCH   4  10
HETATM   10  C   UNL     1      22.896  50.663  49.223  1.00  0.00     0.155 C 
BRANCH  10  11
HETATM   11  N   UNL     1      23.752  49.860  48.356  1.00  0.00    -0.365 N 
HETATM   12  H   UNL     1      23.906  50.207  47.416  1.00  0.00     0.161 HD
BRANCH  11  13
HETATM   13  C   UNL     1      24.750  49.026  48.784  1.00  0.00     0.172 C 
HETATM   14  S   UNL     1      26.369  49.425  48.763  1.00  0.00    -0.041 SA
BRANCH  13  15
HETATM   15  N   UNL     1      24.353  47.856  49.376  1.00  0.00    -0.333 N 
HETATM   16  H   UNL     1      23.358  47.664  49.290  1.00  0.00     0.168 HD
BRANCH  15  17
HETATM   17  C   UNL     1      25.083  46.951  50.181  1.00  0.00     0.035 A 
HETATM   18  C   UNL     1      25.134  47.040  51.572  1.00  0.00     0.047 A 
HETATM   19  C   UNL     1      25.922  46.162  52.326  1.00  0.00     0.041 A 
HETATM   20  C   UNL     1      26.614  45.133  51.689  1.00  0.00     0.018 A 
HETATM   21  C   UNL     1      26.513  44.993  50.302  1.00  0.00     0.003 A 
HETATM   22  C   UNL     1      25.748  45.896  49.553  1.00  0.00     0.029 A 
BRANCH  19  23
HETATM   23  C   UNL     1      26.001  46.412  53.787  1.00  0.00     0.293 C 
HETATM   24  O   UNL     1      25.403  45.723  54.602  1.00  0.00    -0.259 OA
BRANCH  23  25
HETATM   25  O   UNL     1      26.817  47.455  54.054  1.00  0.00    -0.323 OA
HETATM   26  C   UNL     1      26.549  48.101  55.300  1.00  0.00     0.213 C 
ENDBRANCH  23  25
ENDBRANCH  19  23
ENDBRANCH  15  17
ENDBRANCH  13  15
ENDBRANCH  11  13
ENDBRANCH  10  11
ENDBRANCH   4  10
BRANCH   1  27
HETATM   27  C   UNL     1      19.572  47.730  48.694  1.00  0.00     0.038 A 
HETATM   28  N   UNL     1      18.642  46.746  48.414  1.00  0.00    -0.277 N 
HETATM   29  C   UNL     1      17.227  46.890  48.149  1.00  0.00     0.179 C 
HETATM   30  N   UNL     1      19.160  45.512  48.386  1.00  0.00    -0.170 NA
HETATM   31  C   UNL     1      20.474  45.694  48.532  1.00  0.00     0.112 A 
HETATM   32  C   UNL     1      20.779  47.055  48.748  1.00  0.00     0.063 A 
BRANCH  31  33
HETATM   33  C   UNL     1      21.464  44.585  48.443  1.00  0.00     0.105 A 
HETATM   34  O   UNL     1      21.480  43.634  47.458  1.00  0.00    -0.320 OA
HETATM   35  C   UNL     1      22.494  42.777  47.744  1.00  0.00     0.142 A 
HETATM   36  C   UNL     1      23.142  43.160  48.893  1.00  0.00     0.027 A 
HETATM   37  C   UNL     1      22.484  44.331  49.341  1.00  0.00     0.041 A 
ENDBRANCH  31  33
ENDBRANCH   1  27
TORSDOF 9
ENDMDL
MODEL 4
REMARK VINA RESULT:      -7.7      3.144      7.773
REMARK  9 active torsions:
REMARK  status: ('A' for Active; 'I' for Inactive)
REMARK    1  A    between atoms: C_4  and  C_5 
REMARK    2  A    between atoms: C_11  and  C_12 
REMARK    3  A    between atoms: C_15  and  C_16 
REMARK    4  A    between atoms: C_16  and  N_17 
REMARK    5  A    between atoms: N_17  and  C_18 
REMARK    6  A    between atoms: C_18  and  N_19 
REMARK    7  A    between atoms: N_19  and  C_20 
REMARK    8  A    between atoms: C_22  and  C_23 
REMARK    9  A    between atoms: C_23  and  O_24 
ROOT
HETATM    1  C   UNL     1      19.262  49.064  47.422  1.00  0.00     0.067 C 
HETATM    2  C   UNL     1      18.430  48.643  48.666  1.00  0.00     0.001 C 
HETATM    3  C   UNL     1      18.911  47.284  49.222  1.00  0.00     0.040 C 
HETATM    4  C   UNL     1      18.693  46.168  48.188  1.00  0.00     0.206 C 
HETATM    5  N   UNL     1      18.279  46.833  46.870  1.00  0.00    -0.065 N 
HETATM    6  H   UNL     1      18.239  46.107  46.140  1.00  0.00     0.280 HD
HETATM    7  C   UNL     1      19.253  47.902  46.404  1.00  0.00     0.246 C 
HETATM    8  C   UNL     1      16.969  48.453  48.195  1.00  0.00     0.033 C 
HETATM    9  C   UNL     1      16.899  47.446  47.040  1.00  0.00     0.236 C 
ENDROOT
BRANCH   4  10
HETATM   10  C   UNL     1      19.862  45.177  48.013  1.00  0.00     0.155 C 
BRANCH  10  11
HETATM   11  N   UNL     1      20.917  45.286  49.016  1.00  0.00    -0.365 N 
HETATM   12  H   UNL     1      20.631  45.541  49.954  1.00  0.00     0.161 HD
BRANCH  11  13
HETATM   13  C   UNL     1      22.106  44.607  48.989  1.00  0.00     0.172 C 
HETATM   14  S   UNL     1      22.973  44.304  47.597  1.00  0.00    -0.041 SA
BRANCH  13  15
HETATM   15  N   UNL     1      22.649  44.283  50.204  1.00  0.00    -0.333 N 
HETATM   16  H   UNL     1      21.961  44.101  50.931  1.00  0.00     0.168 HD
BRANCH  15  17
HETATM   17  C   UNL     1      23.999  44.284  50.625  1.00  0.00     0.035 A 
HETATM   18  C   UNL     1      24.786  43.132  50.659  1.00  0.00     0.047 A 
HETATM   19  C   UNL     1      26.099  43.167  51.144  1.00  0.00     0.041 A 
HETATM   20  C   UNL     1      26.661  44.381  51.534  1.00  0.00     0.018 A 
HETATM   21  C   UNL     1      25.903  45.552  51.436  1.00  0.00     0.003 A 
HETATM   22  C   UNL     1      24.580  45.503  50.980  1.00  0.00     0.029 A 
BRANCH  19  23
HETATM   23  C   UNL     1      26.813  41.869  51.249  1.00  0.00     0.293 C 
HETATM   24  O   UNL     1      26.278  40.805  50.971  1.00  0.00    -0.259 OA
BRANCH  23  25
HETATM   25  O   UNL     1      28.088  42.052  51.657  1.00  0.00    -0.323 OA
HETATM   26  C   UNL     1      28.516  41.130  52.662  1.00  0.00     0.213 C 
ENDBRANCH  23  25
ENDBRANCH  19  23
ENDBRANCH  15  17
ENDBRANCH  13  15
ENDBRANCH  11  13
ENDBRANCH  10  11
ENDBRANCH   4  10
BRANCH   1  27
HETATM   27  C   UNL     1      20.650  49.562  47.728  1.00  0.00     0.038 A 
HETATM   28  N   UNL     1      20.914  50.831  48.211  1.00  0.00    -0.277 N 
HETATM   29  C   UNL     1      19.979  51.888  48.530  1.00  0.00     0.179 C 
HETATM   30  N   UNL     1      22.217  51.071  48.403  1.00  0.00    -0.170 NA
HETATM   31  C   UNL     1      22.815  49.904  48.155  1.00  0.00     0.112 A 
HETATM   32  C   UNL     1      21.887  48.939  47.712  1.00  0.00     0.063 A 
BRANCH  31  33
HETATM   33  C   UNL     1      24.273  49.678  48.361  1.00  0.00     0.105 A 
HETATM   34  O   UNL     1      25.266  50.328  47.677  1.00  0.00    -0.320 OA
HETATM   35  C   UNL     1      26.449  49.819  48.109  1.00  0.00     0.142 A 
HETATM   36  C   UNL     1      26.242  48.857  49.067  1.00  0.00     0.027 A 
HETATM   37  C   UNL     1      24.839  48.769  49.236  1.00  0.00     0.041 A 
ENDBRANCH  31  33
ENDBRANCH   1  27
TORSDOF 9
ENDMDL
MODEL 5
REMARK VINA RESULT:      -7.6      3.313      8.354
REMARK  9 active torsions:
REMARK  status: ('A' for Active; 'I' for Inactive)
REMARK    1  A    between atoms: C_4  and  C_5 
REMARK    2  A    between atoms: C_11  and  C_12 
REMARK    3  A    between atoms: C_15  and  C_16 
REMARK    4  A    between atoms: C_16  and  N_17 
REMARK    5  A    between atoms: N_17  and  C_18 
REMARK    6  A    between atoms: C_18  and  N_19 
REMARK    7  A    between atoms: N_19  and  C_20 
REMARK    8  A    between atoms: C_22  and  C_23 
REMARK    9  A    between atoms: C_23  and  O_24 
ROOT
HETATM    1  C   UNL     1      18.954  49.176  48.605  1.00  0.00     0.067 C 
HETATM    2  C   UNL     1      19.467  50.083  47.451  1.00  0.00     0.001 C 
HETATM    3  C   UNL     1      20.967  50.408  47.627  1.00  0.00     0.040 C 
HETATM    4  C   UNL     1      21.200  51.216  48.913  1.00  0.00     0.206 C 
HETATM    5  N   UNL     1      19.883  51.224  49.698  1.00  0.00    -0.065 N 
HETATM    6  H   UNL     1      20.055  51.665  50.613  1.00  0.00     0.280 HD
HETATM    7  C   UNL     1      19.326  49.834  49.953  1.00  0.00     0.246 C 
HETATM    8  C   UNL     1      18.695  51.420  47.542  1.00  0.00     0.033 C 
HETATM    9  C   UNL     1      18.859  52.045  48.933  1.00  0.00     0.236 C 
ENDROOT
BRANCH   4  10
HETATM   10  C   UNL     1      22.402  50.776  49.773  1.00  0.00     0.155 C 
BRANCH  10  11
HETATM   11  N   UNL     1      22.714  49.351  49.715  1.00  0.00    -0.365 N 
HETATM   12  H   UNL     1      21.928  48.711  49.721  1.00  0.00     0.161 HD
BRANCH  11  13
HETATM   13  C   UNL     1      23.835  48.810  49.144  1.00  0.00     0.172 C 
HETATM   14  S   UNL     1      25.065  49.714  48.472  1.00  0.00    -0.041 SA
BRANCH  13  15
HETATM   15  N   UNL     1      23.984  47.454  49.264  1.00  0.00    -0.333 N 
HETATM   16  H   UNL     1      23.318  46.913  48.717  1.00  0.00     0.168 HD
BRANCH  15  17
HETATM   17  C   UNL     1      24.830  46.704  50.113  1.00  0.00     0.035 A 
HETATM   18  C   UNL     1      25.360  45.464  49.756  1.00  0.00     0.047 A 
HETATM   19  C   UNL     1      26.142  44.725  50.653  1.00  0.00     0.041 A 
HETATM   20  C   UNL     1      26.460  45.264  51.899  1.00  0.00     0.018 A 
HETATM   21  C   UNL     1      25.992  46.537  52.237  1.00  0.00     0.003 A 
HETATM   22  C   UNL     1      25.185  47.254  51.346  1.00  0.00     0.029 A 
BRANCH  19  23
HETATM   23  C   UNL     1      26.560  43.367  50.223  1.00  0.00     0.293 C 
HETATM   24  O   UNL     1      27.072  43.156  49.132  1.00  0.00    -0.259 OA
BRANCH  23  25
HETATM   25  O   UNL     1      26.318  42.459  51.193  1.00  0.00    -0.323 OA
HETATM   26  C   UNL     1      27.469  41.709  51.589  1.00  0.00     0.213 C 
ENDBRANCH  23  25
ENDBRANCH  19  23
ENDBRANCH  15  17
ENDBRANCH  13  15
ENDBRANCH  11  13
ENDBRANCH  10  11
ENDBRANCH   4  10
BRANCH   1  27
HETATM   27  C   UNL     1      19.383  47.735  48.519  1.00  0.00     0.038 A 
HETATM   28  N   UNL     1      18.495  46.683  48.393  1.00  0.00    -0.277 N 
HETATM   29  C   UNL     1      17.052  46.726  48.301  1.00  0.00     0.179 C 
HETATM   30  N   UNL     1      19.088  45.484  48.345  1.00  0.00    -0.170 NA
HETATM   31  C   UNL     1      20.395  45.755  48.320  1.00  0.00     0.112 A 
HETATM   32  C   UNL     1      20.631  47.140  48.446  1.00  0.00     0.063 A 
BRANCH  31  33
HETATM   33  C   UNL     1      21.440  44.707  48.148  1.00  0.00     0.105 A 
HETATM   34  O   UNL     1      21.790  43.793  49.106  1.00  0.00    -0.320 OA
HETATM   35  C   UNL     1      22.802  43.044  48.594  1.00  0.00     0.142 A 
HETATM   36  C   UNL     1      23.108  43.451  47.318  1.00  0.00     0.027 A 
HETATM   37  C   UNL     1      22.226  44.519  47.026  1.00  0.00     0.041 A 
ENDBRANCH  31  33
ENDBRANCH   1  27
TORSDOF 9
ENDMDL
MODEL 6
REMARK VINA RESULT:      -7.6      3.070      6.426
REMARK  9 active torsions:
REMARK  status: ('A' for Active; 'I' for Inactive)
REMARK    1  A    between atoms: C_4  and  C_5 
REMARK    2  A    between atoms: C_11  and  C_12 
REMARK    3  A    between atoms: C_15  and  C_16 
REMARK    4  A    between atoms: C_16  and  N_17 
REMARK    5  A    between atoms: N_17  and  C_18 
REMARK    6  A    between atoms: C_18  and  N_19 
REMARK    7  A    between atoms: N_19  and  C_20 
REMARK    8  A    between atoms: C_22  and  C_23 
REMARK    9  A    between atoms: C_23  and  O_24 
ROOT
HETATM    1  C   UNL     1      21.432  50.136  48.125  1.00  0.00     0.067 C 
HETATM    2  C   UNL     1      20.782  51.111  49.146  1.00  0.00     0.001 C 
HETATM    3  C   UNL     1      19.942  50.342  50.190  1.00  0.00     0.040 C 
HETATM    4  C   UNL     1      18.767  49.618  49.512  1.00  0.00     0.206 C 
HETATM    5  N   UNL     1      18.969  49.727  47.997  1.00  0.00    -0.065 N 
HETATM    6  H   UNL     1      18.252  49.151  47.533  1.00  0.00     0.280 HD
HETATM    7  C   UNL     1      20.329  49.230  47.534  1.00  0.00     0.246 C 
HETATM    8  C   UNL     1      19.811  52.020  48.357  1.00  0.00     0.033 C 
HETATM    9  C   UNL     1      18.793  51.177  47.579  1.00  0.00     0.236 C 
ENDROOT
BRANCH   4  10
HETATM   10  C   UNL     1      18.515  48.169  49.977  1.00  0.00     0.155 C 
BRANCH  10  11
HETATM   11  N   UNL     1      17.167  47.668  49.730  1.00  0.00    -0.365 N 
HETATM   12  H   UNL     1      16.414  48.104  50.251  1.00  0.00     0.161 HD
BRANCH  11  13
HETATM   13  C   UNL     1      16.740  47.089  48.564  1.00  0.00     0.172 C 
HETATM   14  S   UNL     1      15.982  47.923  47.334  1.00  0.00    -0.041 SA
BRANCH  13  15
HETATM   15  N   UNL     1      17.085  45.778  48.374  1.00  0.00    -0.333 N 
HETATM   16  H   UNL     1      16.559  45.123  48.947  1.00  0.00     0.168 HD
BRANCH  15  17
HETATM   17  C   UNL     1      18.130  45.215  47.605  1.00  0.00     0.035 A 
HETATM   18  C   UNL     1      19.435  45.077  48.079  1.00  0.00     0.047 A 
HETATM   19  C   UNL     1      20.454  44.573  47.261  1.00  0.00     0.041 A 
HETATM   20  C   UNL     1      20.152  44.134  45.972  1.00  0.00     0.018 A 
HETATM   21  C   UNL     1      18.833  44.203  45.514  1.00  0.00     0.003 A 
HETATM   22  C   UNL     1      17.828  44.738  46.328  1.00  0.00     0.029 A 
BRANCH  19  23
HETATM   23  C   UNL     1      21.829  44.574  47.819  1.00  0.00     0.293 C 
HETATM   24  O   UNL     1      22.717  45.284  47.367  1.00  0.00    -0.259 OA
BRANCH  23  25
HETATM   25  O   UNL     1      21.924  43.727  48.867  1.00  0.00    -0.323 OA
HETATM   26  C   UNL     1      22.952  42.744  48.729  1.00  0.00     0.213 C 
ENDBRANCH  23  25
ENDBRANCH  19  23
ENDBRANCH  15  17
ENDBRANCH  13  15
ENDBRANCH  11  13
ENDBRANCH  10  11
ENDBRANCH   4  10
BRANCH   1  27
HETATM   27  C   UNL     1      22.609  49.358  48.652  1.00  0.00     0.038 A 
HETATM   28  N   UNL     1      23.916  49.798  48.558  1.00  0.00    -0.277 N 
HETATM   29  C   UNL     1      24.415  51.032  47.990  1.00  0.00     0.179 C 
HETATM   30  N   UNL     1      24.807  48.947  49.080  1.00  0.00    -0.170 NA
HETATM   31  C   UNL     1      24.069  47.983  49.633  1.00  0.00     0.112 A 
HETATM   32  C   UNL     1      22.696  48.182  49.377  1.00  0.00     0.063 A 
BRANCH  31  33
HETATM   33  C   UNL     1      24.651  46.872  50.438  1.00  0.00     0.105 A 
HETATM   34  O   UNL     1      24.131  45.607  50.508  1.00  0.00    -0.320 OA
HETATM   35  C   UNL     1      24.908  44.901  51.370  1.00  0.00     0.142 A 
HETATM   36  C   UNL     1      25.928  45.684  51.854  1.00  0.00     0.027 A 
HETATM   37  C   UNL     1      25.767  46.954  51.249  1.00  0.00     0.041 A 
ENDBRANCH  31  33
ENDBRANCH   1  27
TORSDOF 9
ENDMDL
MODEL 7
REMARK VINA RESULT:      -7.6      3.924      6.299
REMARK  9 active torsions:
REMARK  status: ('A' for Active; 'I' for Inactive)
REMARK    1  A    between atoms: C_4  and  C_5 
REMARK    2  A    between atoms: C_11  and  C_12 
REMARK    3  A    between atoms: C_15  and  C_16 
REMARK    4  A    between atoms: C_16  and  N_17 
REMARK    5  A    between atoms: N_17  and  C_18 
REMARK    6  A    between atoms: C_18  and  N_19 
REMARK    7  A    between atoms: N_19  and  C_20 
REMARK    8  A    between atoms: C_22  and  C_23 
REMARK    9  A    between atoms: C_23  and  O_24 
ROOT
HETATM    1  C   UNL     1      26.347  44.130  52.000  1.00  0.00     0.067 C 
HETATM    2  C   UNL     1      27.138  44.064  50.663  1.00  0.00     0.001 C 
HETATM    3  C   UNL     1      27.172  45.444  49.970  1.00  0.00     0.040 C 
HETATM    4  C   UNL     1      25.754  45.892  49.583  1.00  0.00     0.206 C 
HETATM    5  N   UNL     1      24.768  44.909  50.225  1.00  0.00    -0.065 N 
HETATM    6  H   UNL     1      23.813  45.261  50.067  1.00  0.00     0.280 HD
HETATM    7  C   UNL     1      24.962  44.756  51.724  1.00  0.00     0.246 C 
HETATM    8  C   UNL     1      26.373  43.100  49.726  1.00  0.00     0.033 C 
HETATM    9  C   UNL     1      24.917  43.553  49.556  1.00  0.00     0.236 C 
ENDROOT
BRANCH   4  10
HETATM   10  C   UNL     1      25.409  47.364  49.885  1.00  0.00     0.155 C 
BRANCH  10  11
HETATM   11  N   UNL     1      23.982  47.662  49.952  1.00  0.00    -0.365 N 
HETATM   12  H   UNL     1      23.472  47.279  50.739  1.00  0.00     0.161 HD
BRANCH  11  13
HETATM   13  C   UNL     1      23.381  48.770  49.418  1.00  0.00     0.172 C 
HETATM   14  S   UNL     1      24.096  49.762  48.283  1.00  0.00    -0.041 SA
BRANCH  13  15
HETATM   15  N   UNL     1      22.070  48.975  49.759  1.00  0.00    -0.333 N 
HETATM   16  H   UNL     1      21.772  48.463  50.586  1.00  0.00     0.168 HD
BRANCH  15  17
HETATM   17  C   UNL     1      21.053  49.682  49.077  1.00  0.00     0.035 A 
HETATM   18  C   UNL     1      20.188  49.079  48.163  1.00  0.00     0.047 A 
HETATM   19  C   UNL     1      19.237  49.830  47.462  1.00  0.00     0.041 A 
HETATM   20  C   UNL     1      19.098  51.192  47.728  1.00  0.00     0.018 A 
HETATM   21  C   UNL     1      19.912  51.790  48.693  1.00  0.00     0.003 A 
HETATM   22  C   UNL     1      20.882  51.037  49.367  1.00  0.00     0.029 A 
BRANCH  19  23
HETATM   23  C   UNL     1      18.445  49.118  46.428  1.00  0.00     0.293 C 
HETATM   24  O   UNL     1      18.969  48.447  45.550  1.00  0.00    -0.259 OA
BRANCH  23  25
HETATM   25  O   UNL     1      17.121  49.302  46.624  1.00  0.00    -0.323 OA
HETATM   26  C   UNL     1      16.541  48.402  47.571  1.00  0.00     0.213 C 
ENDBRANCH  23  25
ENDBRANCH  19  23
ENDBRANCH  15  17
ENDBRANCH  13  15
ENDBRANCH  11  13
ENDBRANCH  10  11
ENDBRANCH   4  10
BRANCH   1  27
HETATM   27  C   UNL     1      27.076  44.798  53.136  1.00  0.00     0.038 A 
HETATM   28  N   UNL     1      26.772  46.067  53.593  1.00  0.00    -0.277 N 
HETATM   29  C   UNL     1      25.742  46.970  53.130  1.00  0.00     0.179 C 
HETATM   30  N   UNL     1      27.551  46.473  54.603  1.00  0.00    -0.170 NA
HETATM   31  C   UNL     1      28.304  45.411  54.897  1.00  0.00     0.112 A 
HETATM   32  C   UNL     1      28.061  44.350  53.999  1.00  0.00     0.063 A 
BRANCH  31  33
HETATM   33  C   UNL     1      29.247  45.375  56.050  1.00  0.00     0.105 A 
HETATM   34  O   UNL     1      30.332  44.545  56.142  1.00  0.00    -0.320 OA
HETATM   35  C   UNL     1      30.911  44.774  57.350  1.00  0.00     0.142 A 
HETATM   36  C   UNL     1      30.225  45.745  58.039  1.00  0.00     0.027 A 
HETATM   37  C   UNL     1      29.155  46.138  57.199  1.00  0.00     0.041 A 
ENDBRANCH  31  33
ENDBRANCH   1  27
TORSDOF 9
ENDMDL
MODEL 8
REMARK VINA RESULT:      -7.6      3.519      6.102
REMARK  9 active torsions:
REMARK  status: ('A' for Active; 'I' for Inactive)
REMARK    1  A    between atoms: C_4  and  C_5 
REMARK    2  A    between atoms: C_11  and  C_12 
REMARK    3  A    between atoms: C_15  and  C_16 
REMARK    4  A    between atoms: C_16  and  N_17 
REMARK    5  A    between atoms: N_17  and  C_18 
REMARK    6  A    between atoms: C_18  and  N_19 
REMARK    7  A    between atoms: N_19  and  C_20 
REMARK    8  A    between atoms: C_22  and  C_23 
REMARK    9  A    between atoms: C_23  and  O_24 
ROOT
HETATM    1  C   UNL     1      26.094  43.829  51.607  1.00  0.00     0.067 C 
HETATM    2  C   UNL     1      26.682  44.013  50.180  1.00  0.00     0.001 C 
HETATM    3  C   UNL     1      26.642  45.496  49.750  1.00  0.00     0.040 C 
HETATM    4  C   UNL     1      25.190  45.995  49.661  1.00  0.00     0.206 C 
HETATM    5  N   UNL     1      24.290  44.905  50.252  1.00  0.00    -0.065 N 
HETATM    6  H   UNL     1      23.328  45.271  50.302  1.00  0.00     0.280 HD
HETATM    7  C   UNL     1      24.696  44.484  51.655  1.00  0.00     0.246 C 
HETATM    8  C   UNL     1      25.771  43.229  49.206  1.00  0.00     0.033 C 
HETATM    9  C   UNL     1      24.315  43.694  49.335  1.00  0.00     0.236 C 
ENDROOT
BRANCH   4  10
HETATM   10  C   UNL     1      24.921  47.386  50.271  1.00  0.00     0.155 C 
BRANCH  10  11
HETATM   11  N   UNL     1      24.889  48.485  49.311  1.00  0.00    -0.365 N 
HETATM   12  H   UNL     1      25.751  48.685  48.817  1.00  0.00     0.161 HD
BRANCH  11  13
HETATM   13  C   UNL     1      23.777  48.911  48.635  1.00  0.00     0.172 C 
HETATM   14  S   UNL     1      23.575  50.464  48.062  1.00  0.00    -0.041 SA
BRANCH  13  15
HETATM   15  N   UNL     1      22.855  47.950  48.315  1.00  0.00    -0.333 N 
HETATM   16  H   UNL     1      23.255  47.110  47.904  1.00  0.00     0.168 HD
BRANCH  15  17
HETATM   17  C   UNL     1      21.442  47.998  48.357  1.00  0.00     0.035 A 
HETATM   18  C   UNL     1      20.733  48.793  49.258  1.00  0.00     0.047 A 
HETATM   19  C   UNL     1      19.334  48.761  49.308  1.00  0.00     0.041 A 
HETATM   20  C   UNL     1      18.627  47.977  48.398  1.00  0.00     0.018 A 
HETATM   21  C   UNL     1      19.327  47.231  47.445  1.00  0.00     0.003 A 
HETATM   22  C   UNL     1      20.727  47.245  47.423  1.00  0.00     0.029 A 
BRANCH  19  23
HETATM   23  C   UNL     1      18.680  49.554  50.379  1.00  0.00     0.293 C 
HETATM   24  O   UNL     1      18.837  49.305  51.566  1.00  0.00    -0.259 OA
BRANCH  23  25
HETATM   25  O   UNL     1      17.944  50.558  49.853  1.00  0.00    -0.323 OA
HETATM   26  C   UNL     1      18.578  51.838  49.913  1.00  0.00     0.213 C 
ENDBRANCH  23  25
ENDBRANCH  19  23
ENDBRANCH  15  17
ENDBRANCH  13  15
ENDBRANCH  11  13
ENDBRANCH  10  11
ENDBRANCH   4  10
BRANCH   1  27
HETATM   27  C   UNL     1      26.993  44.286  52.727  1.00  0.00     0.038 A 
HETATM   28  N   UNL     1      26.771  45.437  53.459  1.00  0.00    -0.277 N 
HETATM   29  C   UNL     1      25.688  46.388  53.339  1.00  0.00     0.179 C 
HETATM   30  N   UNL     1      27.697  45.662  54.398  1.00  0.00    -0.170 NA
HETATM   31  C   UNL     1      28.480  44.581  54.366  1.00  0.00     0.112 A 
HETATM   32  C   UNL     1      28.095  43.704  53.330  1.00  0.00     0.063 A 
BRANCH  31  33
HETATM   33  C   UNL     1      29.587  44.349  55.335  1.00  0.00     0.105 A 
HETATM   34  O   UNL     1      29.885  45.172  56.388  1.00  0.00    -0.320 OA
HETATM   35  C   UNL     1      30.978  44.653  57.006  1.00  0.00     0.142 A 
HETATM   36  C   UNL     1      31.389  43.503  56.377  1.00  0.00     0.027 A 
HETATM   37  C   UNL     1      30.489  43.301  55.303  1.00  0.00     0.041 A 
ENDBRANCH  31  33
ENDBRANCH   1  27
TORSDOF 9
ENDMDL
MODEL 9
REMARK VINA RESULT:      -7.5      2.615      7.016
REMARK  9 active torsions:
REMARK  status: ('A' for Active; 'I' for Inactive)
REMARK    1  A    between atoms: C_4  and  C_5 
REMARK    2  A    between atoms: C_11  and  C_12 
REMARK    3  A    between atoms: C_15  and  C_16 
REMARK    4  A    between atoms: C_16  and  N_17 
REMARK    5  A    between atoms: N_17  and  C_18 
REMARK    6  A    between atoms: C_18  and  N_19 
REMARK    7  A    between atoms: N_19  and  C_20 
REMARK    8  A    between atoms: C_22  and  C_23 
REMARK    9  A    between atoms: C_23  and  O_24 
ROOT
HETATM    1  C   UNL     1      19.824  48.554  48.087  1.00  0.00     0.067 C 
HETATM    2  C   UNL     1      19.119  47.599  49.090  1.00  0.00     0.001 C 
HETATM    3  C   UNL     1      19.728  46.180  49.026  1.00  0.00     0.040 C 
HETATM    4  C   UNL     1      19.503  45.555  47.640  1.00  0.00     0.206 C 
HETATM    5  N   UNL     1      18.947  46.651  46.724  1.00  0.00    -0.065 N 
HETATM    6  H   UNL     1      18.897  46.276  45.766  1.00  0.00     0.280 HD
HETATM    7  C   UNL     1      19.811  47.900  46.687  1.00  0.00     0.246 C 
HETATM    8  C   UNL     1      17.642  47.482  48.649  1.00  0.00     0.033 C 
HETATM    9  C   UNL     1      17.548  47.018  47.189  1.00  0.00     0.236 C 
ENDROOT
BRANCH   4  10
HETATM   10  C   UNL     1      20.717  44.826  47.028  1.00  0.00     0.155 C 
BRANCH  10  11
HETATM   11  N   UNL     1      21.970  44.997  47.756  1.00  0.00    -0.365 N 
HETATM   12  H   UNL     1      22.248  45.948  47.971  1.00  0.00     0.161 HD
BRANCH  11  13
HETATM   13  C   UNL     1      22.520  44.077  48.608  1.00  0.00     0.172 C 
HETATM   14  S   UNL     1      22.781  42.479  48.210  1.00  0.00    -0.041 SA
BRANCH  13  15
HETATM   15  N   UNL     1      22.988  44.558  49.802  1.00  0.00    -0.333 N 
HETATM   16  H   UNL     1      22.269  44.956  50.401  1.00  0.00     0.168 HD
BRANCH  15  17
HETATM   17  C   UNL     1      24.316  44.692  50.269  1.00  0.00     0.035 A 
HETATM   18  C   UNL     1      24.631  44.962  51.602  1.00  0.00     0.047 A 
HETATM   19  C   UNL     1      25.957  45.151  52.009  1.00  0.00     0.041 A 
HETATM   20  C   UNL     1      26.992  44.998  51.087  1.00  0.00     0.018 A 
HETATM   21  C   UNL     1      26.691  44.658  49.766  1.00  0.00     0.003 A 
HETATM   22  C   UNL     1      25.359  44.502  49.361  1.00  0.00     0.029 A 
BRANCH  19  23
HETATM   23  C   UNL     1      26.178  45.549  53.422  1.00  0.00     0.293 C 
HETATM   24  O   UNL     1      25.684  46.560  53.901  1.00  0.00    -0.259 OA
BRANCH  23  25
HETATM   25  O   UNL     1      26.951  44.645  54.062  1.00  0.00    -0.323 OA
HETATM   26  C   UNL     1      26.222  43.740  54.894  1.00  0.00     0.213 C 
ENDBRANCH  23  25
ENDBRANCH  19  23
ENDBRANCH  15  17
ENDBRANCH  13  15
ENDBRANCH  11  13
ENDBRANCH  10  11
ENDBRANCH   4  10
BRANCH   1  27
HETATM   27  C   UNL     1      21.197  49.012  48.505  1.00  0.00     0.038 A 
HETATM   28  N   UNL     1      21.414  50.011  49.436  1.00  0.00    -0.277 N 
HETATM   29  C   UNL     1      20.441  50.776  50.184  1.00  0.00     0.179 C 
HETATM   30  N   UNL     1      22.710  50.269  49.652  1.00  0.00    -0.170 NA
HETATM   31  C   UNL     1      23.361  49.346  48.941  1.00  0.00     0.112 A 
HETATM   32  C   UNL     1      22.465  48.553  48.194  1.00  0.00     0.063 A 
BRANCH  31  33
HETATM   33  C   UNL     1      24.841  49.183  48.981  1.00  0.00     0.105 A 
HETATM   34  O   UNL     1      25.730  49.990  48.322  1.00  0.00    -0.320 OA
HETATM   35  C   UNL     1      26.973  49.498  48.564  1.00  0.00     0.142 A 
HETATM   36  C   UNL     1      26.907  48.391  49.375  1.00  0.00     0.027 A 
HETATM   37  C   UNL     1      25.533  48.190  49.650  1.00  0.00     0.041 A 
ENDBRANCH  31  33
ENDBRANCH   1  27
TORSDOF 9
ENDMDL
MODEL 10
REMARK VINA RESULT:      -7.4      3.379      6.376
REMARK  9 active torsions:
REMARK  status: ('A' for Active; 'I' for Inactive)
REMARK    1  A    between atoms: C_4  and  C_5 
REMARK    2  A    between atoms: C_11  and  C_12 
REMARK    3  A    between atoms: C_15  and  C_16 
REMARK    4  A    between atoms: C_16  and  N_17 
REMARK    5  A    between atoms: N_17  and  C_18 
REMARK    6  A    between atoms: C_18  and  N_19 
REMARK    7  A    between atoms: N_19  and  C_20 
REMARK    8  A    between atoms: C_22  and  C_23 
REMARK    9  A    between atoms: C_23  and  O_24 
ROOT
HETATM    1  C   UNL     1      27.255  44.539  51.700  1.00  0.00     0.067 C 
HETATM    2  C   UNL     1      26.092  44.761  52.707  1.00  0.00     0.001 C 
HETATM    3  C   UNL     1      24.724  44.479  52.045  1.00  0.00     0.040 C 
HETATM    4  C   UNL     1      24.463  45.467  50.897  1.00  0.00     0.206 C 
HETATM    5  N   UNL     1      25.759  46.250  50.658  1.00  0.00    -0.065 N 
HETATM    6  H   UNL     1      25.633  46.835  49.820  1.00  0.00     0.280 HD
HETATM    7  C   UNL     1      26.967  45.359  50.422  1.00  0.00     0.246 C 
HETATM    8  C   UNL     1      26.108  46.256  53.103  1.00  0.00     0.033 C 
HETATM    9  C   UNL     1      26.020  47.147  51.857  1.00  0.00     0.236 C 
ENDROOT
BRANCH   4  10
HETATM   10  C   UNL     1      23.891  44.854  49.602  1.00  0.00     0.155 C 
BRANCH  10  11
HETATM   11  N   UNL     1      22.569  45.340  49.222  1.00  0.00    -0.365 N 
HETATM   12  H   UNL     1      21.898  45.473  49.970  1.00  0.00     0.161 HD
BRANCH  11  13
HETATM   13  C   UNL     1      22.295  46.106  48.121  1.00  0.00     0.172 C 
HETATM   14  S   UNL     1      21.303  45.620  46.872  1.00  0.00    -0.041 SA
BRANCH  13  15
HETATM   15  N   UNL     1      22.777  47.388  48.137  1.00  0.00    -0.333 N 
HETATM   16  H   UNL     1      23.762  47.465  47.896  1.00  0.00     0.168 HD
BRANCH  15  17
HETATM   17  C   UNL     1      22.152  48.588  48.551  1.00  0.00     0.035 A 
HETATM   18  C   UNL     1      20.980  48.614  49.306  1.00  0.00     0.047 A 
HETATM   19  C   UNL     1      20.360  49.825  49.640  1.00  0.00     0.041 A 
HETATM   20  C   UNL     1      20.957  51.031  49.275  1.00  0.00     0.018 A 
HETATM   21  C   UNL     1      22.169  51.015  48.579  1.00  0.00     0.003 A 
HETATM   22  C   UNL     1      22.765  49.799  48.223  1.00  0.00     0.029 A 
BRANCH  19  23
HETATM   23  C   UNL     1      19.056  49.743  50.344  1.00  0.00     0.293 C 
HETATM   24  O   UNL     1      18.653  48.707  50.856  1.00  0.00    -0.259 OA
BRANCH  23  25
HETATM   25  O   UNL     1      18.433  50.942  50.347  1.00  0.00    -0.323 OA
HETATM   26  C   UNL     1      17.306  51.015  49.472  1.00  0.00     0.213 C 
ENDBRANCH  23  25
ENDBRANCH  19  23
ENDBRANCH  15  17
ENDBRANCH  13  15
ENDBRANCH  11  13
ENDBRANCH  10  11
ENDBRANCH   4  10
BRANCH   1  27
HETATM   27  C   UNL     1      27.576  43.097  51.409  1.00  0.00     0.038 A 
HETATM   28  N   UNL     1      28.180  42.253  52.323  1.00  0.00    -0.277 N 
HETATM   29  C   UNL     1      28.593  42.539  53.680  1.00  0.00     0.179 C 
HETATM   30  N   UNL     1      28.385  41.015  51.856  1.00  0.00    -0.170 NA
HETATM   31  C   UNL     1      27.801  41.007  50.656  1.00  0.00     0.112 A 
HETATM   32  C   UNL     1      27.301  42.284  50.323  1.00  0.00     0.063 A 
BRANCH  31  33
HETATM   33  C   UNL     1      27.684  39.782  49.816  1.00  0.00     0.105 A 
HETATM   34  O   UNL     1      26.549  39.024  49.701  1.00  0.00    -0.320 OA
HETATM   35  C   UNL     1      26.848  37.975  48.891  1.00  0.00     0.142 A 
HETATM   36  C   UNL     1      28.155  38.044  48.472  1.00  0.00     0.027 A 
HETATM   37  C   UNL     1      28.693  39.212  49.063  1.00  0.00     0.041 A 
ENDBRANCH  31  33
ENDBRANCH   1  27
TORSDOF 9
ENDMDL
