MODEL 1
REMARK VINA RESULT:     -10.6      0.000      0.000
REMARK  5 active torsions:
REMARK  status: ('A' for Active; 'I' for Inactive)
REMARK    1  A    between atoms: O_2  and  C_3 
REMARK    2  A    between atoms: C_7  and  C_9 
REMARK    3  A    between atoms: C_9  and  N_11 
REMARK       I    between atoms: N_11  and  C_12 
REMARK    4  A    between atoms: C_12  and  C_14 
REMARK    5  A    between atoms: C_17  and  C_20 
ROOT
HETATM    1  N   UNL     1      25.647  46.213  51.689  1.00  0.00    -0.349 N 
HETATM    2  C   UNL     1      25.779  46.878  52.887  1.00  0.00     0.252 C 
HETATM    3  O   UNL     1      25.126  47.862  53.208  1.00  0.00    -0.268 OA
HETATM    4  H   UNL     1      26.364  45.551  51.423  1.00  0.00     0.163 HD
ENDROOT
BRANCH   2   5
HETATM    5  C   UNL     1      26.833  46.346  53.787  1.00  0.00     0.032 A 
HETATM    6  C   UNL     1      27.598  47.244  54.533  1.00  0.00     0.018 A 
HETATM    7  C   UNL     1      28.624  46.770  55.357  1.00  0.00     0.013 A 
HETATM    8  C   UNL     1      28.895  45.393  55.470  1.00  0.00    -0.023 A 
HETATM    9  C   UNL     1      28.088  44.507  54.733  1.00  0.00     0.013 A 
HETATM   10  C   UNL     1      27.068  44.974  53.897  1.00  0.00     0.018 A 
BRANCH   8  11
HETATM   11  C   UNL     1      29.986  44.895  56.332  1.00  0.00     0.016 A 
HETATM   12  C   UNL     1      30.880  43.912  55.879  1.00  0.00     0.034 A 
HETATM   13  C   UNL     1      31.891  43.464  56.719  1.00  0.00     0.117 A 
HETATM   14  N   UNL     1      32.083  43.921  57.974  1.00  0.00    -0.270 NA
HETATM   15  C   UNL     1      31.219  44.870  58.402  1.00  0.00     0.159 A 
HETATM   16  C   UNL     1      30.182  45.373  57.634  1.00  0.00     0.144 A 
HETATM   17  F   UNL     1      29.377  46.307  58.161  1.00  0.00    -0.204 F 
ENDBRANCH   8  11
ENDBRANCH   2   5
BRANCH   1  18
HETATM   18  C   UNL     1      24.714  46.650  50.663  1.00  0.00     0.114 C 
HETATM   19  C   UNL     1      24.271  45.481  49.779  1.00  0.00     0.037 C 
BRANCH  18  20
HETATM   20  C   UNL     1      25.337  47.767  49.842  1.00  0.00    -0.033 A 
HETATM   21  C   UNL     1      26.732  47.896  49.786  1.00  0.00     0.009 A 
HETATM   22  C   UNL     1      27.320  48.903  49.023  1.00  0.00     0.003 A 
HETATM   23  C   UNL     1      26.519  49.785  48.300  1.00  0.00     0.037 A 
HETATM   24  C   UNL     1      25.128  49.668  48.328  1.00  0.00     0.068 A 
HETATM   25  C   UNL     1      24.542  48.670  49.108  1.00  0.00     0.046 A 
BRANCH  24  26
HETATM   26  O   UNL     1      24.462  50.585  47.561  1.00  0.00    -0.356 OA
HETATM   27  C   UNL     1      23.045  50.608  47.675  1.00  0.00     0.210 C 
ENDBRANCH  24  26
ENDBRANCH  18  20
ENDBRANCH   1  18
TORSDOF 5
ENDMDL
MODEL 2
REMARK VINA RESULT:      -9.3      5.240      7.005
REMARK  5 active torsions:
REMARK  status: ('A' for Active; 'I' for Inactive)
REMARK    1  A    between atoms: O_2  and  C_3 
REMARK    2  A    between atoms: C_7  and  C_9 
REMARK    3  A    between atoms: C_9  and  N_11 
REMARK       I    between atoms: N_11  and  C_12 
REMARK    4  A    between atoms: C_12  and  C_14 
REMARK    5  A    between atoms: C_17  and  C_20 
ROOT
HETATM    1  N   UNL     1      27.429  41.814  50.609  1.00  0.00    -0.349 N 
HETATM    2  C   UNL     1      27.704  43.136  50.875  1.00  0.00     0.252 C 
HETATM    3  O   UNL     1      27.477  44.059  50.105  1.00  0.00    -0.268 OA
HETATM    4  H   UNL     1      27.840  41.106  51.204  1.00  0.00     0.163 HD
ENDROOT
BRANCH   2   5
HETATM    5  C   UNL     1      28.363  43.389  52.181  1.00  0.00     0.032 A 
HETATM    6  C   UNL     1      27.756  44.265  53.083  1.00  0.00     0.018 A 
HETATM    7  C   UNL     1      28.379  44.551  54.303  1.00  0.00     0.013 A 
HETATM    8  C   UNL     1      29.606  43.957  54.657  1.00  0.00    -0.023 A 
HETATM    9  C   UNL     1      30.179  43.053  53.744  1.00  0.00     0.013 A 
HETATM   10  C   UNL     1      29.570  42.771  52.516  1.00  0.00     0.018 A 
BRANCH   8  11
HETATM   11  C   UNL     1      30.266  44.270  55.940  1.00  0.00     0.016 A 
HETATM   12  C   UNL     1      31.210  43.397  56.503  1.00  0.00     0.034 A 
HETATM   13  C   UNL     1      31.808  43.721  57.715  1.00  0.00     0.117 A 
HETATM   14  N   UNL     1      31.540  44.848  58.407  1.00  0.00    -0.270 NA
HETATM   15  C   UNL     1      30.630  45.684  57.857  1.00  0.00     0.159 A 
HETATM   16  C   UNL     1      29.985  45.441  56.655  1.00  0.00     0.144 A 
HETATM   17  F   UNL     1      29.092  46.334  56.205  1.00  0.00    -0.204 F 
ENDBRANCH   8  11
ENDBRANCH   2   5
BRANCH   1  18
HETATM   18  C   UNL     1      26.854  41.385  49.345  1.00  0.00     0.114 C 
HETATM   19  C   UNL     1      25.348  41.144  49.471  1.00  0.00     0.037 C 
BRANCH  18  20
HETATM   20  C   UNL     1      27.578  40.146  48.843  1.00  0.00    -0.033 A 
HETATM   21  C   UNL     1      27.294  39.643  47.566  1.00  0.00     0.009 A 
HETATM   22  C   UNL     1      27.963  38.519  47.083  1.00  0.00     0.003 A 
HETATM   23  C   UNL     1      28.930  37.894  47.869  1.00  0.00     0.037 A 
HETATM   24  C   UNL     1      29.241  38.385  49.138  1.00  0.00     0.068 A 
HETATM   25  C   UNL     1      28.556  39.500  49.626  1.00  0.00     0.046 A 
BRANCH  24  26
HETATM   26  O   UNL     1      30.218  37.691  49.796  1.00  0.00    -0.356 OA
HETATM   27  C   UNL     1      29.967  37.361  51.157  1.00  0.00     0.210 C 
ENDBRANCH  24  26
ENDBRANCH  18  20
ENDBRANCH   1  18
TORSDOF 5
ENDMDL
MODEL 3
REMARK VINA RESULT:      -8.8      3.597      9.205
REMARK  5 active torsions:
REMARK  status: ('A' for Active; 'I' for Inactive)
REMARK    1  A    between atoms: O_2  and  C_3 
REMARK    2  A    between atoms: C_7  and  C_9 
REMARK    3  A    between atoms: C_9  and  N_11 
REMARK       I    between atoms: N_11  and  C_12 
REMARK    4  A    between atoms: C_12  and  C_14 
REMARK    5  A    between atoms: C_17  and  C_20 
ROOT
HETATM    1  N   UNL     1      27.319  44.235  51.757  1.00  0.00    -0.349 N 
HETATM    2  C   UNL     1      26.914  44.330  50.445  1.00  0.00     0.252 C 
HETATM    3  O   UNL     1      27.276  43.575  49.552  1.00  0.00    -0.268 OA
HETATM    4  H   UNL     1      27.143  45.017  52.374  1.00  0.00     0.163 HD
ENDROOT
BRANCH   2   5
HETATM    5  C   UNL     1      26.017  45.474  50.147  1.00  0.00     0.032 A 
HETATM    6  C   UNL     1      24.739  45.216  49.648  1.00  0.00     0.018 A 
HETATM    7  C   UNL     1      23.890  46.279  49.321  1.00  0.00     0.013 A 
HETATM    8  C   UNL     1      24.288  47.617  49.502  1.00  0.00    -0.023 A 
HETATM    9  C   UNL     1      25.568  47.849  50.038  1.00  0.00     0.013 A 
HETATM   10  C   UNL     1      26.428  46.793  50.356  1.00  0.00     0.018 A 
BRANCH   8  11
HETATM   11  C   UNL     1      23.395  48.737  49.146  1.00  0.00     0.016 A 
HETATM   12  C   UNL     1      21.998  48.592  49.179  1.00  0.00     0.034 A 
HETATM   13  C   UNL     1      21.189  49.667  48.832  1.00  0.00     0.117 A 
HETATM   14  N   UNL     1      21.661  50.874  48.457  1.00  0.00    -0.270 NA
HETATM   15  C   UNL     1      23.007  51.005  48.428  1.00  0.00     0.159 A 
HETATM   16  C   UNL     1      23.889  49.989  48.757  1.00  0.00     0.144 A 
HETATM   17  F   UNL     1      25.207  50.224  48.686  1.00  0.00    -0.204 F 
ENDBRANCH   8  11
ENDBRANCH   2   5
BRANCH   1  18
HETATM   18  C   UNL     1      28.257  43.218  52.203  1.00  0.00     0.114 C 
HETATM   19  C   UNL     1      27.567  41.863  52.380  1.00  0.00     0.037 C 
BRANCH  18  20
HETATM   20  C   UNL     1      28.937  43.670  53.485  1.00  0.00    -0.033 A 
HETATM   21  C   UNL     1      30.069  42.986  53.952  1.00  0.00     0.009 A 
HETATM   22  C   UNL     1      30.715  43.400  55.115  1.00  0.00     0.003 A 
HETATM   23  C   UNL     1      30.244  44.509  55.817  1.00  0.00     0.037 A 
HETATM   24  C   UNL     1      29.128  45.215  55.364  1.00  0.00     0.068 A 
HETATM   25  C   UNL     1      28.472  44.786  54.208  1.00  0.00     0.046 A 
BRANCH  24  26
HETATM   26  O   UNL     1      28.781  46.290  56.134  1.00  0.00    -0.356 OA
HETATM   27  C   UNL     1      28.824  46.110  57.544  1.00  0.00     0.210 C 
ENDBRANCH  24  26
ENDBRANCH  18  20
ENDBRANCH   1  18
TORSDOF 5
ENDMDL
MODEL 4
REMARK VINA RESULT:      -8.5      1.627      2.609
REMARK  5 active torsions:
REMARK  status: ('A' for Active; 'I' for Inactive)
REMARK    1  A    between atoms: O_2  and  C_3 
REMARK    2  A    between atoms: C_7  and  C_9 
REMARK    3  A    between atoms: C_9  and  N_11 
REMARK       I    between atoms: N_11  and  C_12 
REMARK    4  A    between atoms: C_12  and  C_14 
REMARK    5  A    between atoms: C_17  and  C_20 
ROOT
HETATM    1  N   UNL     1      25.757  45.060  51.124  1.00  0.00    -0.349 N 
HETATM    2  C   UNL     1      25.412  44.829  52.436  1.00  0.00     0.252 C 
HETATM    3  O   UNL     1      24.265  44.681  52.835  1.00  0.00    -0.268 OA
HETATM    4  H   UNL     1      26.695  45.379  50.920  1.00  0.00     0.163 HD
ENDROOT
BRANCH   2   5
HETATM    5  C   UNL     1      26.549  44.817  53.391  1.00  0.00     0.032 A 
HETATM    6  C   UNL     1      27.354  43.680  53.465  1.00  0.00     0.018 A 
HETATM    7  C   UNL     1      28.407  43.629  54.386  1.00  0.00     0.013 A 
HETATM    8  C   UNL     1      28.691  44.716  55.235  1.00  0.00    -0.023 A 
HETATM    9  C   UNL     1      27.884  45.864  55.116  1.00  0.00     0.013 A 
HETATM   10  C   UNL     1      26.822  45.917  54.207  1.00  0.00     0.018 A 
BRANCH   8  11
HETATM   11  C   UNL     1      29.794  44.656  56.213  1.00  0.00     0.016 A 
HETATM   12  C   UNL     1      29.825  45.508  57.328  1.00  0.00     0.034 A 
HETATM   13  C   UNL     1      30.883  45.427  58.226  1.00  0.00     0.117 A 
HETATM   14  N   UNL     1      31.910  44.562  58.100  1.00  0.00    -0.270 NA
HETATM   15  C   UNL     1      31.873  43.743  57.024  1.00  0.00     0.159 A 
HETATM   16  C   UNL     1      30.859  43.756  56.079  1.00  0.00     0.144 A 
HETATM   17  F   UNL     1      30.926  42.906  55.043  1.00  0.00    -0.204 F 
ENDBRANCH   8  11
ENDBRANCH   2   5
BRANCH   1  18
HETATM   18  C   UNL     1      24.758  45.178  50.073  1.00  0.00     0.114 C 
HETATM   19  C   UNL     1      25.064  44.236  48.907  1.00  0.00     0.037 C 
BRANCH  18  20
HETATM   20  C   UNL     1      24.660  46.624  49.615  1.00  0.00    -0.033 A 
HETATM   21  C   UNL     1      23.415  47.158  49.254  1.00  0.00     0.009 A 
HETATM   22  C   UNL     1      23.305  48.486  48.849  1.00  0.00     0.003 A 
HETATM   23  C   UNL     1      24.438  49.298  48.811  1.00  0.00     0.037 A 
HETATM   24  C   UNL     1      25.686  48.794  49.179  1.00  0.00     0.068 A 
HETATM   25  C   UNL     1      25.796  47.457  49.567  1.00  0.00     0.046 A 
BRANCH  24  26
HETATM   26  O   UNL     1      26.710  49.698  49.113  1.00  0.00    -0.356 OA
HETATM   27  C   UNL     1      28.032  49.174  49.128  1.00  0.00     0.210 C 
ENDBRANCH  24  26
ENDBRANCH  18  20
ENDBRANCH   1  18
TORSDOF 5
ENDMDL
MODEL 5
REMARK VINA RESULT:      -8.4      1.667      2.694
REMARK  5 active torsions:
REMARK  status: ('A' for Active; 'I' for Inactive)
REMARK    1  A    between atoms: O_2  and  C_3 
REMARK    2  A    between atoms: C_7  and  C_9 
REMARK    3  A    between atoms: C_9  and  N_11 
REMARK       I    between atoms: N_11  and  C_12 
REMARK    4  A    between atoms: C_12  and  C_14 
REMARK    5  A    between atoms: C_17  and  C_20 
ROOT
HETATM    1  N   UNL     1      24.201  46.213  50.401  1.00  0.00    -0.349 N 
HETATM    2  C   UNL     1      24.246  45.058  51.148  1.00  0.00     0.252 C 
HETATM    3  O   UNL     1      23.434  44.146  51.064  1.00  0.00    -0.268 OA
HETATM    4  H   UNL     1      24.779  46.994  50.683  1.00  0.00     0.163 HD
ENDROOT
BRANCH   2   5
HETATM    5  C   UNL     1      25.350  44.995  52.139  1.00  0.00     0.032 A 
HETATM    6  C   UNL     1      25.844  46.186  52.674  1.00  0.00     0.018 A 
HETATM    7  C   UNL     1      26.911  46.154  53.578  1.00  0.00     0.013 A 
HETATM    8  C   UNL     1      27.494  44.937  53.982  1.00  0.00    -0.023 A 
HETATM    9  C   UNL     1      26.955  43.749  53.452  1.00  0.00     0.013 A 
HETATM   10  C   UNL     1      25.896  43.773  52.538  1.00  0.00     0.018 A 
BRANCH   8  11
HETATM   11  C   UNL     1      28.627  44.907  54.927  1.00  0.00     0.016 A 
HETATM   12  C   UNL     1      29.636  43.936  54.822  1.00  0.00     0.034 A 
HETATM   13  C   UNL     1      30.685  43.935  55.733  1.00  0.00     0.117 A 
HETATM   14  N   UNL     1      30.809  44.827  56.738  1.00  0.00    -0.270 NA
HETATM   15  C   UNL     1      29.834  45.760  56.831  1.00  0.00     0.159 A 
HETATM   16  C   UNL     1      28.752  45.835  55.969  1.00  0.00     0.144 A 
HETATM   17  F   UNL     1      27.836  46.796  56.158  1.00  0.00    -0.204 F 
ENDBRANCH   8  11
ENDBRANCH   2   5
BRANCH   1  18
HETATM   18  C   UNL     1      23.140  46.469  49.439  1.00  0.00     0.114 C 
HETATM   19  C   UNL     1      23.160  45.444  48.303  1.00  0.00     0.037 C 
BRANCH  18  20
HETATM   20  C   UNL     1      23.253  47.890  48.913  1.00  0.00    -0.033 A 
HETATM   21  C   UNL     1      22.112  48.703  48.855  1.00  0.00     0.009 A 
HETATM   22  C   UNL     1      22.201  50.015  48.392  1.00  0.00     0.003 A 
HETATM   23  C   UNL     1      23.434  50.530  47.995  1.00  0.00     0.037 A 
HETATM   24  C   UNL     1      24.586  49.745  48.057  1.00  0.00     0.068 A 
HETATM   25  C   UNL     1      24.490  48.425  48.503  1.00  0.00     0.046 A 
BRANCH  24  26
HETATM   26  O   UNL     1      25.731  50.376  47.654  1.00  0.00    -0.356 OA
HETATM   27  C   UNL     1      26.908  50.114  48.409  1.00  0.00     0.210 C 
ENDBRANCH  24  26
ENDBRANCH  18  20
ENDBRANCH   1  18
TORSDOF 5
ENDMDL
MODEL 6
REMARK VINA RESULT:      -8.3      4.758      6.285
REMARK  5 active torsions:
REMARK  status: ('A' for Active; 'I' for Inactive)
REMARK    1  A    between atoms: O_2  and  C_3 
REMARK    2  A    between atoms: C_7  and  C_9 
REMARK    3  A    between atoms: C_9  and  N_11 
REMARK       I    between atoms: N_11  and  C_12 
REMARK    4  A    between atoms: C_12  and  C_14 
REMARK    5  A    between atoms: C_17  and  C_20 
ROOT
HETATM    1  N   UNL     1      26.397  42.521  50.758  1.00  0.00    -0.349 N 
HETATM    2  C   UNL     1      27.253  43.596  50.833  1.00  0.00     0.252 C 
HETATM    3  O   UNL     1      27.439  44.398  49.927  1.00  0.00    -0.268 OA
HETATM    4  H   UNL     1      26.465  41.800  51.463  1.00  0.00     0.163 HD
ENDROOT
BRANCH   2   5
HETATM    5  C   UNL     1      28.008  43.708  52.106  1.00  0.00     0.032 A 
HETATM    6  C   UNL     1      27.482  44.491  53.135  1.00  0.00     0.018 A 
HETATM    7  C   UNL     1      28.195  44.645  54.328  1.00  0.00     0.013 A 
HETATM    8  C   UNL     1      29.435  44.008  54.529  1.00  0.00    -0.023 A 
HETATM    9  C   UNL     1      29.927  43.198  53.489  1.00  0.00     0.013 A 
HETATM   10  C   UNL     1      29.226  43.049  52.287  1.00  0.00     0.018 A 
BRANCH   8  11
HETATM   11  C   UNL     1      30.190  44.182  55.785  1.00  0.00     0.016 A 
HETATM   12  C   UNL     1      31.108  43.212  56.222  1.00  0.00     0.034 A 
HETATM   13  C   UNL     1      31.797  43.407  57.412  1.00  0.00     0.117 A 
HETATM   14  N   UNL     1      31.647  44.493  58.199  1.00  0.00    -0.270 NA
HETATM   15  C   UNL     1      30.763  45.422  57.771  1.00  0.00     0.159 A 
HETATM   16  C   UNL     1      30.031  45.310  56.599  1.00  0.00     0.144 A 
HETATM   17  F   UNL     1      29.174  46.288  56.273  1.00  0.00    -0.204 F 
ENDBRANCH   8  11
ENDBRANCH   2   5
BRANCH   1  18
HETATM   18  C   UNL     1      25.638  42.222  49.554  1.00  0.00     0.114 C 
HETATM   19  C   UNL     1      24.137  42.422  49.778  1.00  0.00     0.037 C 
BRANCH  18  20
HETATM   20  C   UNL     1      25.951  40.811  49.084  1.00  0.00    -0.033 A 
HETATM   21  C   UNL     1      26.616  39.923  49.942  1.00  0.00     0.009 A 
HETATM   22  C   UNL     1      26.894  38.620  49.535  1.00  0.00     0.003 A 
HETATM   23  C   UNL     1      26.499  38.188  48.269  1.00  0.00     0.037 A 
HETATM   24  C   UNL     1      25.823  39.048  47.403  1.00  0.00     0.068 A 
HETATM   25  C   UNL     1      25.563  40.359  47.807  1.00  0.00     0.046 A 
BRANCH  24  26
HETATM   26  O   UNL     1      25.479  38.494  46.201  1.00  0.00    -0.356 OA
HETATM   27  C   UNL     1      25.958  37.181  45.938  1.00  0.00     0.210 C 
ENDBRANCH  24  26
ENDBRANCH  18  20
ENDBRANCH   1  18
TORSDOF 5
ENDMDL
MODEL 7
REMARK VINA RESULT:      -8.3      3.884      9.691
REMARK  5 active torsions:
REMARK  status: ('A' for Active; 'I' for Inactive)
REMARK    1  A    between atoms: O_2  and  C_3 
REMARK    2  A    between atoms: C_7  and  C_9 
REMARK    3  A    between atoms: C_9  and  N_11 
REMARK       I    between atoms: N_11  and  C_12 
REMARK    4  A    between atoms: C_12  and  C_14 
REMARK    5  A    between atoms: C_17  and  C_20 
ROOT
HETATM    1  N   UNL     1      27.119  44.445  51.760  1.00  0.00    -0.349 N 
HETATM    2  C   UNL     1      26.814  44.551  50.422  1.00  0.00     0.252 C 
HETATM    3  O   UNL     1      27.303  43.853  49.543  1.00  0.00    -0.268 OA
HETATM    4  H   UNL     1      26.834  45.192  52.380  1.00  0.00     0.163 HD
ENDROOT
BRANCH   2   5
HETATM    5  C   UNL     1      25.857  45.633  50.080  1.00  0.00     0.032 A 
HETATM    6  C   UNL     1      24.517  45.306  49.870  1.00  0.00     0.018 A 
HETATM    7  C   UNL     1      23.604  46.302  49.507  1.00  0.00     0.013 A 
HETATM    8  C   UNL     1      24.004  47.645  49.364  1.00  0.00    -0.023 A 
HETATM    9  C   UNL     1      25.354  47.953  49.614  1.00  0.00     0.013 A 
HETATM   10  C   UNL     1      26.275  46.961  49.965  1.00  0.00     0.018 A 
BRANCH   8  11
HETATM   11  C   UNL     1      23.041  48.692  48.969  1.00  0.00     0.016 A 
HETATM   12  C   UNL     1      23.042  49.952  49.590  1.00  0.00     0.034 A 
HETATM   13  C   UNL     1      22.118  50.911  49.195  1.00  0.00     0.117 A 
HETATM   14  N   UNL     1      21.196  50.715  48.231  1.00  0.00    -0.270 NA
HETATM   15  C   UNL     1      21.202  49.500  47.637  1.00  0.00     0.159 A 
HETATM   16  C   UNL     1      22.086  48.484  47.967  1.00  0.00     0.144 A 
HETATM   17  F   UNL     1      21.999  47.312  47.320  1.00  0.00    -0.204 F 
ENDBRANCH   8  11
ENDBRANCH   2   5
BRANCH   1  18
HETATM   18  C   UNL     1      28.095  43.488  52.256  1.00  0.00     0.114 C 
HETATM   19  C   UNL     1      27.470  42.104  52.445  1.00  0.00     0.037 C 
BRANCH  18  20
HETATM   20  C   UNL     1      28.713  44.004  53.545  1.00  0.00    -0.033 A 
HETATM   21  C   UNL     1      28.219  45.176  54.135  1.00  0.00     0.009 A 
HETATM   22  C   UNL     1      28.763  45.652  55.326  1.00  0.00     0.003 A 
HETATM   23  C   UNL     1      29.798  44.955  55.946  1.00  0.00     0.037 A 
HETATM   24  C   UNL     1      30.298  43.778  55.386  1.00  0.00     0.068 A 
HETATM   25  C   UNL     1      29.764  43.313  54.183  1.00  0.00     0.046 A 
BRANCH  24  26
HETATM   26  O   UNL     1      31.300  43.185  56.103  1.00  0.00    -0.356 OA
HETATM   27  C   UNL     1      31.619  43.764  57.362  1.00  0.00     0.210 C 
ENDBRANCH  24  26
ENDBRANCH  18  20
ENDBRANCH   1  18
TORSDOF 5
ENDMDL
MODEL 8
REMARK VINA RESULT:      -8.3      2.300      3.014
REMARK  5 active torsions:
REMARK  status: ('A' for Active; 'I' for Inactive)
REMARK    1  A    between atoms: O_2  and  C_3 
REMARK    2  A    between atoms: C_7  and  C_9 
REMARK    3  A    between atoms: C_9  and  N_11 
REMARK       I    between atoms: N_11  and  C_12 
REMARK    4  A    between atoms: C_12  and  C_14 
REMARK    5  A    between atoms: C_17  and  C_20 
ROOT
HETATM    1  N   UNL     1      24.448  45.100  50.211  1.00  0.00    -0.349 N 
HETATM    2  C   UNL     1      24.522  44.042  51.088  1.00  0.00     0.252 C 
HETATM    3  O   UNL     1      23.693  43.145  51.162  1.00  0.00    -0.268 OA
HETATM    4  H   UNL     1      25.054  45.896  50.363  1.00  0.00     0.163 HD
ENDROOT
BRANCH   2   5
HETATM    5  C   UNL     1      25.684  44.072  52.011  1.00  0.00     0.032 A 
HETATM    6  C   UNL     1      25.455  44.256  53.376  1.00  0.00     0.018 A 
HETATM    7  C   UNL     1      26.537  44.328  54.261  1.00  0.00     0.013 A 
HETATM    8  C   UNL     1      27.864  44.200  53.808  1.00  0.00    -0.023 A 
HETATM    9  C   UNL     1      28.065  43.983  52.432  1.00  0.00     0.013 A 
HETATM   10  C   UNL     1      26.990  43.922  51.539  1.00  0.00     0.018 A 
BRANCH   8  11
HETATM   11  C   UNL     1      29.003  44.289  54.742  1.00  0.00     0.016 A 
HETATM   12  C   UNL     1      29.856  43.194  54.955  1.00  0.00     0.034 A 
HETATM   13  C   UNL     1      30.916  43.313  55.846  1.00  0.00     0.117 A 
HETATM   14  N   UNL     1      31.194  44.437  56.538  1.00  0.00    -0.270 NA
HETATM   15  C   UNL     1      30.369  45.487  56.327  1.00  0.00     0.159 A 
HETATM   16  C   UNL     1      29.289  45.458  55.459  1.00  0.00     0.144 A 
HETATM   17  F   UNL     1      28.528  46.556  55.331  1.00  0.00    -0.204 F 
ENDBRANCH   8  11
ENDBRANCH   2   5
BRANCH   1  18
HETATM   18  C   UNL     1      23.334  45.263  49.290  1.00  0.00     0.114 C 
HETATM   19  C   UNL     1      23.557  44.469  48.001  1.00  0.00     0.037 C 
BRANCH  18  20
HETATM   20  C   UNL     1      23.111  46.740  49.007  1.00  0.00    -0.033 A 
HETATM   21  C   UNL     1      24.075  47.678  49.402  1.00  0.00     0.009 A 
HETATM   22  C   UNL     1      23.895  49.033  49.134  1.00  0.00     0.003 A 
HETATM   23  C   UNL     1      22.754  49.463  48.457  1.00  0.00     0.037 A 
HETATM   24  C   UNL     1      21.787  48.547  48.041  1.00  0.00     0.068 A 
HETATM   25  C   UNL     1      21.962  47.191  48.328  1.00  0.00     0.046 A 
BRANCH  24  26
HETATM   26  O   UNL     1      20.727  49.097  47.374  1.00  0.00    -0.356 OA
HETATM   27  C   UNL     1      19.433  48.621  47.722  1.00  0.00     0.210 C 
ENDBRANCH  24  26
ENDBRANCH  18  20
ENDBRANCH   1  18
TORSDOF 5
ENDMDL
MODEL 9
REMARK VINA RESULT:      -8.3      3.969      5.845
REMARK  5 active torsions:
REMARK  status: ('A' for Active; 'I' for Inactive)
REMARK    1  A    between atoms: O_2  and  C_3 
REMARK    2  A    between atoms: C_7  and  C_9 
REMARK    3  A    between atoms: C_9  and  N_11 
REMARK       I    between atoms: N_11  and  C_12 
REMARK    4  A    between atoms: C_12  and  C_14 
REMARK    5  A    between atoms: C_17  and  C_20 
ROOT
HETATM    1  N   UNL     1      25.793  43.175  51.118  1.00  0.00    -0.349 N 
HETATM    2  C   UNL     1      26.685  44.223  51.143  1.00  0.00     0.252 C 
HETATM    3  O   UNL     1      26.805  45.052  50.251  1.00  0.00    -0.268 OA
HETATM    4  H   UNL     1      25.909  42.426  51.788  1.00  0.00     0.163 HD
ENDROOT
BRANCH   2   5
HETATM    5  C   UNL     1      27.566  44.268  52.337  1.00  0.00     0.032 A 
HETATM    6  C   UNL     1      28.720  43.482  52.353  1.00  0.00     0.018 A 
HETATM    7  C   UNL     1      29.544  43.477  53.484  1.00  0.00     0.013 A 
HETATM    8  C   UNL     1      29.247  44.268  54.611  1.00  0.00    -0.023 A 
HETATM    9  C   UNL     1      28.096  45.076  54.555  1.00  0.00     0.013 A 
HETATM   10  C   UNL     1      27.260  45.077  53.434  1.00  0.00     0.018 A 
BRANCH   8  11
HETATM   11  C   UNL     1      30.113  44.252  55.807  1.00  0.00     0.016 A 
HETATM   12  C   UNL     1      31.027  43.210  56.029  1.00  0.00     0.034 A 
HETATM   13  C   UNL     1      31.822  43.226  57.168  1.00  0.00     0.117 A 
HETATM   14  N   UNL     1      31.778  44.199  58.102  1.00  0.00    -0.270 NA
HETATM   15  C   UNL     1      30.896  45.199  57.880  1.00  0.00     0.159 A 
HETATM   16  C   UNL     1      30.065  45.265  56.773  1.00  0.00     0.144 A 
HETATM   17  F   UNL     1      29.219  46.299  56.656  1.00  0.00    -0.204 F 
ENDBRANCH   8  11
ENDBRANCH   2   5
BRANCH   1  18
HETATM   18  C   UNL     1      24.910  42.941  49.986  1.00  0.00     0.114 C 
HETATM   19  C   UNL     1      23.441  42.955  50.415  1.00  0.00     0.037 C 
BRANCH  18  20
HETATM   20  C   UNL     1      25.282  41.635  49.304  1.00  0.00    -0.033 A 
HETATM   21  C   UNL     1      24.621  41.250  48.129  1.00  0.00     0.009 A 
HETATM   22  C   UNL     1      24.962  40.064  47.481  1.00  0.00     0.003 A 
HETATM   23  C   UNL     1      25.976  39.257  47.995  1.00  0.00     0.037 A 
HETATM   24  C   UNL     1      26.658  39.626  49.155  1.00  0.00     0.068 A 
HETATM   25  C   UNL     1      26.301  40.805  49.812  1.00  0.00     0.046 A 
BRANCH  24  26
HETATM   26  O   UNL     1      27.640  38.756  49.542  1.00  0.00    -0.356 OA
HETATM   27  C   UNL     1      28.875  39.325  49.959  1.00  0.00     0.210 C 
ENDBRANCH  24  26
ENDBRANCH  18  20
ENDBRANCH   1  18
TORSDOF 5
ENDMDL
MODEL 10
REMARK VINA RESULT:      -7.9      2.941      4.253
REMARK  5 active torsions:
REMARK  status: ('A' for Active; 'I' for Inactive)
REMARK    1  A    between atoms: O_2  and  C_3 
REMARK    2  A    between atoms: C_7  and  C_9 
REMARK    3  A    between atoms: C_9  and  N_11 
REMARK       I    between atoms: N_11  and  C_12 
REMARK    4  A    between atoms: C_12  and  C_14 
REMARK    5  A    between atoms: C_17  and  C_20 
ROOT
HETATM    1  N   UNL     1      26.746  42.590  50.636  1.00  0.00    -0.349 N 
HETATM    2  C   UNL     1      27.633  41.747  51.266  1.00  0.00     0.252 C 
HETATM    3  O   UNL     1      27.854  40.593  50.923  1.00  0.00    -0.268 OA
HETATM    4  H   UNL     1      26.471  43.441  51.109  1.00  0.00     0.163 HD
ENDROOT
BRANCH   2   5
HETATM    5  C   UNL     1      28.298  42.317  52.464  1.00  0.00     0.032 A 
HETATM    6  C   UNL     1      27.509  42.867  53.475  1.00  0.00     0.018 A 
HETATM    7  C   UNL     1      28.116  43.447  54.595  1.00  0.00     0.013 A 
HETATM    8  C   UNL     1      29.516  43.472  54.740  1.00  0.00    -0.023 A 
HETATM    9  C   UNL     1      30.287  42.881  53.722  1.00  0.00     0.013 A 
HETATM   10  C   UNL     1      29.689  42.310  52.593  1.00  0.00     0.018 A 
BRANCH   8  11
HETATM   11  C   UNL     1      30.153  44.095  55.917  1.00  0.00     0.016 A 
HETATM   12  C   UNL     1      31.168  43.435  56.628  1.00  0.00     0.034 A 
HETATM   13  C   UNL     1      31.742  44.050  57.735  1.00  0.00     0.117 A 
HETATM   14  N   UNL     1      31.385  45.270  58.186  1.00  0.00    -0.270 NA
HETATM   15  C   UNL     1      30.408  45.900  57.494  1.00  0.00     0.159 A 
HETATM   16  C   UNL     1      29.780  45.362  56.381  1.00  0.00     0.144 A 
HETATM   17  F   UNL     1      28.815  46.069  55.775  1.00  0.00    -0.204 F 
ENDBRANCH   8  11
ENDBRANCH   2   5
BRANCH   1  18
HETATM   18  C   UNL     1      25.955  42.164  49.493  1.00  0.00     0.114 C 
HETATM   19  C   UNL     1      26.843  41.848  48.288  1.00  0.00     0.037 C 
BRANCH  18  20
HETATM   20  C   UNL     1      24.917  43.224  49.161  1.00  0.00    -0.033 A 
HETATM   21  C   UNL     1      23.777  42.875  48.423  1.00  0.00     0.009 A 
HETATM   22  C   UNL     1      22.807  43.830  48.126  1.00  0.00     0.003 A 
HETATM   23  C   UNL     1      22.961  45.141  48.574  1.00  0.00     0.037 A 
HETATM   24  C   UNL     1      24.080  45.510  49.322  1.00  0.00     0.068 A 
HETATM   25  C   UNL     1      25.060  44.555  49.602  1.00  0.00     0.046 A 
BRANCH  24  26
HETATM   26  O   UNL     1      24.101  46.820  49.713  1.00  0.00    -0.356 OA
HETATM   27  C   UNL     1      25.377  47.396  49.963  1.00  0.00     0.210 C 
ENDBRANCH  24  26
ENDBRANCH  18  20
ENDBRANCH   1  18
TORSDOF 5
ENDMDL
