MODEL 1
REMARK VINA RESULT:      -8.9      0.000      0.000
REMARK  6 active torsions:
REMARK  status: ('A' for Active; 'I' for Inactive)
REMARK    1  A    between atoms: O_2  and  C_3 
REMARK    2  A    between atoms: C_6  and  C_7 
REMARK    3  A    between atoms: C_11  and  C_12 
REMARK       I    between atoms: C_12  and  N_13 
REMARK    4  A    between atoms: N_13  and  N_14 
REMARK       I    between atoms: N_14  and  C_15 
REMARK    5  A    between atoms: C_15  and  C_16 
REMARK    6  A    between atoms: C_17  and  C_18 
ROOT
HETATM    1  C   UNL     1      23.433  44.404  50.249  1.00  0.00     0.288 C 
HETATM    2  N   UNL     1      23.032  45.503  49.523  1.00  0.00    -0.262 N 
HETATM    3  O   UNL     1      22.683  43.457  50.473  1.00  0.00    -0.264 OA
HETATM    4  H   UNL     1      23.644  46.277  49.276  1.00  0.00     0.190 HD
ENDROOT
BRANCH   1   5
HETATM    5  C   UNL     1      24.787  44.453  50.731  1.00  0.00     0.121 A 
HETATM    6  N   UNL     1      25.785  45.066  50.029  1.00  0.00    -0.272 N 
HETATM    7  N   UNL     1      26.988  45.014  50.619  1.00  0.00    -0.174 NA
HETATM    8  H   UNL     1      25.699  45.538  49.133  1.00  0.00     0.189 HD
HETATM    9  C   UNL     1      26.784  44.315  51.748  1.00  0.00     0.089 A 
HETATM   10  C   UNL     1      25.410  43.958  51.860  1.00  0.00     0.071 A 
BRANCH   9  11
HETATM   11  C   UNL     1      27.876  44.008  52.679  1.00  0.00    -0.005 A 
HETATM   12  C   UNL     1      28.856  43.061  52.342  1.00  0.00     0.016 A 
HETATM   13  C   UNL     1      29.909  42.768  53.218  1.00  0.00     0.037 A 
HETATM   14  C   UNL     1      29.999  43.415  54.449  1.00  0.00     0.068 A 
HETATM   15  C   UNL     1      29.020  44.348  54.797  1.00  0.00     0.037 A 
HETATM   16  C   UNL     1      27.969  44.645  53.923  1.00  0.00     0.016 A 
BRANCH  14  17
HETATM   17  O   UNL     1      30.970  43.227  55.392  1.00  0.00    -0.356 OA
HETATM   18  C   UNL     1      31.018  44.164  56.460  1.00  0.00     0.210 C 
ENDBRANCH  14  17
ENDBRANCH   9  11
ENDBRANCH   1   5
BRANCH   2  19
HETATM   19  N   UNL     1      21.720  45.577  49.047  1.00  0.00    -0.267 N 
HETATM   20  C   UNL     1      21.492  46.300  47.898  1.00  0.00     0.240 C 
HETATM   21  O   UNL     1      22.387  46.893  47.301  1.00  0.00    -0.271 OA
HETATM   22  H   UNL     1      21.037  44.956  49.473  1.00  0.00     0.190 HD
BRANCH  20  23
HETATM   23  C   UNL     1      20.101  46.365  47.383  1.00  0.00     0.089 A 
HETATM   24  C   UNL     1      19.195  47.559  47.624  1.00  0.00     0.036 A 
HETATM   25  C   UNL     1      19.656  47.213  46.225  1.00  0.00     0.025 A 
BRANCH  24  26
HETATM   26  C   UNL     1      19.681  48.823  48.297  1.00  0.00    -0.015 A 
HETATM   27  C   UNL     1      19.577  49.014  49.685  1.00  0.00     0.123 A 
HETATM   28  F   UNL     1      19.012  48.061  50.443  1.00  0.00    -0.206 F 
HETATM   29  C   UNL     1      20.042  50.166  50.315  1.00  0.00     0.043 A 
HETATM   30  C   UNL     1      20.641  51.170  49.559  1.00  0.00     0.003 A 
HETATM   31  C   UNL     1      20.775  51.007  48.183  1.00  0.00     0.001 A 
HETATM   32  C   UNL     1      20.305  49.845  47.562  1.00  0.00     0.011 A 
ENDBRANCH  24  26
ENDBRANCH  20  23
ENDBRANCH   2  19
TORSDOF 6
ENDMDL
MODEL 2
REMARK VINA RESULT:      -8.8      2.179      3.204
REMARK  6 active torsions:
REMARK  status: ('A' for Active; 'I' for Inactive)
REMARK    1  A    between atoms: O_2  and  C_3 
REMARK    2  A    between atoms: C_6  and  C_7 
REMARK    3  A    between atoms: C_11  and  C_12 
REMARK       I    between atoms: C_12  and  N_13 
REMARK    4  A    between atoms: N_13  and  N_14 
REMARK       I    between atoms: N_14  and  C_15 
REMARK    5  A    between atoms: C_15  and  C_16 
REMARK    6  A    between atoms: C_17  and  C_18 
ROOT
HETATM    1  C   UNL     1      23.881  47.105  49.739  1.00  0.00     0.288 C 
HETATM    2  N   UNL     1      24.022  48.475  49.694  1.00  0.00    -0.262 N 
HETATM    3  O   UNL     1      23.171  46.493  48.944  1.00  0.00    -0.264 OA
HETATM    4  H   UNL     1      24.643  49.003  50.302  1.00  0.00     0.190 HD
ENDROOT
BRANCH   1   5
HETATM    5  C   UNL     1      24.618  46.450  50.785  1.00  0.00     0.121 A 
HETATM    6  N   UNL     1      24.263  45.221  51.262  1.00  0.00    -0.272 N 
HETATM    7  N   UNL     1      25.055  44.758  52.240  1.00  0.00    -0.174 NA
HETATM    8  H   UNL     1      23.481  44.650  50.952  1.00  0.00     0.189 HD
HETATM    9  C   UNL     1      25.957  45.733  52.438  1.00  0.00     0.089 A 
HETATM   10  C   UNL     1      25.724  46.806  51.532  1.00  0.00     0.071 A 
BRANCH   9  11
HETATM   11  C   UNL     1      27.002  45.627  53.463  1.00  0.00    -0.005 A 
HETATM   12  C   UNL     1      27.780  44.464  53.571  1.00  0.00     0.016 A 
HETATM   13  C   UNL     1      28.788  44.354  54.538  1.00  0.00     0.037 A 
HETATM   14  C   UNL     1      29.034  45.408  55.417  1.00  0.00     0.068 A 
HETATM   15  C   UNL     1      28.255  46.563  55.325  1.00  0.00     0.037 A 
HETATM   16  C   UNL     1      27.250  46.676  54.358  1.00  0.00     0.016 A 
BRANCH  14  17
HETATM   17  O   UNL     1      29.983  45.435  56.400  1.00  0.00    -0.356 OA
HETATM   18  C   UNL     1      31.003  44.447  56.334  1.00  0.00     0.210 C 
ENDBRANCH  14  17
ENDBRANCH   9  11
ENDBRANCH   1   5
BRANCH   2  19
HETATM   19  N   UNL     1      23.312  49.213  48.743  1.00  0.00    -0.267 N 
HETATM   20  C   UNL     1      22.469  50.202  49.196  1.00  0.00     0.240 C 
HETATM   21  O   UNL     1      22.305  50.437  50.390  1.00  0.00    -0.271 OA
HETATM   22  H   UNL     1      23.583  49.098  47.770  1.00  0.00     0.190 HD
BRANCH  20  23
HETATM   23  C   UNL     1      21.727  50.998  48.184  1.00  0.00     0.089 A 
HETATM   24  C   UNL     1      20.439  50.510  47.545  1.00  0.00     0.036 A 
HETATM   25  C   UNL     1      20.438  51.726  48.446  1.00  0.00     0.025 A 
BRANCH  24  26
HETATM   26  C   UNL     1      19.749  49.237  47.981  1.00  0.00    -0.015 A 
HETATM   27  C   UNL     1      20.176  47.972  47.544  1.00  0.00     0.123 A 
HETATM   28  F   UNL     1      21.214  47.881  46.699  1.00  0.00    -0.206 F 
HETATM   29  C   UNL     1      19.559  46.794  47.959  1.00  0.00     0.043 A 
HETATM   30  C   UNL     1      18.485  46.853  48.842  1.00  0.00     0.003 A 
HETATM   31  C   UNL     1      18.045  48.089  49.308  1.00  0.00     0.001 A 
HETATM   32  C   UNL     1      18.674  49.265  48.886  1.00  0.00     0.011 A 
ENDBRANCH  24  26
ENDBRANCH  20  23
ENDBRANCH   2  19
TORSDOF 6
ENDMDL
MODEL 3
REMARK VINA RESULT:      -8.6      2.676      4.279
REMARK  6 active torsions:
REMARK  status: ('A' for Active; 'I' for Inactive)
REMARK    1  A    between atoms: O_2  and  C_3 
REMARK    2  A    between atoms: C_6  and  C_7 
REMARK    3  A    between atoms: C_11  and  C_12 
REMARK       I    between atoms: C_12  and  N_13 
REMARK    4  A    between atoms: N_13  and  N_14 
REMARK       I    between atoms: N_14  and  C_15 
REMARK    5  A    between atoms: C_15  and  C_16 
REMARK    6  A    between atoms: C_17  and  C_18 
ROOT
HETATM    1  C   UNL     1      23.069  48.772  48.858  1.00  0.00     0.288 C 
HETATM    2  N   UNL     1      22.136  49.427  49.630  1.00  0.00    -0.262 N 
HETATM    3  O   UNL     1      23.330  49.120  47.708  1.00  0.00    -0.264 OA
HETATM    4  H   UNL     1      21.938  49.196  50.601  1.00  0.00     0.190 HD
ENDROOT
BRANCH   1   5
HETATM    5  C   UNL     1      23.706  47.649  49.491  1.00  0.00     0.121 A 
HETATM    6  N   UNL     1      23.171  46.393  49.449  1.00  0.00    -0.272 N 
HETATM    7  N   UNL     1      23.891  45.465  50.095  1.00  0.00    -0.174 NA
HETATM    8  H   UNL     1      22.309  46.113  48.989  1.00  0.00     0.189 HD
HETATM    9  C   UNL     1      24.933  46.138  50.609  1.00  0.00     0.089 A 
HETATM   10  C   UNL     1      24.859  47.511  50.238  1.00  0.00     0.071 A 
BRANCH   9  11
HETATM   11  C   UNL     1      25.958  45.476  51.425  1.00  0.00    -0.005 A 
HETATM   12  C   UNL     1      26.115  45.806  52.780  1.00  0.00     0.016 A 
HETATM   13  C   UNL     1      27.083  45.174  53.571  1.00  0.00     0.037 A 
HETATM   14  C   UNL     1      27.914  44.201  53.019  1.00  0.00     0.068 A 
HETATM   15  C   UNL     1      27.773  43.877  51.668  1.00  0.00     0.037 A 
HETATM   16  C   UNL     1      26.806  44.504  50.877  1.00  0.00     0.016 A 
BRANCH  14  17
HETATM   17  O   UNL     1      28.892  43.507  53.674  1.00  0.00    -0.356 OA
HETATM   18  C   UNL     1      29.942  42.971  52.879  1.00  0.00     0.210 C 
ENDBRANCH  14  17
ENDBRANCH   9  11
ENDBRANCH   1   5
BRANCH   2  19
HETATM   19  N   UNL     1      21.426  50.504  49.093  1.00  0.00    -0.267 N 
HETATM   20  C   UNL     1      20.217  50.827  49.666  1.00  0.00     0.240 C 
HETATM   21  O   UNL     1      19.738  50.192  50.603  1.00  0.00    -0.271 OA
HETATM   22  H   UNL     1      21.915  51.095  48.427  1.00  0.00     0.190 HD
BRANCH  20  23
HETATM   23  C   UNL     1      19.470  51.982  49.106  1.00  0.00     0.089 A 
HETATM   24  C   UNL     1      18.318  51.816  48.131  1.00  0.00     0.036 A 
HETATM   25  C   UNL     1      18.079  52.380  49.514  1.00  0.00     0.025 A 
BRANCH  24  26
HETATM   26  C   UNL     1      17.764  50.460  47.754  1.00  0.00    -0.015 A 
HETATM   27  C   UNL     1      18.336  49.679  46.735  1.00  0.00     0.123 A 
HETATM   28  F   UNL     1      19.393  50.151  46.056  1.00  0.00    -0.206 F 
HETATM   29  C   UNL     1      17.844  48.421  46.397  1.00  0.00     0.043 A 
HETATM   30  C   UNL     1      16.755  47.899  47.088  1.00  0.00     0.003 A 
HETATM   31  C   UNL     1      16.173  48.638  48.114  1.00  0.00     0.001 A 
HETATM   32  C   UNL     1      16.677  49.900  48.445  1.00  0.00     0.011 A 
ENDBRANCH  24  26
ENDBRANCH  20  23
ENDBRANCH   2  19
TORSDOF 6
ENDMDL
MODEL 4
REMARK VINA RESULT:      -8.4      1.613      1.907
REMARK  6 active torsions:
REMARK  status: ('A' for Active; 'I' for Inactive)
REMARK    1  A    between atoms: O_2  and  C_3 
REMARK    2  A    between atoms: C_6  and  C_7 
REMARK    3  A    between atoms: C_11  and  C_12 
REMARK       I    between atoms: C_12  and  N_13 
REMARK    4  A    between atoms: N_13  and  N_14 
REMARK       I    between atoms: N_14  and  C_15 
REMARK    5  A    between atoms: C_15  and  C_16 
REMARK    6  A    between atoms: C_17  and  C_18 
ROOT
HETATM    1  C   UNL     1      24.035  46.385  49.929  1.00  0.00     0.288 C 
HETATM    2  N   UNL     1      22.966  45.619  49.521  1.00  0.00    -0.262 N 
HETATM    3  O   UNL     1      24.345  47.432  49.365  1.00  0.00    -0.264 OA
HETATM    4  H   UNL     1      22.653  44.778  49.999  1.00  0.00     0.190 HD
ENDROOT
BRANCH   1   5
HETATM    5  C   UNL     1      24.764  45.864  51.054  1.00  0.00     0.121 A 
HETATM    6  N   UNL     1      24.292  44.827  51.807  1.00  0.00    -0.272 N 
HETATM    7  N   UNL     1      25.094  44.471  52.820  1.00  0.00    -0.174 NA
HETATM    8  H   UNL     1      23.420  44.323  51.671  1.00  0.00     0.189 HD
HETATM    9  C   UNL     1      26.129  45.325  52.753  1.00  0.00     0.089 A 
HETATM   10  C   UNL     1      25.964  46.206  51.646  1.00  0.00     0.071 A 
BRANCH   9  11
HETATM   11  C   UNL     1      27.232  45.286  53.720  1.00  0.00    -0.005 A 
HETATM   12  C   UNL     1      28.098  44.183  53.771  1.00  0.00     0.016 A 
HETATM   13  C   UNL     1      29.161  44.139  54.683  1.00  0.00     0.037 A 
HETATM   14  C   UNL     1      29.374  45.199  55.563  1.00  0.00     0.068 A 
HETATM   15  C   UNL     1      28.509  46.293  55.528  1.00  0.00     0.037 A 
HETATM   16  C   UNL     1      27.448  46.341  54.616  1.00  0.00     0.016 A 
BRANCH  14  17
HETATM   17  O   UNL     1      30.369  45.286  56.495  1.00  0.00    -0.356 OA
HETATM   18  C   UNL     1      30.046  45.932  57.720  1.00  0.00     0.210 C 
ENDBRANCH  14  17
ENDBRANCH   9  11
ENDBRANCH   1   5
BRANCH   2  19
HETATM   19  N   UNL     1      22.218  46.012  48.407  1.00  0.00    -0.267 N 
HETATM   20  C   UNL     1      20.904  45.607  48.340  1.00  0.00     0.240 C 
HETATM   21  O   UNL     1      20.384  44.902  49.201  1.00  0.00    -0.271 OA
HETATM   22  H   UNL     1      22.628  46.714  47.798  1.00  0.00     0.190 HD
BRANCH  20  23
HETATM   23  C   UNL     1      20.105  46.038  47.165  1.00  0.00     0.089 A 
HETATM   24  C   UNL     1      19.470  47.414  47.068  1.00  0.00     0.036 A 
HETATM   25  C   UNL     1      20.576  47.009  46.119  1.00  0.00     0.025 A 
BRANCH  24  26
HETATM   26  C   UNL     1      19.708  48.491  48.102  1.00  0.00    -0.015 A 
HETATM   27  C   UNL     1      18.987  48.539  49.307  1.00  0.00     0.123 A 
HETATM   28  F   UNL     1      18.041  47.618  49.548  1.00  0.00    -0.206 F 
HETATM   29  C   UNL     1      19.216  49.516  50.274  1.00  0.00     0.043 A 
HETATM   30  C   UNL     1      20.196  50.481  50.059  1.00  0.00     0.003 A 
HETATM   31  C   UNL     1      20.941  50.454  48.884  1.00  0.00     0.001 A 
HETATM   32  C   UNL     1      20.702  49.468  47.921  1.00  0.00     0.011 A 
ENDBRANCH  24  26
ENDBRANCH  20  23
ENDBRANCH   2  19
TORSDOF 6
ENDMDL
MODEL 5
REMARK VINA RESULT:      -8.4      3.092      4.475
REMARK  6 active torsions:
REMARK  status: ('A' for Active; 'I' for Inactive)
REMARK    1  A    between atoms: O_2  and  C_3 
REMARK    2  A    between atoms: C_6  and  C_7 
REMARK    3  A    between atoms: C_11  and  C_12 
REMARK       I    between atoms: C_12  and  N_13 
REMARK    4  A    between atoms: N_13  and  N_14 
REMARK       I    between atoms: N_14  and  C_15 
REMARK    5  A    between atoms: C_15  and  C_16 
REMARK    6  A    between atoms: C_17  and  C_18 
ROOT
HETATM    1  C   UNL     1      23.776  49.812  48.346  1.00  0.00     0.288 C 
HETATM    2  N   UNL     1      22.661  50.226  49.041  1.00  0.00    -0.262 N 
HETATM    3  O   UNL     1      23.993  50.160  47.187  1.00  0.00    -0.264 OA
HETATM    4  H   UNL     1      22.483  49.999  50.016  1.00  0.00     0.190 HD
ENDROOT
BRANCH   1   5
HETATM    5  C   UNL     1      24.659  48.940  49.072  1.00  0.00     0.121 A 
HETATM    6  N   UNL     1      26.018  49.033  48.968  1.00  0.00    -0.272 N 
HETATM    7  N   UNL     1      26.690  48.141  49.709  1.00  0.00    -0.174 NA
HETATM    8  H   UNL     1      26.541  49.693  48.400  1.00  0.00     0.189 HD
HETATM    9  C   UNL     1      25.738  47.409  50.309  1.00  0.00     0.089 A 
HETATM   10  C   UNL     1      24.449  47.891  49.945  1.00  0.00     0.071 A 
BRANCH   9  11
HETATM   11  C   UNL     1      26.066  46.289  51.200  1.00  0.00    -0.005 A 
HETATM   12  C   UNL     1      26.676  45.131  50.695  1.00  0.00     0.016 A 
HETATM   13  C   UNL     1      27.003  44.060  51.538  1.00  0.00     0.037 A 
HETATM   14  C   UNL     1      26.723  44.129  52.901  1.00  0.00     0.068 A 
HETATM   15  C   UNL     1      26.104  45.273  53.408  1.00  0.00     0.037 A 
HETATM   16  C   UNL     1      25.779  46.345  52.570  1.00  0.00     0.016 A 
BRANCH  14  17
HETATM   17  O   UNL     1      26.991  43.164  53.831  1.00  0.00    -0.356 OA
HETATM   18  C   UNL     1      28.245  42.503  53.727  1.00  0.00     0.210 C 
ENDBRANCH  14  17
ENDBRANCH   9  11
ENDBRANCH   1   5
BRANCH   2  19
HETATM   19  N   UNL     1      21.715  51.039  48.411  1.00  0.00    -0.267 N 
HETATM   20  C   UNL     1      20.571  51.353  49.109  1.00  0.00     0.240 C 
HETATM   21  O   UNL     1      20.347  50.927  50.239  1.00  0.00    -0.271 OA
HETATM   22  H   UNL     1      21.997  51.494  47.547  1.00  0.00     0.190 HD
BRANCH  20  23
HETATM   23  C   UNL     1      19.573  52.230  48.446  1.00  0.00     0.089 A 
HETATM   24  C   UNL     1      18.362  51.683  47.712  1.00  0.00     0.036 A 
HETATM   25  C   UNL     1      18.191  52.503  48.971  1.00  0.00     0.025 A 
BRANCH  24  26
HETATM   26  C   UNL     1      18.014  50.211  47.707  1.00  0.00    -0.015 A 
HETATM   27  C   UNL     1      16.834  49.724  48.293  1.00  0.00     0.123 A 
HETATM   28  F   UNL     1      15.994  50.579  48.897  1.00  0.00    -0.206 F 
HETATM   29  C   UNL     1      16.496  48.373  48.274  1.00  0.00     0.043 A 
HETATM   30  C   UNL     1      17.341  47.461  47.648  1.00  0.00     0.003 A 
HETATM   31  C   UNL     1      18.511  47.910  47.043  1.00  0.00     0.001 A 
HETATM   32  C   UNL     1      18.839  49.270  47.068  1.00  0.00     0.011 A 
ENDBRANCH  24  26
ENDBRANCH  20  23
ENDBRANCH   2  19
TORSDOF 6
ENDMDL
MODEL 6
REMARK VINA RESULT:      -8.3      3.381     10.226
REMARK  6 active torsions:
REMARK  status: ('A' for Active; 'I' for Inactive)
REMARK    1  A    between atoms: O_2  and  C_3 
REMARK    2  A    between atoms: C_6  and  C_7 
REMARK    3  A    between atoms: C_11  and  C_12 
REMARK       I    between atoms: C_12  and  N_13 
REMARK    4  A    between atoms: N_13  and  N_14 
REMARK       I    between atoms: N_14  and  C_15 
REMARK    5  A    between atoms: C_15  and  C_16 
REMARK    6  A    between atoms: C_17  and  C_18 
ROOT
HETATM    1  C   UNL     1      24.078  45.267  49.218  1.00  0.00     0.288 C 
HETATM    2  N   UNL     1      24.772  44.934  50.360  1.00  0.00    -0.262 N 
HETATM    3  O   UNL     1      23.973  44.497  48.266  1.00  0.00    -0.264 OA
HETATM    4  H   UNL     1      24.831  45.528  51.183  1.00  0.00     0.190 HD
ENDROOT
BRANCH   1   5
HETATM    5  C   UNL     1      23.496  46.582  49.220  1.00  0.00     0.121 A 
HETATM    6  N   UNL     1      24.174  47.675  49.679  1.00  0.00    -0.272 N 
HETATM    7  N   UNL     1      23.482  48.821  49.613  1.00  0.00    -0.174 NA
HETATM    8  H   UNL     1      25.120  47.693  50.051  1.00  0.00     0.189 HD
HETATM    9  C   UNL     1      22.286  48.470  49.115  1.00  0.00     0.089 A 
HETATM   10  C   UNL     1      22.262  47.072  48.840  1.00  0.00     0.071 A 
BRANCH   9  11
HETATM   11  C   UNL     1      21.212  49.449  48.911  1.00  0.00    -0.005 A 
HETATM   12  C   UNL     1      19.869  49.041  48.888  1.00  0.00     0.016 A 
HETATM   13  C   UNL     1      18.835  49.968  48.705  1.00  0.00     0.037 A 
HETATM   14  C   UNL     1      19.126  51.321  48.538  1.00  0.00     0.068 A 
HETATM   15  C   UNL     1      20.460  51.732  48.546  1.00  0.00     0.037 A 
HETATM   16  C   UNL     1      21.495  50.809  48.732  1.00  0.00     0.016 A 
BRANCH  14  17
HETATM   17  O   UNL     1      18.219  52.326  48.355  1.00  0.00    -0.356 OA
HETATM   18  C   UNL     1      17.435  52.696  49.482  1.00  0.00     0.210 C 
ENDBRANCH  14  17
ENDBRANCH   9  11
ENDBRANCH   1   5
BRANCH   2  19
HETATM   19  N   UNL     1      25.416  43.696  50.442  1.00  0.00    -0.267 N 
HETATM   20  C   UNL     1      26.771  43.659  50.207  1.00  0.00     0.240 C 
HETATM   21  O   UNL     1      27.419  44.659  49.907  1.00  0.00    -0.271 OA
HETATM   22  H   UNL     1      24.886  42.924  50.838  1.00  0.00     0.190 HD
BRANCH  20  23
HETATM   23  C   UNL     1      27.458  42.346  50.310  1.00  0.00     0.089 A 
HETATM   24  C   UNL     1      28.236  41.925  51.544  1.00  0.00     0.036 A 
HETATM   25  C   UNL     1      26.975  41.191  51.143  1.00  0.00     0.025 A 
BRANCH  24  26
HETATM   26  C   UNL     1      28.265  42.757  52.807  1.00  0.00    -0.015 A 
HETATM   27  C   UNL     1      29.462  43.277  53.328  1.00  0.00     0.123 A 
HETATM   28  F   UNL     1      30.622  43.017  52.705  1.00  0.00    -0.206 F 
HETATM   29  C   UNL     1      29.494  44.062  54.478  1.00  0.00     0.043 A 
HETATM   30  C   UNL     1      28.308  44.358  55.143  1.00  0.00     0.003 A 
HETATM   31  C   UNL     1      27.101  43.872  54.647  1.00  0.00     0.001 A 
HETATM   32  C   UNL     1      27.082  43.086  53.489  1.00  0.00     0.011 A 
ENDBRANCH  24  26
ENDBRANCH  20  23
ENDBRANCH   2  19
TORSDOF 6
ENDMDL
MODEL 7
REMARK VINA RESULT:      -8.3      2.389      3.139
REMARK  6 active torsions:
REMARK  status: ('A' for Active; 'I' for Inactive)
REMARK    1  A    between atoms: O_2  and  C_3 
REMARK    2  A    between atoms: C_6  and  C_7 
REMARK    3  A    between atoms: C_11  and  C_12 
REMARK       I    between atoms: C_12  and  N_13 
REMARK    4  A    between atoms: N_13  and  N_14 
REMARK       I    between atoms: N_14  and  C_15 
REMARK    5  A    between atoms: C_15  and  C_16 
REMARK    6  A    between atoms: C_17  and  C_18 
ROOT
HETATM    1  C   UNL     1      23.129  48.569  48.251  1.00  0.00     0.288 C 
HETATM    2  N   UNL     1      22.010  47.765  48.255  1.00  0.00    -0.262 N 
HETATM    3  O   UNL     1      23.232  49.544  47.511  1.00  0.00    -0.264 OA
HETATM    4  H   UNL     1      21.873  46.985  48.893  1.00  0.00     0.190 HD
ENDROOT
BRANCH   1   5
HETATM    5  C   UNL     1      24.165  48.177  49.167  1.00  0.00     0.121 A 
HETATM    6  N   UNL     1      25.387  48.787  49.184  1.00  0.00    -0.272 N 
HETATM    7  N   UNL     1      26.236  48.295  50.097  1.00  0.00    -0.174 NA
HETATM    8  H   UNL     1      25.695  49.550  48.589  1.00  0.00     0.189 HD
HETATM    9  C   UNL     1      25.559  47.300  50.693  1.00  0.00     0.089 A 
HETATM   10  C   UNL     1      24.248  47.205  50.145  1.00  0.00     0.071 A 
BRANCH   9  11
HETATM   11  C   UNL     1      26.159  46.477  51.750  1.00  0.00    -0.005 A 
HETATM   12  C   UNL     1      26.598  45.173  51.476  1.00  0.00     0.016 A 
HETATM   13  C   UNL     1      27.182  44.382  52.475  1.00  0.00     0.037 A 
HETATM   14  C   UNL     1      27.333  44.882  53.767  1.00  0.00     0.068 A 
HETATM   15  C   UNL     1      26.885  46.173  54.050  1.00  0.00     0.037 A 
HETATM   16  C   UNL     1      26.305  46.966  53.055  1.00  0.00     0.016 A 
BRANCH  14  17
HETATM   17  O   UNL     1      27.885  44.222  54.828  1.00  0.00    -0.356 OA
HETATM   18  C   UNL     1      29.271  43.918  54.745  1.00  0.00     0.210 C 
ENDBRANCH  14  17
ENDBRANCH   9  11
ENDBRANCH   1   5
BRANCH   2  19
HETATM   19  N   UNL     1      20.962  48.032  47.369  1.00  0.00    -0.267 N 
HETATM   20  C   UNL     1      19.757  47.406  47.592  1.00  0.00     0.240 C 
HETATM   21  O   UNL     1      19.583  46.614  48.515  1.00  0.00    -0.271 OA
HETATM   22  H   UNL     1      21.093  48.799  46.716  1.00  0.00     0.190 HD
BRANCH  20  23
HETATM   23  C   UNL     1      18.639  47.702  46.661  1.00  0.00     0.089 A 
HETATM   24  C   UNL     1      17.789  48.955  46.775  1.00  0.00     0.036 A 
HETATM   25  C   UNL     1      18.683  48.739  45.574  1.00  0.00     0.025 A 
BRANCH  24  26
HETATM   26  C   UNL     1      18.096  50.055  47.766  1.00  0.00    -0.015 A 
HETATM   27  C   UNL     1      17.890  49.892  49.147  1.00  0.00     0.123 A 
HETATM   28  F   UNL     1      17.387  48.736  49.607  1.00  0.00    -0.206 F 
HETATM   29  C   UNL     1      18.190  50.892  50.068  1.00  0.00     0.043 A 
HETATM   30  C   UNL     1      18.722  52.100  49.624  1.00  0.00     0.003 A 
HETATM   31  C   UNL     1      18.954  52.291  48.265  1.00  0.00     0.001 A 
HETATM   32  C   UNL     1      18.649  51.277  47.349  1.00  0.00     0.011 A 
ENDBRANCH  24  26
ENDBRANCH  20  23
ENDBRANCH   2  19
TORSDOF 6
ENDMDL
MODEL 8
REMARK VINA RESULT:      -8.2      7.357      8.748
REMARK  6 active torsions:
REMARK  status: ('A' for Active; 'I' for Inactive)
REMARK    1  A    between atoms: O_2  and  C_3 
REMARK    2  A    between atoms: C_6  and  C_7 
REMARK    3  A    between atoms: C_11  and  C_12 
REMARK       I    between atoms: C_12  and  N_13 
REMARK    4  A    between atoms: N_13  and  N_14 
REMARK       I    between atoms: N_14  and  C_15 
REMARK    5  A    between atoms: C_15  and  C_16 
REMARK    6  A    between atoms: C_17  and  C_18 
ROOT
HETATM    1  C   UNL     1      26.833  40.659  51.020  1.00  0.00     0.288 C 
HETATM    2  N   UNL     1      27.234  39.393  50.652  1.00  0.00    -0.262 N 
HETATM    3  O   UNL     1      25.766  41.142  50.650  1.00  0.00    -0.264 OA
HETATM    4  H   UNL     1      28.084  38.947  50.985  1.00  0.00     0.190 HD
ENDROOT
BRANCH   1   5
HETATM    5  C   UNL     1      27.758  41.371  51.860  1.00  0.00     0.121 A 
HETATM    6  N   UNL     1      29.103  41.135  51.821  1.00  0.00    -0.272 N 
HETATM    7  N   UNL     1      29.819  41.883  52.673  1.00  0.00    -0.174 NA
HETATM    8  H   UNL     1      29.587  40.469  51.226  1.00  0.00     0.189 HD
HETATM    9  C   UNL     1      28.909  42.626  53.323  1.00  0.00     0.089 A 
HETATM   10  C   UNL     1      27.604  42.343  52.828  1.00  0.00     0.071 A 
BRANCH   9  11
HETATM   11  C   UNL     1      29.290  43.573  54.377  1.00  0.00    -0.005 A 
HETATM   12  C   UNL     1      28.529  44.729  54.608  1.00  0.00     0.016 A 
HETATM   13  C   UNL     1      28.876  45.635  55.619  1.00  0.00     0.037 A 
HETATM   14  C   UNL     1      29.995  45.400  56.416  1.00  0.00     0.068 A 
HETATM   15  C   UNL     1      30.765  44.259  56.184  1.00  0.00     0.037 A 
HETATM   16  C   UNL     1      30.418  43.352  55.178  1.00  0.00     0.016 A 
BRANCH  14  17
HETATM   17  O   UNL     1      30.443  46.195  57.434  1.00  0.00    -0.356 OA
HETATM   18  C   UNL     1      30.886  45.538  58.614  1.00  0.00     0.210 C 
ENDBRANCH  14  17
ENDBRANCH   9  11
ENDBRANCH   1   5
BRANCH   2  19
HETATM   19  N   UNL     1      26.428  38.633  49.799  1.00  0.00    -0.267 N 
HETATM   20  C   UNL     1      27.037  37.661  49.039  1.00  0.00     0.240 C 
HETATM   21  O   UNL     1      28.248  37.459  49.067  1.00  0.00    -0.271 OA
HETATM   22  H   UNL     1      25.422  38.721  49.912  1.00  0.00     0.190 HD
BRANCH  20  23
HETATM   23  C   UNL     1      26.179  36.842  48.144  1.00  0.00     0.089 A 
HETATM   24  C   UNL     1      25.959  37.185  46.682  1.00  0.00     0.036 A 
HETATM   25  C   UNL     1      26.692  35.922  47.073  1.00  0.00     0.025 A 
BRANCH  24  26
HETATM   26  C   UNL     1      26.696  38.313  45.995  1.00  0.00    -0.015 A 
HETATM   27  C   UNL     1      26.334  39.659  46.177  1.00  0.00     0.123 A 
HETATM   28  F   UNL     1      25.292  39.961  46.966  1.00  0.00    -0.206 F 
HETATM   29  C   UNL     1      27.022  40.704  45.564  1.00  0.00     0.043 A 
HETATM   30  C   UNL     1      28.112  40.425  44.747  1.00  0.00     0.003 A 
HETATM   31  C   UNL     1      28.509  39.104  44.556  1.00  0.00     0.001 A 
HETATM   32  C   UNL     1      27.811  38.063  45.178  1.00  0.00     0.011 A 
ENDBRANCH  24  26
ENDBRANCH  20  23
ENDBRANCH   2  19
TORSDOF 6
ENDMDL
MODEL 9
REMARK VINA RESULT:      -8.2     13.769     14.478
REMARK  6 active torsions:
REMARK  status: ('A' for Active; 'I' for Inactive)
REMARK    1  A    between atoms: O_2  and  C_3 
REMARK    2  A    between atoms: C_6  and  C_7 
REMARK    3  A    between atoms: C_11  and  C_12 
REMARK       I    between atoms: C_12  and  N_13 
REMARK    4  A    between atoms: N_13  and  N_14 
REMARK       I    between atoms: N_14  and  C_15 
REMARK    5  A    between atoms: C_15  and  C_16 
REMARK    6  A    between atoms: C_17  and  C_18 
ROOT
HETATM    1  C   UNL     1      34.547  51.477  41.900  1.00  0.00     0.288 C 
HETATM    2  N   UNL     1      34.230  50.244  42.425  1.00  0.00    -0.262 N 
HETATM    3  O   UNL     1      34.016  51.912  40.881  1.00  0.00    -0.264 OA
HETATM    4  H   UNL     1      34.612  49.880  43.294  1.00  0.00     0.190 HD
ENDROOT
BRANCH   1   5
HETATM    5  C   UNL     1      35.549  52.209  42.626  1.00  0.00     0.121 A 
HETATM    6  N   UNL     1      36.251  53.234  42.059  1.00  0.00    -0.272 N 
HETATM    7  N   UNL     1      37.149  53.805  42.874  1.00  0.00    -0.174 NA
HETATM    8  H   UNL     1      36.156  53.587  41.111  1.00  0.00     0.189 HD
HETATM    9  C   UNL     1      37.057  53.113  44.021  1.00  0.00     0.089 A 
HETATM   10  C   UNL     1      36.051  52.112  43.909  1.00  0.00     0.071 A 
BRANCH   9  11
HETATM   11  C   UNL     1      37.908  53.413  45.179  1.00  0.00    -0.005 A 
HETATM   12  C   UNL     1      37.739  54.604  45.900  1.00  0.00     0.016 A 
HETATM   13  C   UNL     1      38.538  54.896  47.014  1.00  0.00     0.037 A 
HETATM   14  C   UNL     1      39.524  54.000  47.423  1.00  0.00     0.068 A 
HETATM   15  C   UNL     1      39.708  52.819  46.702  1.00  0.00     0.037 A 
HETATM   16  C   UNL     1      38.910  52.524  45.592  1.00  0.00     0.016 A 
BRANCH  14  17
HETATM   17  O   UNL     1      40.367  54.158  48.487  1.00  0.00    -0.356 OA
HETATM   18  C   UNL     1      41.759  54.203  48.203  1.00  0.00     0.210 C 
ENDBRANCH  14  17
ENDBRANCH   9  11
ENDBRANCH   1   5
BRANCH   2  19
HETATM   19  N   UNL     1      33.300  49.431  41.770  1.00  0.00    -0.267 N 
HETATM   20  C   UNL     1      32.056  49.288  42.341  1.00  0.00     0.240 C 
HETATM   21  O   UNL     1      31.750  49.824  43.404  1.00  0.00    -0.271 OA
HETATM   22  H   UNL     1      33.531  49.131  40.827  1.00  0.00     0.190 HD
BRANCH  20  23
HETATM   23  C   UNL     1      31.063  48.438  41.637  1.00  0.00     0.089 A 
HETATM   24  C   UNL     1      29.881  49.017  40.881  1.00  0.00     0.036 A 
HETATM   25  C   UNL     1      30.977  48.279  40.145  1.00  0.00     0.025 A 
BRANCH  24  26
HETATM   26  C   UNL     1      29.696  50.505  40.681  1.00  0.00    -0.015 A 
HETATM   27  C   UNL     1      28.616  51.203  41.248  1.00  0.00     0.123 A 
HETATM   28  F   UNL     1      27.705  50.535  41.972  1.00  0.00    -0.206 F 
HETATM   29  C   UNL     1      28.451  52.576  41.087  1.00  0.00     0.043 A 
HETATM   30  C   UNL     1      29.383  53.300  40.349  1.00  0.00     0.003 A 
HETATM   31  C   UNL     1      30.474  52.644  39.786  1.00  0.00     0.001 A 
HETATM   32  C   UNL     1      30.630  51.264  39.956  1.00  0.00     0.011 A 
ENDBRANCH  24  26
ENDBRANCH  20  23
ENDBRANCH   2  19
TORSDOF 6
ENDMDL
MODEL 10
REMARK VINA RESULT:      -8.1      3.424      9.998
REMARK  6 active torsions:
REMARK  status: ('A' for Active; 'I' for Inactive)
REMARK    1  A    between atoms: O_2  and  C_3 
REMARK    2  A    between atoms: C_6  and  C_7 
REMARK    3  A    between atoms: C_11  and  C_12 
REMARK       I    between atoms: C_12  and  N_13 
REMARK    4  A    between atoms: N_13  and  N_14 
REMARK       I    between atoms: N_14  and  C_15 
REMARK    5  A    between atoms: C_15  and  C_16 
REMARK    6  A    between atoms: C_17  and  C_18 
ROOT
HETATM    1  C   UNL     1      26.109  45.566  50.687  1.00  0.00     0.288 C 
HETATM    2  N   UNL     1      26.541  44.451  50.002  1.00  0.00    -0.262 N 
HETATM    3  O   UNL     1      26.631  45.933  51.737  1.00  0.00    -0.264 OA
HETATM    4  H   UNL     1      26.165  44.154  49.105  1.00  0.00     0.190 HD
ENDROOT
BRANCH   1   5
HETATM    5  C   UNL     1      25.000  46.258  50.087  1.00  0.00     0.121 A 
HETATM    6  N   UNL     1      24.171  45.656  49.185  1.00  0.00    -0.272 N 
HETATM    7  N   UNL     1      23.192  46.446  48.722  1.00  0.00    -0.174 NA
HETATM    8  H   UNL     1      24.229  44.699  48.848  1.00  0.00     0.189 HD
HETATM    9  C   UNL     1      23.397  47.630  49.321  1.00  0.00     0.089 A 
HETATM   10  C   UNL     1      24.515  47.546  50.199  1.00  0.00     0.071 A 
BRANCH   9  11
HETATM   11  C   UNL     1      22.542  48.793  49.056  1.00  0.00    -0.005 A 
HETATM   12  C   UNL     1      23.092  50.082  48.987  1.00  0.00     0.016 A 
HETATM   13  C   UNL     1      22.287  51.199  48.723  1.00  0.00     0.037 A 
HETATM   14  C   UNL     1      20.916  51.045  48.527  1.00  0.00     0.068 A 
HETATM   15  C   UNL     1      20.360  49.767  48.607  1.00  0.00     0.037 A 
HETATM   16  C   UNL     1      21.161  48.650  48.867  1.00  0.00     0.016 A 
BRANCH  14  17
HETATM   17  O   UNL     1      20.021  52.042  48.260  1.00  0.00    -0.356 OA
HETATM   18  C   UNL     1      18.920  52.172  49.150  1.00  0.00     0.210 C 
ENDBRANCH  14  17
ENDBRANCH   9  11
ENDBRANCH   1   5
BRANCH   2  19
HETATM   19  N   UNL     1      27.584  43.680  50.523  1.00  0.00    -0.267 N 
HETATM   20  C   UNL     1      27.265  42.464  51.084  1.00  0.00     0.240 C 
HETATM   21  O   UNL     1      26.110  42.053  51.162  1.00  0.00    -0.271 OA
HETATM   22  H   UNL     1      28.531  43.976  50.307  1.00  0.00     0.190 HD
BRANCH  20  23
HETATM   23  C   UNL     1      28.375  41.637  51.623  1.00  0.00     0.089 A 
HETATM   24  C   UNL     1      29.085  41.969  52.923  1.00  0.00     0.036 A 
HETATM   25  C   UNL     1      28.257  40.709  52.799  1.00  0.00     0.025 A 
BRANCH  24  26
HETATM   26  C   UNL     1      28.634  43.092  53.829  1.00  0.00    -0.015 A 
HETATM   27  C   UNL     1      29.549  43.953  54.459  1.00  0.00     0.123 A 
HETATM   28  F   UNL     1      30.866  43.767  54.274  1.00  0.00    -0.206 F 
HETATM   29  C   UNL     1      29.141  45.003  55.278  1.00  0.00     0.043 A 
HETATM   30  C   UNL     1      27.783  45.228  55.484  1.00  0.00     0.003 A 
HETATM   31  C   UNL     1      26.848  44.405  54.862  1.00  0.00     0.001 A 
HETATM   32  C   UNL     1      27.270  43.354  54.041  1.00  0.00     0.011 A 
ENDBRANCH  24  26
ENDBRANCH  20  23
ENDBRANCH   2  19
TORSDOF 6
ENDMDL
