MODEL 1
REMARK VINA RESULT:      -9.4      0.000      0.000
REMARK  6 active torsions:
REMARK  status: ('A' for Active; 'I' for Inactive)
REMARK    1  A    between atoms: C_2  and  C_3 
REMARK    2  A    between atoms: C_6  and  C_7 
REMARK    3  A    between atoms: C_11  and  C_12 
REMARK       I    between atoms: C_12  and  N_13 
REMARK    4  A    between atoms: N_13  and  N_14 
REMARK    5  A    between atoms: C_15  and  C_16 
REMARK    6  A    between atoms: C_19  and  O_20 
ROOT
HETATM    1  C   UNL     1      26.527  45.369  51.145  1.00  0.00     0.289 C 
HETATM    2  N   UNL     1      26.552  45.512  52.524  1.00  0.00    -0.241 N 
HETATM    3  O   UNL     1      27.387  44.788  50.489  1.00  0.00    -0.264 OA
HETATM    4  H   UNL     1      25.814  46.018  52.991  1.00  0.00     0.192 HD
ENDROOT
BRANCH   1   5
HETATM    5  C   UNL     1      25.395  45.995  50.504  1.00  0.00     0.121 A 
HETATM    6  N   UNL     1      24.548  45.286  49.699  1.00  0.00    -0.272 N 
HETATM    7  N   UNL     1      23.570  46.019  49.148  1.00  0.00    -0.174 NA
HETATM    8  H   UNL     1      24.608  44.295  49.481  1.00  0.00     0.189 HD
HETATM    9  C   UNL     1      23.752  47.254  49.639  1.00  0.00     0.089 A 
HETATM   10  C   UNL     1      24.890  47.280  50.493  1.00  0.00     0.071 A 
BRANCH   9  11
HETATM   11  C   UNL     1      22.874  48.371  49.280  1.00  0.00    -0.006 A 
HETATM   12  C   UNL     1      21.543  48.150  48.901  1.00  0.00     0.014 A 
HETATM   13  C   UNL     1      20.701  49.221  48.587  1.00  0.00     0.008 A 
HETATM   14  C   UNL     1      21.176  50.537  48.640  1.00  0.00    -0.059 A 
HETATM   15  C   UNL     1      22.506  50.762  49.012  1.00  0.00     0.008 A 
HETATM   16  C   UNL     1      23.347  49.690  49.324  1.00  0.00     0.014 A 
BRANCH  14  17
HETATM   17  C   UNL     1      20.259  51.692  48.330  1.00  0.00     0.034 C 
HETATM   18  C   UNL     1      19.178  51.855  49.387  1.00  0.00     0.010 C 
ENDBRANCH  14  17
ENDBRANCH   9  11
ENDBRANCH   1   5
BRANCH   2  19
HETATM   19  N   UNL     1      27.559  44.961  53.257  1.00  0.00    -0.176 NA
HETATM   20  C   UNL     1      28.020  45.602  54.293  1.00  0.00     0.061 C 
HETATM   21  C   UNL     1      27.538  46.977  54.713  1.00  0.00     0.073 C 
BRANCH  20  22
HETATM   22  C   UNL     1      29.090  44.941  55.111  1.00  0.00    -0.010 A 
HETATM   23  C   UNL     1      29.583  45.607  56.244  1.00  0.00     0.016 A 
HETATM   24  C   UNL     1      30.581  45.027  57.032  1.00  0.00     0.037 A 
HETATM   25  C   UNL     1      31.089  43.782  56.681  1.00  0.00     0.065 A 
HETATM   26  C   UNL     1      30.622  43.114  55.556  1.00  0.00     0.037 A 
HETATM   27  C   UNL     1      29.627  43.694  54.765  1.00  0.00     0.016 A 
BRANCH  25  28
HETATM   28  O   UNL     1      32.062  43.176  57.419  1.00  0.00    -0.361 OA
HETATM   29  H   UNL     1      32.116  43.617  58.283  1.00  0.00     0.217 HD
ENDBRANCH  25  28
ENDBRANCH  20  22
ENDBRANCH   2  19
TORSDOF 6
ENDMDL
MODEL 2
REMARK VINA RESULT:      -9.1      3.239     11.004
REMARK  6 active torsions:
REMARK  status: ('A' for Active; 'I' for Inactive)
REMARK    1  A    between atoms: C_2  and  C_3 
REMARK    2  A    between atoms: C_6  and  C_7 
REMARK    3  A    between atoms: C_11  and  C_12 
REMARK       I    between atoms: C_12  and  N_13 
REMARK    4  A    between atoms: N_13  and  N_14 
REMARK    5  A    between atoms: C_15  and  C_16 
REMARK    6  A    between atoms: C_19  and  O_20 
ROOT
HETATM    1  C   UNL     1      23.974  48.164  49.783  1.00  0.00     0.289 C 
HETATM    2  N   UNL     1      22.615  47.972  49.582  1.00  0.00    -0.241 N 
HETATM    3  O   UNL     1      24.595  49.164  49.434  1.00  0.00    -0.264 OA
HETATM    4  H   UNL     1      22.179  47.113  49.885  1.00  0.00     0.192 HD
ENDROOT
BRANCH   1   5
HETATM    5  C   UNL     1      24.640  47.059  50.431  1.00  0.00     0.121 A 
HETATM    6  N   UNL     1      24.098  45.804  50.438  1.00  0.00    -0.272 N 
HETATM    7  N   UNL     1      24.819  44.897  51.114  1.00  0.00    -0.174 NA
HETATM    8  H   UNL     1      23.222  45.519  50.008  1.00  0.00     0.189 HD
HETATM    9  C   UNL     1      25.901  45.569  51.535  1.00  0.00     0.089 A 
HETATM   10  C   UNL     1      25.824  46.930  51.128  1.00  0.00     0.071 A 
BRANCH   9  11
HETATM   11  C   UNL     1      26.959  44.926  52.320  1.00  0.00    -0.006 A 
HETATM   12  C   UNL     1      27.802  43.965  51.745  1.00  0.00     0.014 A 
HETATM   13  C   UNL     1      28.827  43.375  52.490  1.00  0.00     0.008 A 
HETATM   14  C   UNL     1      29.027  43.731  53.830  1.00  0.00    -0.059 A 
HETATM   15  C   UNL     1      28.185  44.685  54.409  1.00  0.00     0.008 A 
HETATM   16  C   UNL     1      27.159  45.272  53.664  1.00  0.00     0.014 A 
BRANCH  14  17
HETATM   17  C   UNL     1      30.152  43.115  54.622  1.00  0.00     0.034 C 
HETATM   18  C   UNL     1      30.642  44.045  55.722  1.00  0.00     0.010 C 
ENDBRANCH  14  17
ENDBRANCH   9  11
ENDBRANCH   1   5
BRANCH   2  19
HETATM   19  N   UNL     1      21.861  48.939  48.990  1.00  0.00    -0.176 NA
HETATM   20  C   UNL     1      20.620  48.687  48.688  1.00  0.00     0.061 C 
HETATM   21  C   UNL     1      19.960  47.339  48.904  1.00  0.00     0.073 C 
BRANCH  20  22
HETATM   22  C   UNL     1      19.802  49.793  48.088  1.00  0.00    -0.010 A 
HETATM   23  C   UNL     1      19.843  51.063  48.685  1.00  0.00     0.016 A 
HETATM   24  C   UNL     1      19.095  52.120  48.160  1.00  0.00     0.037 A 
HETATM   25  C   UNL     1      18.302  51.903  47.039  1.00  0.00     0.065 A 
HETATM   26  C   UNL     1      18.240  50.649  46.442  1.00  0.00     0.037 A 
HETATM   27  C   UNL     1      18.984  49.590  46.970  1.00  0.00     0.016 A 
BRANCH  25  28
HETATM   28  O   UNL     1      17.556  52.903  46.490  1.00  0.00    -0.361 OA
HETATM   29  H   UNL     1      16.618  52.662  46.554  1.00  0.00     0.217 HD
ENDBRANCH  25  28
ENDBRANCH  20  22
ENDBRANCH   2  19
TORSDOF 6
ENDMDL
MODEL 3
REMARK VINA RESULT:      -8.8      1.168      1.875
REMARK  6 active torsions:
REMARK  status: ('A' for Active; 'I' for Inactive)
REMARK    1  A    between atoms: C_2  and  C_3 
REMARK    2  A    between atoms: C_6  and  C_7 
REMARK    3  A    between atoms: C_11  and  C_12 
REMARK       I    between atoms: C_12  and  N_13 
REMARK    4  A    between atoms: N_13  and  N_14 
REMARK    5  A    between atoms: C_15  and  C_16 
REMARK    6  A    between atoms: C_19  and  O_20 
ROOT
HETATM    1  C   UNL     1      25.617  46.444  50.372  1.00  0.00     0.289 C 
HETATM    2  N   UNL     1      25.480  45.920  51.649  1.00  0.00    -0.241 N 
HETATM    3  O   UNL     1      26.667  46.462  49.736  1.00  0.00    -0.264 OA
HETATM    4  H   UNL     1      24.585  45.955  52.114  1.00  0.00     0.192 HD
ENDROOT
BRANCH   1   5
HETATM    5  C   UNL     1      24.405  47.011  49.831  1.00  0.00     0.121 A 
HETATM    6  N   UNL     1      23.522  46.254  49.113  1.00  0.00    -0.272 N 
HETATM    7  N   UNL     1      22.466  46.936  48.645  1.00  0.00    -0.174 NA
HETATM    8  H   UNL     1      23.606  45.264  48.898  1.00  0.00     0.189 HD
HETATM    9  C   UNL     1      22.636  48.184  49.106  1.00  0.00     0.089 A 
HETATM   10  C   UNL     1      23.844  48.272  49.854  1.00  0.00     0.071 A 
BRANCH   9  11
HETATM   11  C   UNL     1      21.680  49.257  48.819  1.00  0.00    -0.006 A 
HETATM   12  C   UNL     1      20.944  49.266  47.625  1.00  0.00     0.014 A 
HETATM   13  C   UNL     1      20.013  50.278  47.368  1.00  0.00     0.008 A 
HETATM   14  C   UNL     1      19.802  51.303  48.297  1.00  0.00    -0.059 A 
HETATM   15  C   UNL     1      20.538  51.300  49.487  1.00  0.00     0.008 A 
HETATM   16  C   UNL     1      21.471  50.291  49.741  1.00  0.00     0.014 A 
BRANCH  14  17
HETATM   17  C   UNL     1      18.777  52.375  48.031  1.00  0.00     0.034 C 
HETATM   18  C   UNL     1      17.870  52.600  49.232  1.00  0.00     0.010 C 
ENDBRANCH  14  17
ENDBRANCH   9  11
ENDBRANCH   1   5
BRANCH   2  19
HETATM   19  N   UNL     1      26.542  45.344  52.277  1.00  0.00    -0.176 NA
HETATM   20  C   UNL     1      26.898  45.771  53.455  1.00  0.00     0.061 C 
HETATM   21  C   UNL     1      26.228  46.931  54.164  1.00  0.00     0.073 C 
BRANCH  20  22
HETATM   22  C   UNL     1      28.037  45.076  54.141  1.00  0.00    -0.010 A 
HETATM   23  C   UNL     1      28.371  43.772  53.745  1.00  0.00     0.016 A 
HETATM   24  C   UNL     1      29.424  43.089  54.360  1.00  0.00     0.037 A 
HETATM   25  C   UNL     1      30.139  43.712  55.376  1.00  0.00     0.065 A 
HETATM   26  C   UNL     1      29.815  44.998  55.790  1.00  0.00     0.037 A 
HETATM   27  C   UNL     1      28.759  45.681  55.178  1.00  0.00     0.016 A 
BRANCH  25  28
HETATM   28  O   UNL     1      31.174  43.087  56.005  1.00  0.00    -0.361 OA
HETATM   29  H   UNL     1      30.862  42.754  56.862  1.00  0.00     0.217 HD
ENDBRANCH  25  28
ENDBRANCH  20  22
ENDBRANCH   2  19
TORSDOF 6
ENDMDL
MODEL 4
REMARK VINA RESULT:      -8.7      3.120     10.763
REMARK  6 active torsions:
REMARK  status: ('A' for Active; 'I' for Inactive)
REMARK    1  A    between atoms: C_2  and  C_3 
REMARK    2  A    between atoms: C_6  and  C_7 
REMARK    3  A    between atoms: C_11  and  C_12 
REMARK       I    between atoms: C_12  and  N_13 
REMARK    4  A    between atoms: N_13  and  N_14 
REMARK    5  A    between atoms: C_15  and  C_16 
REMARK    6  A    between atoms: C_19  and  O_20 
ROOT
HETATM    1  C   UNL     1      23.428  46.696  49.484  1.00  0.00     0.289 C 
HETATM    2  N   UNL     1      23.204  48.031  49.788  1.00  0.00    -0.241 N 
HETATM    3  O   UNL     1      22.653  45.987  48.847  1.00  0.00    -0.264 OA
HETATM    4  H   UNL     1      23.884  48.543  50.330  1.00  0.00     0.192 HD
ENDROOT
BRANCH   1   5
HETATM    5  C   UNL     1      24.666  46.168  50.005  1.00  0.00     0.121 A 
HETATM    6  N   UNL     1      25.774  46.037  49.216  1.00  0.00    -0.272 N 
HETATM    7  N   UNL     1      26.832  45.495  49.838  1.00  0.00    -0.174 NA
HETATM    8  H   UNL     1      25.853  46.288  48.234  1.00  0.00     0.189 HD
HETATM    9  C   UNL     1      26.420  45.298  51.100  1.00  0.00     0.089 A 
HETATM   10  C   UNL     1      25.064  45.706  51.244  1.00  0.00     0.071 A 
BRANCH   9  11
HETATM   11  C   UNL     1      27.294  44.717  52.122  1.00  0.00    -0.006 A 
HETATM   12  C   UNL     1      28.258  43.755  51.786  1.00  0.00     0.014 A 
HETATM   13  C   UNL     1      29.108  43.224  52.761  1.00  0.00     0.008 A 
HETATM   14  C   UNL     1      29.010  43.642  54.094  1.00  0.00    -0.059 A 
HETATM   15  C   UNL     1      28.046  44.597  54.434  1.00  0.00     0.008 A 
HETATM   16  C   UNL     1      27.194  45.124  53.460  1.00  0.00     0.014 A 
BRANCH  14  17
HETATM   17  C   UNL     1      29.947  43.090  55.137  1.00  0.00     0.034 C 
HETATM   18  C   UNL     1      30.702  44.197  55.859  1.00  0.00     0.010 C 
ENDBRANCH  14  17
ENDBRANCH   9  11
ENDBRANCH   1   5
BRANCH   2  19
HETATM   19  N   UNL     1      22.079  48.659  49.349  1.00  0.00    -0.176 NA
HETATM   20  C   UNL     1      22.169  49.859  48.849  1.00  0.00     0.061 C 
HETATM   21  C   UNL     1      23.466  50.641  48.774  1.00  0.00     0.073 C 
BRANCH  20  22
HETATM   22  C   UNL     1      20.918  50.499  48.324  1.00  0.00    -0.010 A 
HETATM   23  C   UNL     1      20.431  51.651  48.961  1.00  0.00     0.016 A 
HETATM   24  C   UNL     1      19.268  52.278  48.505  1.00  0.00     0.037 A 
HETATM   25  C   UNL     1      18.590  51.746  47.414  1.00  0.00     0.065 A 
HETATM   26  C   UNL     1      19.051  50.600  46.779  1.00  0.00     0.037 A 
HETATM   27  C   UNL     1      20.212  49.970  47.237  1.00  0.00     0.016 A 
BRANCH  25  28
HETATM   28  O   UNL     1      17.453  52.323  46.932  1.00  0.00    -0.361 OA
HETATM   29  H   UNL     1      16.712  52.081  47.512  1.00  0.00     0.217 HD
ENDBRANCH  25  28
ENDBRANCH  20  22
ENDBRANCH   2  19
TORSDOF 6
ENDMDL
MODEL 5
REMARK VINA RESULT:      -8.5      2.722     10.604
REMARK  6 active torsions:
REMARK  status: ('A' for Active; 'I' for Inactive)
REMARK    1  A    between atoms: C_2  and  C_3 
REMARK    2  A    between atoms: C_6  and  C_7 
REMARK    3  A    between atoms: C_11  and  C_12 
REMARK       I    between atoms: C_12  and  N_13 
REMARK    4  A    between atoms: N_13  and  N_14 
REMARK    5  A    between atoms: C_15  and  C_16 
REMARK    6  A    between atoms: C_19  and  O_20 
ROOT
HETATM    1  C   UNL     1      24.389  44.895  50.703  1.00  0.00     0.289 C 
HETATM    2  N   UNL     1      24.385  46.135  50.082  1.00  0.00    -0.241 N 
HETATM    3  O   UNL     1      23.406  44.166  50.808  1.00  0.00    -0.264 OA
HETATM    4  H   UNL     1      25.232  46.683  50.049  1.00  0.00     0.192 HD
ENDROOT
BRANCH   1   5
HETATM    5  C   UNL     1      25.664  44.514  51.262  1.00  0.00     0.121 A 
HETATM    6  N   UNL     1      26.558  43.762  50.552  1.00  0.00    -0.272 N 
HETATM    7  N   UNL     1      27.679  43.459  51.224  1.00  0.00    -0.174 NA
HETATM    8  H   UNL     1      26.440  43.413  49.604  1.00  0.00     0.189 HD
HETATM    9  C   UNL     1      27.538  44.069  52.411  1.00  0.00     0.089 A 
HETATM   10  C   UNL     1      26.285  44.741  52.474  1.00  0.00     0.071 A 
BRANCH   9  11
HETATM   11  C   UNL     1      28.566  43.990  53.453  1.00  0.00    -0.006 A 
HETATM   12  C   UNL     1      28.582  44.898  54.521  1.00  0.00     0.014 A 
HETATM   13  C   UNL     1      29.549  44.801  55.527  1.00  0.00     0.008 A 
HETATM   14  C   UNL     1      30.522  43.795  55.483  1.00  0.00    -0.059 A 
HETATM   15  C   UNL     1      30.513  42.891  54.415  1.00  0.00     0.008 A 
HETATM   16  C   UNL     1      29.548  42.991  53.409  1.00  0.00     0.014 A 
BRANCH  14  17
HETATM   17  C   UNL     1      31.544  43.674  56.584  1.00  0.00     0.034 C 
HETATM   18  C   UNL     1      31.120  44.431  57.833  1.00  0.00     0.010 C 
ENDBRANCH  14  17
ENDBRANCH   9  11
ENDBRANCH   1   5
BRANCH   2  19
HETATM   19  N   UNL     1      23.250  46.614  49.503  1.00  0.00    -0.176 NA
HETATM   20  C   UNL     1      23.217  47.847  49.085  1.00  0.00     0.061 C 
HETATM   21  C   UNL     1      24.365  48.823  49.256  1.00  0.00     0.073 C 
BRANCH  20  22
HETATM   22  C   UNL     1      21.970  48.325  48.401  1.00  0.00    -0.010 A 
HETATM   23  C   UNL     1      21.886  49.672  48.014  1.00  0.00     0.016 A 
HETATM   24  C   UNL     1      20.741  50.159  47.376  1.00  0.00     0.037 A 
HETATM   25  C   UNL     1      19.679  49.297  47.130  1.00  0.00     0.065 A 
HETATM   26  C   UNL     1      19.740  47.963  47.517  1.00  0.00     0.037 A 
HETATM   27  C   UNL     1      20.882  47.476  48.159  1.00  0.00     0.016 A 
BRANCH  25  28
HETATM   28  O   UNL     1      18.543  49.725  46.510  1.00  0.00    -0.361 OA
HETATM   29  H   UNL     1      17.784  49.261  46.899  1.00  0.00     0.217 HD
ENDBRANCH  25  28
ENDBRANCH  20  22
ENDBRANCH   2  19
TORSDOF 6
ENDMDL
MODEL 6
REMARK VINA RESULT:      -8.4      6.482      8.337
REMARK  6 active torsions:
REMARK  status: ('A' for Active; 'I' for Inactive)
REMARK    1  A    between atoms: C_2  and  C_3 
REMARK    2  A    between atoms: C_6  and  C_7 
REMARK    3  A    between atoms: C_11  and  C_12 
REMARK       I    between atoms: C_12  and  N_13 
REMARK    4  A    between atoms: N_13  and  N_14 
REMARK    5  A    between atoms: C_15  and  C_16 
REMARK    6  A    between atoms: C_19  and  O_20 
ROOT
HETATM    1  C   UNL     1      28.436  41.042  52.277  1.00  0.00     0.289 C 
HETATM    2  N   UNL     1      29.510  41.919  52.286  1.00  0.00    -0.241 N 
HETATM    3  O   UNL     1      27.866  40.628  53.283  1.00  0.00    -0.264 OA
HETATM    4  H   UNL     1      29.935  42.202  51.415  1.00  0.00     0.192 HD
ENDROOT
BRANCH   1   5
HETATM    5  C   UNL     1      28.032  40.610  50.960  1.00  0.00     0.121 A 
HETATM    6  N   UNL     1      26.830  39.995  50.748  1.00  0.00    -0.272 N 
HETATM    7  N   UNL     1      26.620  39.621  49.477  1.00  0.00    -0.174 NA
HETATM    8  H   UNL     1      26.121  39.791  51.448  1.00  0.00     0.189 HD
HETATM    9  C   UNL     1      27.708  40.041  48.815  1.00  0.00     0.089 A 
HETATM   10  C   UNL     1      28.620  40.666  49.712  1.00  0.00     0.071 A 
BRANCH   9  11
HETATM   11  C   UNL     1      27.872  39.828  47.374  1.00  0.00    -0.006 A 
HETATM   12  C   UNL     1      27.957  40.913  46.490  1.00  0.00     0.014 A 
HETATM   13  C   UNL     1      28.141  40.705  45.119  1.00  0.00     0.008 A 
HETATM   14  C   UNL     1      28.240  39.407  44.604  1.00  0.00    -0.059 A 
HETATM   15  C   UNL     1      28.150  38.322  45.482  1.00  0.00     0.008 A 
HETATM   16  C   UNL     1      27.963  38.531  46.852  1.00  0.00     0.014 A 
BRANCH  14  17
HETATM   17  C   UNL     1      28.468  39.186  43.131  1.00  0.00     0.034 C 
HETATM   18  C   UNL     1      29.838  39.681  42.691  1.00  0.00     0.010 C 
ENDBRANCH  14  17
ENDBRANCH   9  11
ENDBRANCH   1   5
BRANCH   2  19
HETATM   19  N   UNL     1      29.988  42.414  53.460  1.00  0.00    -0.176 NA
HETATM   20  C   UNL     1      29.461  43.494  53.962  1.00  0.00     0.061 C 
HETATM   21  C   UNL     1      28.364  44.287  53.279  1.00  0.00     0.073 C 
BRANCH  20  22
HETATM   22  C   UNL     1      29.975  43.979  55.285  1.00  0.00    -0.010 A 
HETATM   23  C   UNL     1      29.465  45.178  55.810  1.00  0.00     0.016 A 
HETATM   24  C   UNL     1      29.918  45.666  57.038  1.00  0.00     0.037 A 
HETATM   25  C   UNL     1      30.885  44.956  57.740  1.00  0.00     0.065 A 
HETATM   26  C   UNL     1      31.410  43.774  57.230  1.00  0.00     0.037 A 
HETATM   27  C   UNL     1      30.961  43.287  55.999  1.00  0.00     0.016 A 
BRANCH  25  28
HETATM   28  O   UNL     1      31.356  45.391  58.942  1.00  0.00    -0.361 OA
HETATM   29  H   UNL     1      30.934  46.240  59.152  1.00  0.00     0.217 HD
ENDBRANCH  25  28
ENDBRANCH  20  22
ENDBRANCH   2  19
TORSDOF 6
ENDMDL
MODEL 7
REMARK VINA RESULT:      -8.3      3.121      3.997
REMARK  6 active torsions:
REMARK  status: ('A' for Active; 'I' for Inactive)
REMARK    1  A    between atoms: C_2  and  C_3 
REMARK    2  A    between atoms: C_6  and  C_7 
REMARK    3  A    between atoms: C_11  and  C_12 
REMARK       I    between atoms: C_12  and  N_13 
REMARK    4  A    between atoms: N_13  and  N_14 
REMARK    5  A    between atoms: C_15  and  C_16 
REMARK    6  A    between atoms: C_19  and  O_20 
ROOT
HETATM    1  C   UNL     1      25.505  44.127  52.860  1.00  0.00     0.289 C 
HETATM    2  N   UNL     1      26.883  44.256  52.788  1.00  0.00    -0.241 N 
HETATM    3  O   UNL     1      24.859  44.124  53.905  1.00  0.00    -0.264 OA
HETATM    4  H   UNL     1      27.344  44.234  51.890  1.00  0.00     0.192 HD
ENDROOT
BRANCH   1   5
HETATM    5  C   UNL     1      24.856  43.966  51.581  1.00  0.00     0.121 A 
HETATM    6  N   UNL     1      24.629  42.728  51.047  1.00  0.00    -0.272 N 
HETATM    7  N   UNL     1      24.052  42.748  49.836  1.00  0.00    -0.174 NA
HETATM    8  H   UNL     1      24.868  41.833  51.467  1.00  0.00     0.189 HD
HETATM    9  C   UNL     1      23.853  44.049  49.576  1.00  0.00     0.089 A 
HETATM   10  C   UNL     1      24.346  44.846  50.648  1.00  0.00     0.071 A 
BRANCH   9  11
HETATM   11  C   UNL     1      23.229  44.507  48.332  1.00  0.00    -0.006 A 
HETATM   12  C   UNL     1      23.421  43.811  47.130  1.00  0.00     0.014 A 
HETATM   13  C   UNL     1      22.802  44.237  45.950  1.00  0.00     0.008 A 
HETATM   14  C   UNL     1      21.980  45.371  45.948  1.00  0.00    -0.059 A 
HETATM   15  C   UNL     1      21.790  46.071  47.144  1.00  0.00     0.008 A 
HETATM   16  C   UNL     1      22.413  45.647  48.322  1.00  0.00     0.014 A 
BRANCH  14  17
HETATM   17  C   UNL     1      21.290  45.810  44.683  1.00  0.00     0.034 C 
HETATM   18  C   UNL     1      21.978  45.257  43.443  1.00  0.00     0.010 C 
ENDBRANCH  14  17
ENDBRANCH   9  11
ENDBRANCH   1   5
BRANCH   2  19
HETATM   19  N   UNL     1      27.622  44.425  53.920  1.00  0.00    -0.176 NA
HETATM   20  C   UNL     1      28.830  43.943  53.973  1.00  0.00     0.061 C 
HETATM   21  C   UNL     1      29.463  43.138  52.855  1.00  0.00     0.073 C 
BRANCH  20  22
HETATM   22  C   UNL     1      29.635  44.196  55.214  1.00  0.00    -0.010 A 
HETATM   23  C   UNL     1      30.619  43.265  55.582  1.00  0.00     0.016 A 
HETATM   24  C   UNL     1      31.390  43.462  56.731  1.00  0.00     0.037 A 
HETATM   25  C   UNL     1      31.171  44.590  57.514  1.00  0.00     0.065 A 
HETATM   26  C   UNL     1      30.193  45.515  57.171  1.00  0.00     0.037 A 
HETATM   27  C   UNL     1      29.418  45.317  56.024  1.00  0.00     0.016 A 
BRANCH  25  28
HETATM   28  O   UNL     1      31.898  44.826  58.642  1.00  0.00    -0.361 OA
HETATM   29  H   UNL     1      31.901  45.781  58.815  1.00  0.00     0.217 HD
ENDBRANCH  25  28
ENDBRANCH  20  22
ENDBRANCH   2  19
TORSDOF 6
ENDMDL
MODEL 8
REMARK VINA RESULT:      -8.3      1.539      2.299
REMARK  6 active torsions:
REMARK  status: ('A' for Active; 'I' for Inactive)
REMARK    1  A    between atoms: C_2  and  C_3 
REMARK    2  A    between atoms: C_6  and  C_7 
REMARK    3  A    between atoms: C_11  and  C_12 
REMARK       I    between atoms: C_12  and  N_13 
REMARK    4  A    between atoms: N_13  and  N_14 
REMARK    5  A    between atoms: C_15  and  C_16 
REMARK    6  A    between atoms: C_19  and  O_20 
ROOT
HETATM    1  C   UNL     1      26.542  45.444  51.378  1.00  0.00     0.289 C 
HETATM    2  N   UNL     1      26.722  45.776  52.712  1.00  0.00    -0.241 N 
HETATM    3  O   UNL     1      27.219  44.621  50.767  1.00  0.00    -0.264 OA
HETATM    4  H   UNL     1      26.134  46.476  53.140  1.00  0.00     0.192 HD
ENDROOT
BRANCH   1   5
HETATM    5  C   UNL     1      25.484  46.175  50.722  1.00  0.00     0.121 A 
HETATM    6  N   UNL     1      25.293  47.510  50.947  1.00  0.00    -0.272 N 
HETATM    7  N   UNL     1      24.245  48.034  50.293  1.00  0.00    -0.174 NA
HETATM    8  H   UNL     1      25.845  48.107  51.557  1.00  0.00     0.189 HD
HETATM    9  C   UNL     1      23.748  47.015  49.576  1.00  0.00     0.089 A 
HETATM   10  C   UNL     1      24.498  45.830  49.819  1.00  0.00     0.071 A 
BRANCH   9  11
HETATM   11  C   UNL     1      22.581  47.174  48.704  1.00  0.00    -0.006 A 
HETATM   12  C   UNL     1      21.734  48.285  48.827  1.00  0.00     0.014 A 
HETATM   13  C   UNL     1      20.637  48.446  47.975  1.00  0.00     0.008 A 
HETATM   14  C   UNL     1      20.362  47.496  46.984  1.00  0.00    -0.059 A 
HETATM   15  C   UNL     1      21.201  46.383  46.861  1.00  0.00     0.008 A 
HETATM   16  C   UNL     1      22.295  46.222  47.716  1.00  0.00     0.014 A 
BRANCH  14  17
HETATM   17  C   UNL     1      19.197  47.687  46.047  1.00  0.00     0.034 C 
HETATM   18  C   UNL     1      18.527  49.038  46.247  1.00  0.00     0.010 C 
ENDBRANCH  14  17
ENDBRANCH   9  11
ENDBRANCH   1   5
BRANCH   2  19
HETATM   19  N   UNL     1      27.680  45.156  53.454  1.00  0.00    -0.176 NA
HETATM   20  C   UNL     1      28.233  45.793  54.447  1.00  0.00     0.061 C 
HETATM   21  C   UNL     1      27.915  47.232  54.802  1.00  0.00     0.073 C 
BRANCH  20  22
HETATM   22  C   UNL     1      29.244  45.060  55.278  1.00  0.00    -0.010 A 
HETATM   23  C   UNL     1      29.706  43.810  54.835  1.00  0.00     0.016 A 
HETATM   24  C   UNL     1      30.646  43.094  55.581  1.00  0.00     0.037 A 
HETATM   25  C   UNL     1      31.119  43.627  56.774  1.00  0.00     0.065 A 
HETATM   26  C   UNL     1      30.664  44.857  57.235  1.00  0.00     0.037 A 
HETATM   27  C   UNL     1      29.721  45.572  56.492  1.00  0.00     0.016 A 
BRANCH  25  28
HETATM   28  O   UNL     1      32.037  42.966  57.535  1.00  0.00    -0.361 OA
HETATM   29  H   UNL     1      31.958  42.014  57.360  1.00  0.00     0.217 HD
ENDBRANCH  25  28
ENDBRANCH  20  22
ENDBRANCH   2  19
TORSDOF 6
ENDMDL
MODEL 9
REMARK VINA RESULT:      -8.1      4.239      5.427
REMARK  6 active torsions:
REMARK  status: ('A' for Active; 'I' for Inactive)
REMARK    1  A    between atoms: C_2  and  C_3 
REMARK    2  A    between atoms: C_6  and  C_7 
REMARK    3  A    between atoms: C_11  and  C_12 
REMARK       I    between atoms: C_12  and  N_13 
REMARK    4  A    between atoms: N_13  and  N_14 
REMARK    5  A    between atoms: C_15  and  C_16 
REMARK    6  A    between atoms: C_19  and  O_20 
ROOT
HETATM    1  C   UNL     1      25.726  44.137  52.591  1.00  0.00     0.289 C 
HETATM    2  N   UNL     1      27.105  44.282  52.592  1.00  0.00    -0.241 N 
HETATM    3  O   UNL     1      25.025  44.135  53.599  1.00  0.00    -0.264 OA
HETATM    4  H   UNL     1      27.614  44.258  51.720  1.00  0.00     0.192 HD
ENDROOT
BRANCH   1   5
HETATM    5  C   UNL     1      25.149  43.956  51.280  1.00  0.00     0.121 A 
HETATM    6  N   UNL     1      25.400  44.833  50.262  1.00  0.00    -0.272 N 
HETATM    7  N   UNL     1      24.759  44.548  49.119  1.00  0.00    -0.174 NA
HETATM    8  H   UNL     1      25.993  45.658  50.305  1.00  0.00     0.189 HD
HETATM    9  C   UNL     1      24.090  43.415  49.379  1.00  0.00     0.089 A 
HETATM   10  C   UNL     1      24.307  43.012  50.726  1.00  0.00     0.071 A 
BRANCH   9  11
HETATM   11  C   UNL     1      23.254  42.757  48.370  1.00  0.00    -0.006 A 
HETATM   12  C   UNL     1      23.214  41.359  48.267  1.00  0.00     0.014 A 
HETATM   13  C   UNL     1      22.394  40.735  47.321  1.00  0.00     0.008 A 
HETATM   14  C   UNL     1      21.600  41.498  46.455  1.00  0.00    -0.059 A 
HETATM   15  C   UNL     1      21.642  42.893  46.551  1.00  0.00     0.008 A 
HETATM   16  C   UNL     1      22.464  43.515  47.495  1.00  0.00     0.014 A 
BRANCH  14  17
HETATM   17  C   UNL     1      20.695  40.823  45.457  1.00  0.00     0.034 C 
HETATM   18  C   UNL     1      21.415  40.534  44.148  1.00  0.00     0.010 C 
ENDBRANCH  14  17
ENDBRANCH   9  11
ENDBRANCH   1   5
BRANCH   2  19
HETATM   19  N   UNL     1      27.779  44.470  53.760  1.00  0.00    -0.176 NA
HETATM   20  C   UNL     1      28.950  43.922  53.919  1.00  0.00     0.061 C 
HETATM   21  C   UNL     1      29.602  43.021  52.888  1.00  0.00     0.073 C 
BRANCH  20  22
HETATM   22  C   UNL     1      29.689  44.197  55.195  1.00  0.00    -0.010 A 
HETATM   23  C   UNL     1      30.643  43.267  55.637  1.00  0.00     0.016 A 
HETATM   24  C   UNL     1      31.352  43.483  56.822  1.00  0.00     0.037 A 
HETATM   25  C   UNL     1      31.101  44.630  57.567  1.00  0.00     0.065 A 
HETATM   26  C   UNL     1      30.151  45.555  57.151  1.00  0.00     0.037 A 
HETATM   27  C   UNL     1      29.438  45.338  55.968  1.00  0.00     0.016 A 
BRANCH  25  28
HETATM   28  O   UNL     1      31.768  44.885  58.727  1.00  0.00    -0.361 OA
HETATM   29  H   UNL     1      32.547  44.307  58.771  1.00  0.00     0.217 HD
ENDBRANCH  25  28
ENDBRANCH  20  22
ENDBRANCH   2  19
TORSDOF 6
ENDMDL
MODEL 10
REMARK VINA RESULT:      -7.9      6.569      7.145
REMARK  6 active torsions:
REMARK  status: ('A' for Active; 'I' for Inactive)
REMARK    1  A    between atoms: C_2  and  C_3 
REMARK    2  A    between atoms: C_6  and  C_7 
REMARK    3  A    between atoms: C_11  and  C_12 
REMARK       I    between atoms: C_12  and  N_13 
REMARK    4  A    between atoms: N_13  and  N_14 
REMARK    5  A    between atoms: C_15  and  C_16 
REMARK    6  A    between atoms: C_19  and  O_20 
ROOT
HETATM    1  C   UNL     1      27.598  41.601  52.452  1.00  0.00     0.289 C 
HETATM    2  N   UNL     1      27.908  42.947  52.566  1.00  0.00    -0.241 N 
HETATM    3  O   UNL     1      27.684  40.786  53.367  1.00  0.00    -0.264 OA
HETATM    4  H   UNL     1      27.825  43.552  51.762  1.00  0.00     0.192 HD
ENDROOT
BRANCH   1   5
HETATM    5  C   UNL     1      27.176  41.199  51.131  1.00  0.00     0.121 A 
HETATM    6  N   UNL     1      26.246  40.213  50.948  1.00  0.00    -0.272 N 
HETATM    7  N   UNL     1      25.991  39.929  49.662  1.00  0.00    -0.174 NA
HETATM    8  H   UNL     1      25.768  39.688  51.676  1.00  0.00     0.189 HD
HETATM    9  C   UNL     1      26.750  40.789  48.967  1.00  0.00     0.089 A 
HETATM   10  C   UNL     1      27.511  41.602  49.854  1.00  0.00     0.071 A 
BRANCH   9  11
HETATM   11  C   UNL     1      26.758  40.811  47.502  1.00  0.00    -0.006 A 
HETATM   12  C   UNL     1      25.560  40.802  46.774  1.00  0.00     0.014 A 
HETATM   13  C   UNL     1      25.573  40.851  45.376  1.00  0.00     0.008 A 
HETATM   14  C   UNL     1      26.785  40.905  44.678  1.00  0.00    -0.059 A 
HETATM   15  C   UNL     1      27.983  40.908  45.400  1.00  0.00     0.008 A 
HETATM   16  C   UNL     1      27.969  40.856  46.797  1.00  0.00     0.014 A 
BRANCH  14  17
HETATM   17  C   UNL     1      26.796  40.988  43.173  1.00  0.00     0.034 C 
HETATM   18  C   UNL     1      27.088  42.400  42.687  1.00  0.00     0.010 C 
ENDBRANCH  14  17
ENDBRANCH   9  11
ENDBRANCH   1   5
BRANCH   2  19
HETATM   19  N   UNL     1      28.311  43.464  53.760  1.00  0.00    -0.176 NA
HETATM   20  C   UNL     1      29.572  43.424  54.082  1.00  0.00     0.061 C 
HETATM   21  C   UNL     1      30.638  42.774  53.221  1.00  0.00     0.073 C 
BRANCH  20  22
HETATM   22  C   UNL     1      29.988  44.054  55.378  1.00  0.00    -0.010 A 
HETATM   23  C   UNL     1      29.381  45.256  55.772  1.00  0.00     0.016 A 
HETATM   24  C   UNL     1      29.741  45.876  56.971  1.00  0.00     0.037 A 
HETATM   25  C   UNL     1      30.715  45.293  57.774  1.00  0.00     0.065 A 
HETATM   26  C   UNL     1      31.336  44.110  57.395  1.00  0.00     0.037 A 
HETATM   27  C   UNL     1      30.979  43.491  56.193  1.00  0.00     0.016 A 
BRANCH  25  28
HETATM   28  O   UNL     1      31.098  45.860  58.953  1.00  0.00    -0.361 OA
HETATM   29  H   UNL     1      31.094  46.825  58.849  1.00  0.00     0.217 HD
ENDBRANCH  25  28
ENDBRANCH  20  22
ENDBRANCH   2  19
TORSDOF 6
ENDMDL
