MODEL 1
REMARK VINA RESULT:      -8.7      0.000      0.000
REMARK  6 active torsions:
REMARK  status: ('A' for Active; 'I' for Inactive)
REMARK    1  A    between atoms: C_8  and  N_9 
REMARK       I    between atoms: N_9  and  C_10 
REMARK    2  A    between atoms: C_10  and  C_11 
REMARK    3  A    between atoms: C_11  and  N_12 
REMARK    4  A    between atoms: N_12  and  C_13 
REMARK    5  A    between atoms: C_13  and  C_14 
REMARK    6  A    between atoms: C_15  and  C_16 
ROOT
HETATM    1  N   UNL     1      27.100  45.075  55.091  1.00  0.00     0.100 N 
HETATM    2  H   UNL     1      27.197  44.093  54.821  1.00  0.00     0.317 HD
ENDROOT
BRANCH   1   3
HETATM    3  C   UNL     1      26.032  45.667  54.249  1.00  0.00     0.372 C 
BRANCH   3   4
HETATM    4  C   UNL     1      25.668  44.726  53.091  1.00  0.00     0.250 C 
HETATM    5  N   UNL     1      26.639  44.697  52.114  1.00  0.00    -0.322 N 
HETATM    6  H   UNL     1      27.464  45.256  52.318  1.00  0.00     0.169 HD
HETATM    7  O   UNL     1      24.623  44.084  53.117  1.00  0.00    -0.271 OA
BRANCH   5   8
HETATM    8  C   UNL     1      26.611  44.027  50.903  1.00  0.00     0.085 A 
HETATM    9  C   UNL     1      25.950  44.547  49.806  1.00  0.00     0.052 A 
HETATM   10  C   UNL     1      25.183  45.798  49.602  1.00  0.00     0.072 C 
HETATM   11  N   UNL     1      26.114  43.635  48.804  1.00  0.00    -0.280 N 
HETATM   12  H   UNL     1      25.766  43.680  47.852  1.00  0.00     0.189 HD
HETATM   13  N   UNL     1      26.820  42.560  49.162  1.00  0.00    -0.177 NA
HETATM   14  C   UNL     1      27.138  42.782  50.447  1.00  0.00     0.079 A 
HETATM   15  C   UNL     1      27.932  41.748  51.155  1.00  0.00     0.075 C 
ENDBRANCH   5   8
ENDBRANCH   3   4
ENDBRANCH   1   3
BRANCH   1  16
HETATM   16  C   UNL     1      28.416  45.718  54.917  1.00  0.00     0.250 C 
HETATM   17  C   UNL     1      28.298  47.251  54.982  1.00  0.00     0.048 C 
BRANCH  16  18
HETATM   18  C   UNL     1      29.501  45.086  55.789  1.00  0.00    -0.011 A 
HETATM   19  C   UNL     1      30.157  43.889  55.394  1.00  0.00     0.056 A 
HETATM   20  C   UNL     1      31.139  43.333  56.242  1.00  0.00     0.017 A 
HETATM   21  C   UNL     1      31.475  43.933  57.453  1.00  0.00     0.001 A 
HETATM   22  C   UNL     1      30.829  45.097  57.846  1.00  0.00     0.001 A 
HETATM   23  C   UNL     1      29.853  45.664  57.026  1.00  0.00     0.010 A 
BRANCH  19  24
HETATM   24  C   UNL     1      29.828  43.159  54.105  1.00  0.00     0.418 C 
HETATM   25  F   UNL     1      29.473  43.988  53.083  1.00  0.00    -0.166 F 
HETATM   26  F   UNL     1      30.885  42.441  53.618  1.00  0.00    -0.166 F 
HETATM   27  F   UNL     1      28.816  42.254  54.234  1.00  0.00    -0.166 F 
ENDBRANCH  19  24
ENDBRANCH  16  18
ENDBRANCH   1  16
TORSDOF 6
ENDMDL
MODEL 2
REMARK VINA RESULT:      -8.5      3.205      4.732
REMARK  6 active torsions:
REMARK  status: ('A' for Active; 'I' for Inactive)
REMARK    1  A    between atoms: C_8  and  N_9 
REMARK       I    between atoms: N_9  and  C_10 
REMARK    2  A    between atoms: C_10  and  C_11 
REMARK    3  A    between atoms: C_11  and  N_12 
REMARK    4  A    between atoms: N_12  and  C_13 
REMARK    5  A    between atoms: C_13  and  C_14 
REMARK    6  A    between atoms: C_15  and  C_16 
ROOT
HETATM    1  N   UNL     1      26.515  45.742  52.227  1.00  0.00     0.100 N 
HETATM    2  H   UNL     1      26.758  46.734  52.191  1.00  0.00     0.317 HD
ENDROOT
BRANCH   1   3
HETATM    3  C   UNL     1      25.112  45.607  51.766  1.00  0.00     0.372 C 
BRANCH   3   4
HETATM    4  C   UNL     1      24.923  46.272  50.395  1.00  0.00     0.250 C 
HETATM    5  N   UNL     1      25.318  47.593  50.393  1.00  0.00    -0.322 N 
HETATM    6  H   UNL     1      25.714  47.918  51.272  1.00  0.00     0.169 HD
HETATM    7  O   UNL     1      24.490  45.627  49.446  1.00  0.00    -0.271 OA
BRANCH   5   8
HETATM    8  C   UNL     1      25.217  48.511  49.364  1.00  0.00     0.085 A 
HETATM    9  C   UNL     1      26.336  49.126  48.833  1.00  0.00     0.052 A 
HETATM   10  C   UNL     1      27.780  49.012  49.144  1.00  0.00     0.072 C 
HETATM   11  N   UNL     1      25.877  49.966  47.860  1.00  0.00    -0.280 N 
HETATM   12  H   UNL     1      26.413  50.579  47.257  1.00  0.00     0.189 HD
HETATM   13  N   UNL     1      24.549  49.954  47.720  1.00  0.00    -0.177 NA
HETATM   14  C   UNL     1      24.124  49.066  48.632  1.00  0.00     0.079 A 
HETATM   15  C   UNL     1      22.665  48.822  48.739  1.00  0.00     0.075 C 
ENDBRANCH   5   8
ENDBRANCH   3   4
ENDBRANCH   1   3
BRANCH   1  16
HETATM   16  C   UNL     1      26.732  45.277  53.610  1.00  0.00     0.250 C 
HETATM   17  C   UNL     1      25.436  44.713  54.216  1.00  0.00     0.048 C 
BRANCH  16  18
HETATM   18  C   UNL     1      27.979  44.404  53.750  1.00  0.00    -0.011 A 
HETATM   19  C   UNL     1      29.003  44.729  54.681  1.00  0.00     0.056 A 
HETATM   20  C   UNL     1      30.145  43.903  54.761  1.00  0.00     0.017 A 
HETATM   21  C   UNL     1      30.287  42.781  53.948  1.00  0.00     0.001 A 
HETATM   22  C   UNL     1      29.293  42.468  53.031  1.00  0.00     0.001 A 
HETATM   23  C   UNL     1      28.157  43.270  52.932  1.00  0.00     0.010 A 
BRANCH  19  24
HETATM   24  C   UNL     1      28.938  45.949  55.582  1.00  0.00     0.418 C 
HETATM   25  F   UNL     1      28.734  47.115  54.907  1.00  0.00    -0.166 F 
HETATM   26  F   UNL     1      27.913  45.887  56.485  1.00  0.00    -0.166 F 
HETATM   27  F   UNL     1      30.060  46.131  56.334  1.00  0.00    -0.166 F 
ENDBRANCH  19  24
ENDBRANCH  16  18
ENDBRANCH   1  16
TORSDOF 6
ENDMDL
MODEL 3
REMARK VINA RESULT:      -8.4      3.134      4.499
REMARK  6 active torsions:
REMARK  status: ('A' for Active; 'I' for Inactive)
REMARK    1  A    between atoms: C_8  and  N_9 
REMARK       I    between atoms: N_9  and  C_10 
REMARK    2  A    between atoms: C_10  and  C_11 
REMARK    3  A    between atoms: C_11  and  N_12 
REMARK    4  A    between atoms: N_12  and  C_13 
REMARK    5  A    between atoms: C_13  and  C_14 
REMARK    6  A    between atoms: C_15  and  C_16 
ROOT
HETATM    1  N   UNL     1      26.294  44.725  52.014  1.00  0.00     0.100 N 
HETATM    2  H   UNL     1      26.979  45.266  51.481  1.00  0.00     0.317 HD
ENDROOT
BRANCH   1   3
HETATM    3  C   UNL     1      24.964  45.339  51.787  1.00  0.00     0.372 C 
BRANCH   3   4
HETATM    4  C   UNL     1      25.106  46.820  51.403  1.00  0.00     0.250 C 
HETATM    5  N   UNL     1      24.996  47.022  50.044  1.00  0.00    -0.322 N 
HETATM    6  H   UNL     1      24.792  46.183  49.505  1.00  0.00     0.169 HD
HETATM    7  O   UNL     1      25.270  47.673  52.268  1.00  0.00    -0.271 OA
BRANCH   5   8
HETATM    8  C   UNL     1      25.149  48.205  49.344  1.00  0.00     0.085 A 
HETATM    9  C   UNL     1      24.059  48.904  48.860  1.00  0.00     0.052 A 
HETATM   10  C   UNL     1      22.600  48.653  48.931  1.00  0.00     0.072 C 
HETATM   11  N   UNL     1      24.568  49.997  48.220  1.00  0.00    -0.280 N 
HETATM   12  H   UNL     1      24.063  50.736  47.744  1.00  0.00     0.189 HD
HETATM   13  N   UNL     1      25.902  50.062  48.241  1.00  0.00    -0.177 NA
HETATM   14  C   UNL     1      26.279  48.972  48.928  1.00  0.00     0.079 A 
HETATM   15  C   UNL     1      27.731  48.743  49.126  1.00  0.00     0.075 C 
ENDBRANCH   5   8
ENDBRANCH   3   4
ENDBRANCH   1   3
BRANCH   1  16
HETATM   16  C   UNL     1      26.719  44.734  53.426  1.00  0.00     0.250 C 
HETATM   17  C   UNL     1      25.561  44.335  54.357  1.00  0.00     0.048 C 
BRANCH  16  18
HETATM   18  C   UNL     1      28.045  44.008  53.649  1.00  0.00    -0.011 A 
HETATM   19  C   UNL     1      29.007  44.501  54.572  1.00  0.00     0.056 A 
HETATM   20  C   UNL     1      30.226  43.806  54.729  1.00  0.00     0.017 A 
HETATM   21  C   UNL     1      30.502  42.653  54.000  1.00  0.00     0.001 A 
HETATM   22  C   UNL     1      29.568  42.175  53.090  1.00  0.00     0.001 A 
HETATM   23  C   UNL     1      28.358  42.846  52.916  1.00  0.00     0.010 A 
BRANCH  19  24
HETATM   24  C   UNL     1      28.795  45.766  55.384  1.00  0.00     0.418 C 
HETATM   25  F   UNL     1      27.871  45.629  56.376  1.00  0.00    -0.166 F 
HETATM   26  F   UNL     1      29.930  46.183  56.022  1.00  0.00    -0.166 F 
HETATM   27  F   UNL     1      28.398  46.833  54.634  1.00  0.00    -0.166 F 
ENDBRANCH  19  24
ENDBRANCH  16  18
ENDBRANCH   1  16
TORSDOF 6
ENDMDL
MODEL 4
REMARK VINA RESULT:      -8.1      2.844      4.271
REMARK  6 active torsions:
REMARK  status: ('A' for Active; 'I' for Inactive)
REMARK    1  A    between atoms: C_8  and  N_9 
REMARK       I    between atoms: N_9  and  C_10 
REMARK    2  A    between atoms: C_10  and  C_11 
REMARK    3  A    between atoms: C_11  and  N_12 
REMARK    4  A    between atoms: N_12  and  C_13 
REMARK    5  A    between atoms: C_13  and  C_14 
REMARK    6  A    between atoms: C_15  and  C_16 
ROOT
HETATM    1  N   UNL     1      25.706  44.690  52.737  1.00  0.00     0.100 N 
HETATM    2  H   UNL     1      25.086  43.945  53.064  1.00  0.00     0.317 HD
ENDROOT
BRANCH   1   3
HETATM    3  C   UNL     1      25.327  45.008  51.340  1.00  0.00     0.372 C 
BRANCH   3   4
HETATM    4  C   UNL     1      25.168  46.524  51.151  1.00  0.00     0.250 C 
HETATM    5  N   UNL     1      25.067  46.880  49.823  1.00  0.00    -0.322 N 
HETATM    6  H   UNL     1      25.065  46.097  49.173  1.00  0.00     0.169 HD
HETATM    7  O   UNL     1      25.116  47.269  52.123  1.00  0.00    -0.271 OA
BRANCH   5   8
HETATM    8  C   UNL     1      24.993  48.152  49.285  1.00  0.00     0.085 A 
HETATM    9  C   UNL     1      26.131  48.870  48.968  1.00  0.00     0.052 A 
HETATM   10  C   UNL     1      27.575  48.554  49.081  1.00  0.00     0.072 C 
HETATM   11  N   UNL     1      25.696  50.067  48.479  1.00  0.00    -0.280 N 
HETATM   12  H   UNL     1      26.251  50.847  48.146  1.00  0.00     0.189 HD
HETATM   13  N   UNL     1      24.366  50.191  48.458  1.00  0.00    -0.177 NA
HETATM   14  C   UNL     1      23.915  49.025  48.947  1.00  0.00     0.079 A 
HETATM   15  C   UNL     1      22.447  48.842  49.063  1.00  0.00     0.075 C 
ENDBRANCH   5   8
ENDBRANCH   3   4
ENDBRANCH   1   3
BRANCH   1  16
HETATM   16  C   UNL     1      27.094  44.212  52.880  1.00  0.00     0.250 C 
HETATM   17  C   UNL     1      27.798  44.134  51.515  1.00  0.00     0.048 C 
BRANCH  16  18
HETATM   18  C   UNL     1      27.855  44.934  53.993  1.00  0.00    -0.011 A 
HETATM   19  C   UNL     1      28.934  44.306  54.672  1.00  0.00     0.056 A 
HETATM   20  C   UNL     1      29.594  45.006  55.705  1.00  0.00     0.017 A 
HETATM   21  C   UNL     1      29.209  46.294  56.070  1.00  0.00     0.001 A 
HETATM   22  C   UNL     1      28.150  46.905  55.414  1.00  0.00     0.001 A 
HETATM   23  C   UNL     1      27.481  46.233  54.391  1.00  0.00     0.010 A 
BRANCH  19  24
HETATM   24  C   UNL     1      29.396  42.896  54.355  1.00  0.00     0.418 C 
HETATM   25  F   UNL     1      30.161  42.812  53.230  1.00  0.00    -0.166 F 
HETATM   26  F   UNL     1      30.173  42.358  55.343  1.00  0.00    -0.166 F 
HETATM   27  F   UNL     1      28.371  42.012  54.190  1.00  0.00    -0.166 F 
ENDBRANCH  19  24
ENDBRANCH  16  18
ENDBRANCH   1  16
TORSDOF 6
ENDMDL
MODEL 5
REMARK VINA RESULT:      -8.1      2.421      3.807
REMARK  6 active torsions:
REMARK  status: ('A' for Active; 'I' for Inactive)
REMARK    1  A    between atoms: C_8  and  N_9 
REMARK       I    between atoms: N_9  and  C_10 
REMARK    2  A    between atoms: C_10  and  C_11 
REMARK    3  A    between atoms: C_11  and  N_12 
REMARK    4  A    between atoms: N_12  and  C_13 
REMARK    5  A    between atoms: C_13  and  C_14 
REMARK    6  A    between atoms: C_15  and  C_16 
ROOT
HETATM    1  N   UNL     1      28.285  43.113  52.151  1.00  0.00     0.100 N 
HETATM    2  H   UNL     1      28.126  44.122  52.096  1.00  0.00     0.317 HD
ENDROOT
BRANCH   1   3
HETATM    3  C   UNL     1      27.318  42.457  51.238  1.00  0.00     0.372 C 
BRANCH   3   4
HETATM    4  C   UNL     1      26.653  43.491  50.316  1.00  0.00     0.250 C 
HETATM    5  N   UNL     1      25.631  44.172  50.942  1.00  0.00    -0.322 N 
HETATM    6  H   UNL     1      25.497  43.930  51.921  1.00  0.00     0.169 HD
HETATM    7  O   UNL     1      27.060  43.655  49.171  1.00  0.00    -0.271 OA
BRANCH   5   8
HETATM    8  C   UNL     1      24.772  45.109  50.396  1.00  0.00     0.085 A 
HETATM    9  C   UNL     1      23.532  44.750  49.903  1.00  0.00     0.052 A 
HETATM   10  C   UNL     1      22.829  43.449  49.818  1.00  0.00     0.072 C 
HETATM   11  N   UNL     1      22.966  45.902  49.438  1.00  0.00    -0.280 N 
HETATM   12  H   UNL     1      22.056  46.024  49.007  1.00  0.00     0.189 HD
HETATM   13  N   UNL     1      23.740  46.980  49.581  1.00  0.00    -0.177 NA
HETATM   14  C   UNL     1      24.854  46.516  50.170  1.00  0.00     0.079 A 
HETATM   15  C   UNL     1      25.939  47.483  50.465  1.00  0.00     0.075 C 
ENDBRANCH   5   8
ENDBRANCH   3   4
ENDBRANCH   1   3
BRANCH   1  16
HETATM   16  C   UNL     1      28.133  42.713  53.562  1.00  0.00     0.250 C 
HETATM   17  C   UNL     1      28.293  41.192  53.728  1.00  0.00     0.048 C 
BRANCH  16  18
HETATM   18  C   UNL     1      28.951  43.586  54.514  1.00  0.00    -0.011 A 
HETATM   19  C   UNL     1      28.469  44.851  54.949  1.00  0.00     0.056 A 
HETATM   20  C   UNL     1      29.268  45.629  55.813  1.00  0.00     0.017 A 
HETATM   21  C   UNL     1      30.515  45.184  56.245  1.00  0.00     0.001 A 
HETATM   22  C   UNL     1      30.992  43.954  55.815  1.00  0.00     0.001 A 
HETATM   23  C   UNL     1      30.221  43.167  54.959  1.00  0.00     0.010 A 
BRANCH  19  24
HETATM   24  C   UNL     1      27.135  45.420  54.500  1.00  0.00     0.418 C 
HETATM   25  F   UNL     1      26.777  46.556  55.162  1.00  0.00    -0.166 F 
HETATM   26  F   UNL     1      27.126  45.771  53.179  1.00  0.00    -0.166 F 
HETATM   27  F   UNL     1      26.096  44.549  54.642  1.00  0.00    -0.166 F 
ENDBRANCH  19  24
ENDBRANCH  16  18
ENDBRANCH   1  16
TORSDOF 6
ENDMDL
MODEL 6
REMARK VINA RESULT:      -8.0      2.178      3.749
REMARK  6 active torsions:
REMARK  status: ('A' for Active; 'I' for Inactive)
REMARK    1  A    between atoms: C_8  and  N_9 
REMARK       I    between atoms: N_9  and  C_10 
REMARK    2  A    between atoms: C_10  and  C_11 
REMARK    3  A    between atoms: C_11  and  N_12 
REMARK    4  A    between atoms: N_12  and  C_13 
REMARK    5  A    between atoms: C_13  and  C_14 
REMARK    6  A    between atoms: C_15  and  C_16 
ROOT
HETATM    1  N   UNL     1      26.355  42.913  52.794  1.00  0.00     0.100 N 
HETATM    2  H   UNL     1      26.346  41.936  53.095  1.00  0.00     0.317 HD
ENDROOT
BRANCH   1   3
HETATM    3  C   UNL     1      25.717  42.976  51.457  1.00  0.00     0.372 C 
BRANCH   3   4
HETATM    4  C   UNL     1      24.835  44.228  51.334  1.00  0.00     0.250 C 
HETATM    5  N   UNL     1      24.965  44.843  50.107  1.00  0.00    -0.322 N 
HETATM    6  H   UNL     1      25.580  44.363  49.455  1.00  0.00     0.169 HD
HETATM    7  O   UNL     1      24.100  44.564  52.257  1.00  0.00    -0.271 OA
BRANCH   5   8
HETATM    8  C   UNL     1      24.387  46.025  49.681  1.00  0.00     0.085 A 
HETATM    9  C   UNL     1      24.974  47.250  49.937  1.00  0.00     0.052 A 
HETATM   10  C   UNL     1      26.223  47.632  50.637  1.00  0.00     0.072 C 
HETATM   11  N   UNL     1      24.142  48.186  49.393  1.00  0.00    -0.280 N 
HETATM   12  H   UNL     1      24.252  49.194  49.387  1.00  0.00     0.189 HD
HETATM   13  N   UNL     1      23.056  47.670  48.812  1.00  0.00    -0.177 NA
HETATM   14  C   UNL     1      23.188  46.344  48.975  1.00  0.00     0.079 A 
HETATM   15  C   UNL     1      22.119  45.468  48.435  1.00  0.00     0.075 C 
ENDBRANCH   5   8
ENDBRANCH   3   4
ENDBRANCH   1   3
BRANCH   1  16
HETATM   16  C   UNL     1      27.756  43.373  52.804  1.00  0.00     0.250 C 
HETATM   17  C   UNL     1      28.274  43.607  51.375  1.00  0.00     0.048 C 
BRANCH  16  18
HETATM   18  C   UNL     1      27.999  44.502  53.805  1.00  0.00    -0.011 A 
HETATM   19  C   UNL     1      29.109  44.471  54.693  1.00  0.00     0.056 A 
HETATM   20  C   UNL     1      29.281  45.529  55.612  1.00  0.00     0.017 A 
HETATM   21  C   UNL     1      28.388  46.596  55.666  1.00  0.00     0.001 A 
HETATM   22  C   UNL     1      27.299  46.624  54.806  1.00  0.00     0.001 A 
HETATM   23  C   UNL     1      27.106  45.589  53.890  1.00  0.00     0.010 A 
BRANCH  19  24
HETATM   24  C   UNL     1      30.110  43.331  54.718  1.00  0.00     0.418 C 
HETATM   25  F   UNL     1      30.741  43.133  53.527  1.00  0.00    -0.166 F 
HETATM   26  F   UNL     1      31.121  43.532  55.617  1.00  0.00    -0.166 F 
HETATM   27  F   UNL     1      29.561  42.133  55.066  1.00  0.00    -0.166 F 
ENDBRANCH  19  24
ENDBRANCH  16  18
ENDBRANCH   1  16
TORSDOF 6
ENDMDL
MODEL 7
REMARK VINA RESULT:      -7.9      2.218      3.717
REMARK  6 active torsions:
REMARK  status: ('A' for Active; 'I' for Inactive)
REMARK    1  A    between atoms: C_8  and  N_9 
REMARK       I    between atoms: N_9  and  C_10 
REMARK    2  A    between atoms: C_10  and  C_11 
REMARK    3  A    between atoms: C_11  and  N_12 
REMARK    4  A    between atoms: N_12  and  C_13 
REMARK    5  A    between atoms: C_13  and  C_14 
REMARK    6  A    between atoms: C_15  and  C_16 
ROOT
HETATM    1  N   UNL     1      27.087  42.592  52.996  1.00  0.00     0.100 N 
HETATM    2  H   UNL     1      26.784  41.775  53.532  1.00  0.00     0.317 HD
ENDROOT
BRANCH   1   3
HETATM    3  C   UNL     1      27.142  42.196  51.568  1.00  0.00     0.372 C 
BRANCH   3   4
HETATM    4  C   UNL     1      26.635  43.334  50.669  1.00  0.00     0.250 C 
HETATM    5  N   UNL     1      25.516  43.951  51.185  1.00  0.00    -0.322 N 
HETATM    6  H   UNL     1      25.219  43.602  52.093  1.00  0.00     0.169 HD
HETATM    7  O   UNL     1      27.230  43.622  49.636  1.00  0.00    -0.271 OA
BRANCH   5   8
HETATM    8  C   UNL     1      24.754  44.953  50.611  1.00  0.00     0.085 A 
HETATM    9  C   UNL     1      23.542  44.680  50.004  1.00  0.00     0.052 A 
HETATM   10  C   UNL     1      22.784  43.422  49.808  1.00  0.00     0.072 C 
HETATM   11  N   UNL     1      23.076  45.877  49.543  1.00  0.00    -0.280 N 
HETATM   12  H   UNL     1      22.213  46.063  49.044  1.00  0.00     0.189 HD
HETATM   13  N   UNL     1      23.889  46.906  49.793  1.00  0.00    -0.177 NA
HETATM   14  C   UNL     1      24.925  46.361  50.450  1.00  0.00     0.079 A 
HETATM   15  C   UNL     1      26.029  47.257  50.873  1.00  0.00     0.075 C 
ENDBRANCH   5   8
ENDBRANCH   3   4
ENDBRANCH   1   3
BRANCH   1  16
HETATM   16  C   UNL     1      28.387  43.027  53.541  1.00  0.00     0.250 C 
HETATM   17  C   UNL     1      29.516  42.818  52.518  1.00  0.00     0.048 C 
BRANCH  16  18
HETATM   18  C   UNL     1      28.319  44.404  54.201  1.00  0.00    -0.011 A 
HETATM   19  C   UNL     1      29.246  44.782  55.211  1.00  0.00     0.056 A 
HETATM   20  C   UNL     1      29.131  46.057  55.804  1.00  0.00     0.017 A 
HETATM   21  C   UNL     1      28.131  46.948  55.422  1.00  0.00     0.001 A 
HETATM   22  C   UNL     1      27.219  46.577  54.443  1.00  0.00     0.001 A 
HETATM   23  C   UNL     1      27.311  45.321  53.843  1.00  0.00     0.010 A 
BRANCH  19  24
HETATM   24  C   UNL     1      30.345  43.859  55.704  1.00  0.00     0.418 C 
HETATM   25  F   UNL     1      29.960  42.555  55.802  1.00  0.00    -0.166 F 
HETATM   26  F   UNL     1      31.432  43.839  54.875  1.00  0.00    -0.166 F 
HETATM   27  F   UNL     1      30.839  44.206  56.927  1.00  0.00    -0.166 F 
ENDBRANCH  19  24
ENDBRANCH  16  18
ENDBRANCH   1  16
TORSDOF 6
ENDMDL
MODEL 8
REMARK VINA RESULT:      -7.9      2.544      3.735
REMARK  6 active torsions:
REMARK  status: ('A' for Active; 'I' for Inactive)
REMARK    1  A    between atoms: C_8  and  N_9 
REMARK       I    between atoms: N_9  and  C_10 
REMARK    2  A    between atoms: C_10  and  C_11 
REMARK    3  A    between atoms: C_11  and  N_12 
REMARK    4  A    between atoms: N_12  and  C_13 
REMARK    5  A    between atoms: C_13  and  C_14 
REMARK    6  A    between atoms: C_15  and  C_16 
ROOT
HETATM    1  N   UNL     1      28.693  42.789  51.952  1.00  0.00     0.100 N 
HETATM    2  H   UNL     1      28.573  43.778  51.723  1.00  0.00     0.317 HD
ENDROOT
BRANCH   1   3
HETATM    3  C   UNL     1      27.935  42.001  50.951  1.00  0.00     0.372 C 
BRANCH   3   4
HETATM    4  C   UNL     1      26.860  42.868  50.277  1.00  0.00     0.250 C 
HETATM    5  N   UNL     1      25.583  42.490  50.631  1.00  0.00    -0.322 N 
HETATM    6  H   UNL     1      25.537  41.735  51.312  1.00  0.00     0.169 HD
HETATM    7  O   UNL     1      27.182  43.793  49.540  1.00  0.00    -0.271 OA
BRANCH   5   8
HETATM    8  C   UNL     1      24.384  42.993  50.159  1.00  0.00     0.085 A 
HETATM    9  C   UNL     1      23.883  44.202  50.604  1.00  0.00     0.052 A 
HETATM   10  C   UNL     1      24.394  45.198  51.575  1.00  0.00     0.072 C 
HETATM   11  N   UNL     1      22.699  44.381  49.950  1.00  0.00    -0.280 N 
HETATM   12  H   UNL     1      22.053  45.159  50.025  1.00  0.00     0.189 HD
HETATM   13  N   UNL     1      22.383  43.382  49.121  1.00  0.00    -0.177 NA
HETATM   14  C   UNL     1      23.406  42.520  49.233  1.00  0.00     0.079 A 
HETATM   15  C   UNL     1      23.356  41.275  48.428  1.00  0.00     0.075 C 
ENDBRANCH   5   8
ENDBRANCH   3   4
ENDBRANCH   1   3
BRANCH   1  16
HETATM   16  C   UNL     1      28.226  42.592  53.338  1.00  0.00     0.250 C 
HETATM   17  C   UNL     1      28.097  41.096  53.673  1.00  0.00     0.048 C 
BRANCH  16  18
HETATM   18  C   UNL     1      28.993  43.447  54.346  1.00  0.00    -0.011 A 
HETATM   19  C   UNL     1      28.487  44.701  54.783  1.00  0.00     0.056 A 
HETATM   20  C   UNL     1      29.241  45.463  55.701  1.00  0.00     0.017 A 
HETATM   21  C   UNL     1      30.466  45.012  56.184  1.00  0.00     0.001 A 
HETATM   22  C   UNL     1      30.967  43.791  55.753  1.00  0.00     0.001 A 
HETATM   23  C   UNL     1      30.241  43.021  54.844  1.00  0.00     0.010 A 
BRANCH  19  24
HETATM   24  C   UNL     1      27.175  45.277  54.282  1.00  0.00     0.418 C 
HETATM   25  F   UNL     1      26.889  46.507  54.794  1.00  0.00    -0.166 F 
HETATM   26  F   UNL     1      27.157  45.453  52.926  1.00  0.00    -0.166 F 
HETATM   27  F   UNL     1      26.096  44.488  54.551  1.00  0.00    -0.166 F 
ENDBRANCH  19  24
ENDBRANCH  16  18
ENDBRANCH   1  16
TORSDOF 6
ENDMDL
MODEL 9
REMARK VINA RESULT:      -7.8      2.969      4.401
REMARK  6 active torsions:
REMARK  status: ('A' for Active; 'I' for Inactive)
REMARK    1  A    between atoms: C_8  and  N_9 
REMARK       I    between atoms: N_9  and  C_10 
REMARK    2  A    between atoms: C_10  and  C_11 
REMARK    3  A    between atoms: C_11  and  N_12 
REMARK    4  A    between atoms: N_12  and  C_13 
REMARK    5  A    between atoms: C_13  and  C_14 
REMARK    6  A    between atoms: C_15  and  C_16 
ROOT
HETATM    1  N   UNL     1      28.549  42.825  52.071  1.00  0.00     0.100 N 
HETATM    2  H   UNL     1      28.914  43.779  52.018  1.00  0.00     0.317 HD
ENDROOT
BRANCH   1   3
HETATM    3  C   UNL     1      27.359  42.750  51.190  1.00  0.00     0.372 C 
BRANCH   3   4
HETATM    4  C   UNL     1      27.241  41.357  50.552  1.00  0.00     0.250 C 
HETATM    5  N   UNL     1      28.404  40.968  49.923  1.00  0.00    -0.322 N 
HETATM    6  H   UNL     1      29.175  41.626  50.010  1.00  0.00     0.169 HD
HETATM    7  O   UNL     1      26.204  40.712  50.657  1.00  0.00    -0.271 OA
BRANCH   5   8
HETATM    8  C   UNL     1      28.630  39.820  49.184  1.00  0.00     0.085 A 
HETATM    9  C   UNL     1      28.242  39.725  47.861  1.00  0.00     0.052 A 
HETATM   10  C   UNL     1      27.567  40.676  46.947  1.00  0.00     0.072 C 
HETATM   11  N   UNL     1      28.603  38.474  47.453  1.00  0.00    -0.280 N 
HETATM   12  H   UNL     1      28.477  38.051  46.541  1.00  0.00     0.189 HD
HETATM   13  N   UNL     1      29.189  37.743  48.406  1.00  0.00    -0.177 NA
HETATM   14  C   UNL     1      29.218  38.553  49.477  1.00  0.00     0.079 A 
HETATM   15  C   UNL     1      29.812  38.026  50.730  1.00  0.00     0.075 C 
ENDBRANCH   5   8
ENDBRANCH   3   4
ENDBRANCH   1   3
BRANCH   1  16
HETATM   16  C   UNL     1      28.258  42.535  53.487  1.00  0.00     0.250 C 
HETATM   17  C   UNL     1      28.369  41.028  53.780  1.00  0.00     0.048 C 
BRANCH  16  18
HETATM   18  C   UNL     1      29.000  43.466  54.445  1.00  0.00    -0.011 A 
HETATM   19  C   UNL     1      28.440  44.710  54.842  1.00  0.00     0.056 A 
HETATM   20  C   UNL     1      29.172  45.545  55.714  1.00  0.00     0.017 A 
HETATM   21  C   UNL     1      30.427  45.174  56.190  1.00  0.00     0.001 A 
HETATM   22  C   UNL     1      30.980  43.964  55.796  1.00  0.00     0.001 A 
HETATM   23  C   UNL     1      30.277  43.123  54.933  1.00  0.00     0.010 A 
BRANCH  19  24
HETATM   24  C   UNL     1      27.092  45.201  54.346  1.00  0.00     0.418 C 
HETATM   25  F   UNL     1      26.082  44.304  54.535  1.00  0.00    -0.166 F 
HETATM   26  F   UNL     1      26.672  46.335  54.985  1.00  0.00    -0.166 F 
HETATM   27  F   UNL     1      27.082  45.517  53.021  1.00  0.00    -0.166 F 
ENDBRANCH  19  24
ENDBRANCH  16  18
ENDBRANCH   1  16
TORSDOF 6
ENDMDL
MODEL 10
REMARK VINA RESULT:      -7.8      2.359      3.554
REMARK  6 active torsions:
REMARK  status: ('A' for Active; 'I' for Inactive)
REMARK    1  A    between atoms: C_8  and  N_9 
REMARK       I    between atoms: N_9  and  C_10 
REMARK    2  A    between atoms: C_10  and  C_11 
REMARK    3  A    between atoms: C_11  and  N_12 
REMARK    4  A    between atoms: N_12  and  C_13 
REMARK    5  A    between atoms: C_13  and  C_14 
REMARK    6  A    between atoms: C_15  and  C_16 
ROOT
HETATM    1  N   UNL     1      27.923  42.085  53.718  1.00  0.00     0.100 N 
HETATM    2  H   UNL     1      27.633  41.497  54.503  1.00  0.00     0.317 HD
ENDROOT
BRANCH   1   3
HETATM    3  C   UNL     1      28.131  41.198  52.548  1.00  0.00     0.372 C 
BRANCH   3   4
HETATM    4  C   UNL     1      27.376  41.732  51.320  1.00  0.00     0.250 C 
HETATM    5  N   UNL     1      26.150  42.268  51.650  1.00  0.00    -0.322 N 
HETATM    6  H   UNL     1      25.945  42.277  52.647  1.00  0.00     0.169 HD
HETATM    7  O   UNL     1      27.885  41.676  50.206  1.00  0.00    -0.271 OA
BRANCH   5   8
HETATM    8  C   UNL     1      25.180  42.765  50.798  1.00  0.00     0.085 A 
HETATM    9  C   UNL     1      24.582  43.991  51.022  1.00  0.00     0.052 A 
HETATM   10  C   UNL     1      24.762  45.012  52.080  1.00  0.00     0.072 C 
HETATM   11  N   UNL     1      23.680  44.157  50.011  1.00  0.00    -0.280 N 
HETATM   12  H   UNL     1      23.057  44.941  49.850  1.00  0.00     0.189 HD
HETATM   13  N   UNL     1      23.636  43.136  49.152  1.00  0.00    -0.177 NA
HETATM   14  C   UNL     1      24.552  42.271  49.615  1.00  0.00     0.079 A 
HETATM   15  C   UNL     1      24.748  41.002  48.872  1.00  0.00     0.075 C 
ENDBRANCH   5   8
ENDBRANCH   3   4
ENDBRANCH   1   3
BRANCH   1  16
HETATM   16  C   UNL     1      29.135  42.817  54.130  1.00  0.00     0.250 C 
HETATM   17  C   UNL     1      30.236  42.714  53.060  1.00  0.00     0.048 C 
BRANCH  16  18
HETATM   18  C   UNL     1      28.828  44.220  54.651  1.00  0.00    -0.011 A 
HETATM   19  C   UNL     1      29.618  44.814  55.674  1.00  0.00     0.056 A 
HETATM   20  C   UNL     1      29.285  46.105  56.136  1.00  0.00     0.017 A 
HETATM   21  C   UNL     1      28.201  46.805  55.612  1.00  0.00     0.001 A 
HETATM   22  C   UNL     1      27.422  46.224  54.621  1.00  0.00     0.001 A 
HETATM   23  C   UNL     1      27.731  44.948  54.149  1.00  0.00     0.010 A 
BRANCH  19  24
HETATM   24  C   UNL     1      30.797  44.106  56.316  1.00  0.00     0.418 C 
HETATM   25  F   UNL     1      30.608  42.766  56.476  1.00  0.00    -0.166 F 
HETATM   26  F   UNL     1      31.944  44.209  55.578  1.00  0.00    -0.166 F 
HETATM   27  F   UNL     1      31.123  44.597  57.545  1.00  0.00    -0.166 F 
ENDBRANCH  19  24
ENDBRANCH  16  18
ENDBRANCH   1  16
TORSDOF 6
ENDMDL
