MODEL 1
REMARK VINA RESULT:      -9.4      0.000      0.000
REMARK  7 active torsions:
REMARK  status: ('A' for Active; 'I' for Inactive)
REMARK    1  A    between atoms: C_2  and  C_3 
REMARK    2  A    between atoms: C_5  and  N_6 
REMARK       I    between atoms: N_6  and  C_7 
REMARK    3  A    between atoms: C_7  and  C_8 
REMARK    4  A    between atoms: C_8  and  S_9 
REMARK    5  A    between atoms: S_9  and  C_10 
REMARK    6  A    between atoms: C_12  and  C_13 
REMARK    7  A    between atoms: C_14  and  O_15 
ROOT
HETATM    1  C   UNL     1      26.947  42.402  51.785  1.00  0.00     0.185 A 
HETATM    2  N   UNL     1      27.500  43.455  52.330  1.00  0.00    -0.201 NA
HETATM    3  C   UNL     1      28.122  42.932  53.457  1.00  0.00     0.184 A 
HETATM    4  N   UNL     1      27.989  41.600  53.583  1.00  0.00    -0.152 NA
HETATM    5  N   UNL     1      27.235  41.293  52.513  1.00  0.00    -0.253 N 
HETATM    6  H   UNL     1      26.950  40.335  52.348  1.00  0.00     0.191 HD
ENDROOT
BRANCH   1   7
HETATM    7  S   UNL     1      25.973  42.319  50.373  1.00  0.00    -0.081 SA
BRANCH   7   8
HETATM    8  C   UNL     1      24.735  43.601  50.730  1.00  0.00     0.185 C 
BRANCH   8   9
HETATM    9  C   UNL     1      24.857  44.776  49.765  1.00  0.00     0.231 C 
HETATM   10  N   UNL     1      25.367  45.920  50.365  1.00  0.00    -0.327 N 
HETATM   11  H   UNL     1      25.595  45.865  51.352  1.00  0.00     0.169 HD
HETATM   12  O   UNL     1      24.540  44.668  48.583  1.00  0.00    -0.272 OA
BRANCH  10  13
HETATM   13  C   UNL     1      25.570  47.188  49.778  1.00  0.00     0.035 A 
HETATM   14  C   UNL     1      24.539  48.025  49.344  1.00  0.00     0.044 A 
HETATM   15  C   UNL     1      24.830  49.276  48.778  1.00  0.00     0.011 A 
HETATM   16  C   UNL     1      26.162  49.685  48.650  1.00  0.00     0.015 A 
HETATM   17  C   UNL     1      27.194  48.856  49.079  1.00  0.00     0.003 A 
HETATM   18  C   UNL     1      26.898  47.614  49.640  1.00  0.00     0.029 A 
BRANCH  15  19
HETATM   19  C   UNL     1      23.757  50.202  48.306  1.00  0.00     0.155 C 
HETATM   20  C   UNL     1      22.957  50.978  49.320  1.00  0.00     0.096 C 
HETATM   21  O   UNL     1      23.538  50.320  47.101  1.00  0.00    -0.293 OA
ENDBRANCH  15  19
ENDBRANCH  10  13
ENDBRANCH   8   9
ENDBRANCH   7   8
ENDBRANCH   1   7
BRANCH   3  22
HETATM   22  C   UNL     1      28.830  43.791  54.402  1.00  0.00     0.048 A 
HETATM   23  C   UNL     1      28.457  45.135  54.595  1.00  0.00     0.080 A 
HETATM   24  C   UNL     1      29.121  45.944  55.516  1.00  0.00     0.039 A 
HETATM   25  C   UNL     1      30.180  45.424  56.257  1.00  0.00     0.022 A 
HETATM   26  C   UNL     1      30.566  44.098  56.070  1.00  0.00     0.012 A 
HETATM   27 BR   UNL     1      32.010  43.395  57.071  1.00  0.00    -0.051 Br
HETATM   28  C   UNL     1      29.901  43.283  55.153  1.00  0.00     0.037 A 
BRANCH  23  29
HETATM   29  O   UNL     1      27.433  45.728  53.897  1.00  0.00    -0.360 OA
HETATM   30  H   UNL     1      26.650  45.694  54.487  1.00  0.00     0.217 HD
ENDBRANCH  23  29
ENDBRANCH   3  22
TORSDOF 7
ENDMDL
MODEL 2
REMARK VINA RESULT:      -9.1      4.356      9.765
REMARK  7 active torsions:
REMARK  status: ('A' for Active; 'I' for Inactive)
REMARK    1  A    between atoms: C_2  and  C_3 
REMARK    2  A    between atoms: C_5  and  N_6 
REMARK       I    between atoms: N_6  and  C_7 
REMARK    3  A    between atoms: C_7  and  C_8 
REMARK    4  A    between atoms: C_8  and  S_9 
REMARK    5  A    between atoms: S_9  and  C_10 
REMARK    6  A    between atoms: C_12  and  C_13 
REMARK    7  A    between atoms: C_14  and  O_15 
ROOT
HETATM    1  C   UNL     1      24.928  48.314  49.596  1.00  0.00     0.185 A 
HETATM    2  N   UNL     1      23.644  48.484  49.782  1.00  0.00    -0.201 NA
HETATM    3  C   UNL     1      23.359  49.587  48.988  1.00  0.00     0.184 A 
HETATM    4  N   UNL     1      24.418  50.058  48.308  1.00  0.00    -0.152 NA
HETATM    5  N   UNL     1      25.400  49.236  48.718  1.00  0.00    -0.253 N 
HETATM    6  H   UNL     1      26.346  49.362  48.377  1.00  0.00     0.191 HD
ENDROOT
BRANCH   1   7
HETATM    7  S   UNL     1      25.965  47.145  50.310  1.00  0.00    -0.081 SA
BRANCH   7   8
HETATM    8  C   UNL     1      24.754  45.942  50.933  1.00  0.00     0.185 C 
BRANCH   8   9
HETATM    9  C   UNL     1      25.355  45.060  52.023  1.00  0.00     0.231 C 
HETATM   10  N   UNL     1      26.738  44.966  51.943  1.00  0.00    -0.327 N 
HETATM   11  H   UNL     1      27.196  45.469  51.191  1.00  0.00     0.169 HD
HETATM   12  O   UNL     1      24.648  44.525  52.873  1.00  0.00    -0.272 OA
BRANCH  10  13
HETATM   13  C   UNL     1      27.602  44.206  52.762  1.00  0.00     0.035 A 
HETATM   14  C   UNL     1      28.371  44.740  53.798  1.00  0.00     0.044 A 
HETATM   15  C   UNL     1      29.198  43.910  54.571  1.00  0.00     0.011 A 
HETATM   16  C   UNL     1      29.250  42.538  54.299  1.00  0.00     0.015 A 
HETATM   17  C   UNL     1      28.486  41.998  53.268  1.00  0.00     0.003 A 
HETATM   18  C   UNL     1      27.667  42.830  52.504  1.00  0.00     0.029 A 
BRANCH  15  19
HETATM   19  C   UNL     1      30.033  44.441  55.690  1.00  0.00     0.155 C 
HETATM   20  C   UNL     1      31.146  43.589  56.244  1.00  0.00     0.096 C 
HETATM   21  O   UNL     1      29.804  45.561  56.144  1.00  0.00    -0.293 OA
ENDBRANCH  15  19
ENDBRANCH  10  13
ENDBRANCH   8   9
ENDBRANCH   7   8
ENDBRANCH   1   7
BRANCH   3  22
HETATM   22  C   UNL     1      22.017  50.161  48.940  1.00  0.00     0.048 A 
HETATM   23  C   UNL     1      21.475  50.856  50.039  1.00  0.00     0.080 A 
HETATM   24  C   UNL     1      20.203  51.423  49.980  1.00  0.00     0.039 A 
HETATM   25  C   UNL     1      19.443  51.298  48.818  1.00  0.00     0.022 A 
HETATM   26  C   UNL     1      19.963  50.606  47.726  1.00  0.00     0.012 A 
HETATM   27 BR   UNL     1      18.927  50.431  46.153  1.00  0.00    -0.051 Br
HETATM   28  C   UNL     1      21.238  50.041  47.779  1.00  0.00     0.037 A 
BRANCH  23  29
HETATM   29  O   UNL     1      22.152  51.013  51.224  1.00  0.00    -0.360 OA
HETATM   30  H   UNL     1      21.741  51.784  51.668  1.00  0.00     0.217 HD
ENDBRANCH  23  29
ENDBRANCH   3  22
TORSDOF 7
ENDMDL
MODEL 3
REMARK VINA RESULT:      -9.0      2.816      7.442
REMARK  7 active torsions:
REMARK  status: ('A' for Active; 'I' for Inactive)
REMARK    1  A    between atoms: C_2  and  C_3 
REMARK    2  A    between atoms: C_5  and  N_6 
REMARK       I    between atoms: N_6  and  C_7 
REMARK    3  A    between atoms: C_7  and  C_8 
REMARK    4  A    between atoms: C_8  and  S_9 
REMARK    5  A    between atoms: S_9  and  C_10 
REMARK    6  A    between atoms: C_12  and  C_13 
REMARK    7  A    between atoms: C_14  and  O_15 
ROOT
HETATM    1  C   UNL     1      25.674  42.430  50.526  1.00  0.00     0.185 A 
HETATM    2  N   UNL     1      25.968  43.538  49.895  1.00  0.00    -0.201 NA
HETATM    3  C   UNL     1      25.064  44.448  50.427  1.00  0.00     0.184 A 
HETATM    4  N   UNL     1      24.268  43.932  51.379  1.00  0.00    -0.152 NA
HETATM    5  N   UNL     1      24.672  42.650  51.415  1.00  0.00    -0.253 N 
HETATM    6  H   UNL     1      24.227  41.993  52.045  1.00  0.00     0.191 HD
ENDROOT
BRANCH   1   7
HETATM    7  S   UNL     1      26.372  40.873  50.330  1.00  0.00    -0.081 SA
BRANCH   7   8
HETATM    8  C   UNL     1      28.058  41.170  50.939  1.00  0.00     0.185 C 
BRANCH   8   9
HETATM    9  C   UNL     1      28.046  41.809  52.324  1.00  0.00     0.231 C 
HETATM   10  N   UNL     1      28.256  43.181  52.289  1.00  0.00    -0.327 N 
HETATM   11  H   UNL     1      28.397  43.607  51.380  1.00  0.00     0.169 HD
HETATM   12  O   UNL     1      27.848  41.139  53.334  1.00  0.00    -0.272 OA
BRANCH  10  13
HETATM   13  C   UNL     1      28.346  44.070  53.383  1.00  0.00     0.035 A 
HETATM   14  C   UNL     1      29.338  44.008  54.364  1.00  0.00     0.044 A 
HETATM   15  C   UNL     1      29.359  44.939  55.414  1.00  0.00     0.011 A 
HETATM   16  C   UNL     1      28.377  45.934  55.477  1.00  0.00     0.015 A 
HETATM   17  C   UNL     1      27.384  46.002  54.503  1.00  0.00     0.003 A 
HETATM   18  C   UNL     1      27.370  45.072  53.463  1.00  0.00     0.029 A 
BRANCH  15  19
HETATM   19  C   UNL     1      30.405  44.910  56.480  1.00  0.00     0.155 C 
HETATM   20  C   UNL     1      31.305  43.706  56.594  1.00  0.00     0.096 C 
HETATM   21  O   UNL     1      30.521  45.863  57.249  1.00  0.00    -0.293 OA
ENDBRANCH  15  19
ENDBRANCH  10  13
ENDBRANCH   8   9
ENDBRANCH   7   8
ENDBRANCH   1   7
BRANCH   3  22
HETATM   22  C   UNL     1      25.009  45.829  49.955  1.00  0.00     0.048 A 
HETATM   23  C   UNL     1      23.791  46.430  49.582  1.00  0.00     0.080 A 
HETATM   24  C   UNL     1      23.741  47.756  49.155  1.00  0.00     0.039 A 
HETATM   25  C   UNL     1      24.913  48.506  49.085  1.00  0.00     0.022 A 
HETATM   26  C   UNL     1      26.127  47.922  49.441  1.00  0.00     0.012 A 
HETATM   27 BR   UNL     1      27.719  48.938  49.337  1.00  0.00    -0.051 Br
HETATM   28  C   UNL     1      26.182  46.596  49.875  1.00  0.00     0.037 A 
BRANCH  23  29
HETATM   29  O   UNL     1      22.594  45.758  49.611  1.00  0.00    -0.360 OA
HETATM   30  H   UNL     1      22.754  44.904  49.158  1.00  0.00     0.217 HD
ENDBRANCH  23  29
ENDBRANCH   3  22
TORSDOF 7
ENDMDL
MODEL 4
REMARK VINA RESULT:      -9.0      3.487      8.223
REMARK  7 active torsions:
REMARK  status: ('A' for Active; 'I' for Inactive)
REMARK    1  A    between atoms: C_2  and  C_3 
REMARK    2  A    between atoms: C_5  and  N_6 
REMARK       I    between atoms: N_6  and  C_7 
REMARK    3  A    between atoms: C_7  and  C_8 
REMARK    4  A    between atoms: C_8  and  S_9 
REMARK    5  A    between atoms: S_9  and  C_10 
REMARK    6  A    between atoms: C_12  and  C_13 
REMARK    7  A    between atoms: C_14  and  O_15 
ROOT
HETATM    1  C   UNL     1      24.577  45.083  50.769  1.00  0.00     0.185 A 
HETATM    2  N   UNL     1      24.292  45.847  49.746  1.00  0.00    -0.201 NA
HETATM    3  C   UNL     1      24.518  47.125  50.240  1.00  0.00     0.184 A 
HETATM    4  N   UNL     1      24.963  47.148  51.508  1.00  0.00    -0.152 NA
HETATM    5  N   UNL     1      24.984  45.841  51.819  1.00  0.00    -0.253 N 
HETATM    6  H   UNL     1      25.268  45.542  52.745  1.00  0.00     0.191 HD
ENDROOT
BRANCH   1   7
HETATM    7  S   UNL     1      24.476  43.372  50.885  1.00  0.00    -0.081 SA
BRANCH   7   8
HETATM    8  C   UNL     1      26.144  42.889  50.350  1.00  0.00     0.185 C 
BRANCH   8   9
HETATM    9  C   UNL     1      27.218  43.605  51.162  1.00  0.00     0.231 C 
HETATM   10  N   UNL     1      27.435  43.027  52.405  1.00  0.00    -0.327 N 
HETATM   11  H   UNL     1      26.873  42.217  52.645  1.00  0.00     0.169 HD
HETATM   12  O   UNL     1      27.816  44.579  50.710  1.00  0.00    -0.272 OA
BRANCH  10  13
HETATM   13  C   UNL     1      28.321  43.457  53.417  1.00  0.00     0.035 A 
HETATM   14  C   UNL     1      28.058  44.513  54.293  1.00  0.00     0.044 A 
HETATM   15  C   UNL     1      28.992  44.870  55.277  1.00  0.00     0.011 A 
HETATM   16  C   UNL     1      30.195  44.161  55.380  1.00  0.00     0.015 A 
HETATM   17  C   UNL     1      30.464  43.108  54.511  1.00  0.00     0.003 A 
HETATM   18  C   UNL     1      29.531  42.759  53.534  1.00  0.00     0.029 A 
BRANCH  15  19
HETATM   19  C   UNL     1      28.747  45.989  56.235  1.00  0.00     0.155 C 
HETATM   20  C   UNL     1      29.485  46.007  57.549  1.00  0.00     0.096 C 
HETATM   21  O   UNL     1      27.950  46.880  55.944  1.00  0.00    -0.293 OA
ENDBRANCH  15  19
ENDBRANCH  10  13
ENDBRANCH   8   9
ENDBRANCH   7   8
ENDBRANCH   1   7
BRANCH   3  22
HETATM   22  C   UNL     1      24.266  48.310  49.424  1.00  0.00     0.048 A 
HETATM   23  C   UNL     1      25.322  49.048  48.855  1.00  0.00     0.080 A 
HETATM   24  C   UNL     1      25.075  50.164  48.057  1.00  0.00     0.039 A 
HETATM   25  C   UNL     1      23.763  50.569  47.820  1.00  0.00     0.022 A 
HETATM   26  C   UNL     1      22.708  49.854  48.384  1.00  0.00     0.012 A 
HETATM   27 BR   UNL     1      20.928  50.410  48.069  1.00  0.00    -0.051 Br
HETATM   28  C   UNL     1      22.950  48.733  49.180  1.00  0.00     0.037 A 
BRANCH  23  29
HETATM   29  O   UNL     1      26.642  48.723  49.049  1.00  0.00    -0.360 OA
HETATM   30  H   UNL     1      27.002  49.408  49.651  1.00  0.00     0.217 HD
ENDBRANCH  23  29
ENDBRANCH   3  22
TORSDOF 7
ENDMDL
MODEL 5
REMARK VINA RESULT:      -9.0      2.367      3.197
REMARK  7 active torsions:
REMARK  status: ('A' for Active; 'I' for Inactive)
REMARK    1  A    between atoms: C_2  and  C_3 
REMARK    2  A    between atoms: C_5  and  N_6 
REMARK       I    between atoms: N_6  and  C_7 
REMARK    3  A    between atoms: C_7  and  C_8 
REMARK    4  A    between atoms: C_8  and  S_9 
REMARK    5  A    between atoms: S_9  and  C_10 
REMARK    6  A    between atoms: C_12  and  C_13 
REMARK    7  A    between atoms: C_14  and  O_15 
ROOT
HETATM    1  C   UNL     1      26.322  44.410  51.178  1.00  0.00     0.185 A 
HETATM    2  N   UNL     1      27.551  44.256  51.600  1.00  0.00    -0.201 NA
HETATM    3  C   UNL     1      27.397  44.157  52.976  1.00  0.00     0.184 A 
HETATM    4  N   UNL     1      26.118  44.208  53.386  1.00  0.00    -0.152 NA
HETATM    5  N   UNL     1      25.460  44.375  52.226  1.00  0.00    -0.253 N 
HETATM    6  H   UNL     1      24.450  44.467  52.221  1.00  0.00     0.191 HD
ENDROOT
BRANCH   1   7
HETATM    7  S   UNL     1      25.766  44.641  49.569  1.00  0.00    -0.081 SA
BRANCH   7   8
HETATM    8  C   UNL     1      24.054  45.173  49.866  1.00  0.00     0.185 C 
BRANCH   8   9
HETATM    9  C   UNL     1      23.946  46.693  49.928  1.00  0.00     0.231 C 
HETATM   10  N   UNL     1      22.959  47.201  49.095  1.00  0.00    -0.327 N 
HETATM   11  H   UNL     1      22.429  46.536  48.542  1.00  0.00     0.169 HD
HETATM   12  O   UNL     1      24.670  47.355  50.669  1.00  0.00    -0.272 OA
BRANCH  10  13
HETATM   13  C   UNL     1      22.621  48.555  48.879  1.00  0.00     0.035 A 
HETATM   14  C   UNL     1      21.393  49.123  49.227  1.00  0.00     0.044 A 
HETATM   15  C   UNL     1      21.144  50.482  48.985  1.00  0.00     0.011 A 
HETATM   16  C   UNL     1      22.134  51.273  48.391  1.00  0.00     0.015 A 
HETATM   17  C   UNL     1      23.360  50.715  48.042  1.00  0.00     0.003 A 
HETATM   18  C   UNL     1      23.601  49.362  48.285  1.00  0.00     0.029 A 
BRANCH  15  19
HETATM   19  C   UNL     1      19.846  51.128  49.346  1.00  0.00     0.155 C 
HETATM   20  C   UNL     1      19.363  52.307  48.541  1.00  0.00     0.096 C 
HETATM   21  O   UNL     1      19.189  50.693  50.291  1.00  0.00    -0.293 OA
ENDBRANCH  15  19
ENDBRANCH  10  13
ENDBRANCH   8   9
ENDBRANCH   7   8
ENDBRANCH   1   7
BRANCH   3  22
HETATM   22  C   UNL     1      28.550  44.025  53.862  1.00  0.00     0.048 A 
HETATM   23  C   UNL     1      29.574  43.095  53.601  1.00  0.00     0.080 A 
HETATM   24  C   UNL     1      30.685  42.990  54.437  1.00  0.00     0.039 A 
HETATM   25  C   UNL     1      30.789  43.812  55.557  1.00  0.00     0.022 A 
HETATM   26  C   UNL     1      29.778  44.732  55.833  1.00  0.00     0.012 A 
HETATM   27 BR   UNL     1      29.916  45.841  57.360  1.00  0.00    -0.051 Br
HETATM   28  C   UNL     1      28.667  44.843  54.997  1.00  0.00     0.037 A 
BRANCH  23  29
HETATM   29  O   UNL     1      29.544  42.241  52.526  1.00  0.00    -0.360 OA
HETATM   30  H   UNL     1      29.166  41.401  52.861  1.00  0.00     0.217 HD
ENDBRANCH  23  29
ENDBRANCH   3  22
TORSDOF 7
ENDMDL
MODEL 6
REMARK VINA RESULT:      -9.0      4.399      9.637
REMARK  7 active torsions:
REMARK  status: ('A' for Active; 'I' for Inactive)
REMARK    1  A    between atoms: C_2  and  C_3 
REMARK    2  A    between atoms: C_5  and  N_6 
REMARK       I    between atoms: N_6  and  C_7 
REMARK    3  A    between atoms: C_7  and  C_8 
REMARK    4  A    between atoms: C_8  and  S_9 
REMARK    5  A    between atoms: S_9  and  C_10 
REMARK    6  A    between atoms: C_12  and  C_13 
REMARK    7  A    between atoms: C_14  and  O_15 
ROOT
HETATM    1  C   UNL     1      23.706  46.937  49.275  1.00  0.00     0.185 A 
HETATM    2  N   UNL     1      22.541  47.405  48.908  1.00  0.00    -0.201 NA
HETATM    3  C   UNL     1      22.674  48.771  49.120  1.00  0.00     0.184 A 
HETATM    4  N   UNL     1      23.889  49.137  49.565  1.00  0.00    -0.152 NA
HETATM    5  N   UNL     1      24.519  47.954  49.659  1.00  0.00    -0.253 N 
HETATM    6  H   UNL     1      25.474  47.910  49.995  1.00  0.00     0.191 HD
ENDROOT
BRANCH   1   7
HETATM    7  S   UNL     1      24.234  45.303  49.318  1.00  0.00    -0.081 SA
BRANCH   7   8
HETATM    8  C   UNL     1      24.320  45.014  51.110  1.00  0.00     0.185 C 
BRANCH   8   9
HETATM    9  C   UNL     1      25.693  45.377  51.668  1.00  0.00     0.231 C 
HETATM   10  N   UNL     1      25.858  44.998  52.993  1.00  0.00    -0.327 N 
HETATM   11  H   UNL     1      25.076  44.538  53.446  1.00  0.00     0.169 HD
HETATM   12  O   UNL     1      26.538  45.933  50.971  1.00  0.00    -0.272 OA
BRANCH  10  13
HETATM   13  C   UNL     1      26.980  45.216  53.822  1.00  0.00     0.035 A 
HETATM   14  C   UNL     1      28.026  44.304  53.982  1.00  0.00     0.044 A 
HETATM   15  C   UNL     1      29.110  44.605  54.820  1.00  0.00     0.011 A 
HETATM   16  C   UNL     1      29.142  45.829  55.499  1.00  0.00     0.015 A 
HETATM   17  C   UNL     1      28.104  46.743  55.344  1.00  0.00     0.003 A 
HETATM   18  C   UNL     1      27.029  46.436  54.510  1.00  0.00     0.029 A 
BRANCH  15  19
HETATM   19  C   UNL     1      30.249  43.659  55.016  1.00  0.00     0.155 C 
HETATM   20  C   UNL     1      31.052  43.729  56.289  1.00  0.00     0.096 C 
HETATM   21  O   UNL     1      30.519  42.838  54.140  1.00  0.00    -0.293 OA
ENDBRANCH  15  19
ENDBRANCH  10  13
ENDBRANCH   8   9
ENDBRANCH   7   8
ENDBRANCH   1   7
BRANCH   3  22
HETATM   22  C   UNL     1      21.563  49.689  48.883  1.00  0.00     0.048 A 
HETATM   23  C   UNL     1      21.230  50.695  49.811  1.00  0.00     0.080 A 
HETATM   24  C   UNL     1      20.184  51.583  49.570  1.00  0.00     0.039 A 
HETATM   25  C   UNL     1      19.444  51.477  48.394  1.00  0.00     0.022 A 
HETATM   26  C   UNL     1      19.755  50.481  47.470  1.00  0.00     0.012 A 
HETATM   27 BR   UNL     1      18.744  50.333  45.879  1.00  0.00    -0.051 Br
HETATM   28  C   UNL     1      20.805  49.592  47.706  1.00  0.00     0.037 A 
BRANCH  23  29
HETATM   29  O   UNL     1      21.901  50.860  50.998  1.00  0.00    -0.360 OA
HETATM   30  H   UNL     1      22.176  51.801  51.024  1.00  0.00     0.217 HD
ENDBRANCH  23  29
ENDBRANCH   3  22
TORSDOF 7
ENDMDL
MODEL 7
REMARK VINA RESULT:      -9.0      3.458      8.612
REMARK  7 active torsions:
REMARK  status: ('A' for Active; 'I' for Inactive)
REMARK    1  A    between atoms: C_2  and  C_3 
REMARK    2  A    between atoms: C_5  and  N_6 
REMARK       I    between atoms: N_6  and  C_7 
REMARK    3  A    between atoms: C_7  and  C_8 
REMARK    4  A    between atoms: C_8  and  S_9 
REMARK    5  A    between atoms: S_9  and  C_10 
REMARK    6  A    between atoms: C_12  and  C_13 
REMARK    7  A    between atoms: C_14  and  O_15 
ROOT
HETATM    1  C   UNL     1      25.843  44.760  50.881  1.00  0.00     0.185 A 
HETATM    2  N   UNL     1      25.823  45.561  49.847  1.00  0.00    -0.201 NA
HETATM    3  C   UNL     1      25.612  46.808  50.423  1.00  0.00     0.184 A 
HETATM    4  N   UNL     1      25.543  46.782  51.765  1.00  0.00    -0.152 NA
HETATM    5  N   UNL     1      25.686  45.472  52.027  1.00  0.00    -0.253 N 
HETATM    6  H   UNL     1      25.657  45.136  52.982  1.00  0.00     0.191 HD
ENDROOT
BRANCH   1   7
HETATM    7  S   UNL     1      26.021  43.052  50.904  1.00  0.00    -0.081 SA
BRANCH   7   8
HETATM    8  C   UNL     1      27.731  42.889  51.497  1.00  0.00     0.185 C 
BRANCH   8   9
HETATM    9  C   UNL     1      27.829  43.155  52.995  1.00  0.00     0.231 C 
HETATM   10  N   UNL     1      28.633  44.245  53.301  1.00  0.00    -0.327 N 
HETATM   11  H   UNL     1      29.065  44.736  52.526  1.00  0.00     0.169 HD
HETATM   12  O   UNL     1      27.225  42.459  53.808  1.00  0.00    -0.272 OA
BRANCH  10  13
HETATM   13  C   UNL     1      28.971  44.739  54.580  1.00  0.00     0.035 A 
HETATM   14  C   UNL     1      29.969  44.196  55.392  1.00  0.00     0.044 A 
HETATM   15  C   UNL     1      30.247  44.756  56.649  1.00  0.00     0.011 A 
HETATM   16  C   UNL     1      29.517  45.866  57.088  1.00  0.00     0.015 A 
HETATM   17  C   UNL     1      28.520  46.413  56.285  1.00  0.00     0.003 A 
HETATM   18  C   UNL     1      28.250  45.850  55.037  1.00  0.00     0.029 A 
BRANCH  15  19
HETATM   19  C   UNL     1      31.308  44.208  57.545  1.00  0.00     0.155 C 
HETATM   20  C   UNL     1      32.039  42.954  57.138  1.00  0.00     0.096 C 
HETATM   21  O   UNL     1      31.573  44.781  58.601  1.00  0.00    -0.293 OA
ENDBRANCH  15  19
ENDBRANCH  10  13
ENDBRANCH   8   9
ENDBRANCH   7   8
ENDBRANCH   1   7
BRANCH   3  22
HETATM   22  C   UNL     1      25.468  48.009  49.604  1.00  0.00     0.048 A 
HETATM   23  C   UNL     1      26.571  48.583  48.944  1.00  0.00     0.080 A 
HETATM   24  C   UNL     1      26.424  49.716  48.144  1.00  0.00     0.039 A 
HETATM   25  C   UNL     1      25.167  50.300  47.996  1.00  0.00     0.022 A 
HETATM   26  C   UNL     1      24.068  49.747  48.650  1.00  0.00     0.012 A 
HETATM   27 BR   UNL     1      22.365  50.547  48.455  1.00  0.00    -0.051 Br
HETATM   28  C   UNL     1      24.210  48.611  49.448  1.00  0.00     0.037 A 
BRANCH  23  29
HETATM   29  O   UNL     1      27.843  48.077  49.047  1.00  0.00    -0.360 OA
HETATM   30  H   UNL     1      27.740  47.107  49.140  1.00  0.00     0.217 HD
ENDBRANCH  23  29
ENDBRANCH   3  22
TORSDOF 7
ENDMDL
MODEL 8
REMARK VINA RESULT:      -8.9      4.022      9.526
REMARK  7 active torsions:
REMARK  status: ('A' for Active; 'I' for Inactive)
REMARK    1  A    between atoms: C_2  and  C_3 
REMARK    2  A    between atoms: C_5  and  N_6 
REMARK       I    between atoms: N_6  and  C_7 
REMARK    3  A    between atoms: C_7  and  C_8 
REMARK    4  A    between atoms: C_8  and  S_9 
REMARK    5  A    between atoms: S_9  and  C_10 
REMARK    6  A    between atoms: C_12  and  C_13 
REMARK    7  A    between atoms: C_14  and  O_15 
ROOT
HETATM    1  C   UNL     1      24.856  46.405  50.334  1.00  0.00     0.185 A 
HETATM    2  N   UNL     1      24.454  47.649  50.373  1.00  0.00    -0.201 NA
HETATM    3  C   UNL     1      23.409  47.667  49.458  1.00  0.00     0.184 A 
HETATM    4  N   UNL     1      23.151  46.471  48.903  1.00  0.00    -0.152 NA
HETATM    5  N   UNL     1      24.088  45.692  49.472  1.00  0.00    -0.253 N 
HETATM    6  H   UNL     1      24.153  44.711  49.226  1.00  0.00     0.191 HD
ENDROOT
BRANCH   1   7
HETATM    7  S   UNL     1      26.156  45.676  51.189  1.00  0.00    -0.081 SA
BRANCH   7   8
HETATM    8  C   UNL     1      25.434  45.517  52.849  1.00  0.00     0.185 C 
BRANCH   8   9
HETATM    9  C   UNL     1      26.336  44.707  53.774  1.00  0.00     0.231 C 
HETATM   10  N   UNL     1      27.671  45.081  53.693  1.00  0.00    -0.327 N 
HETATM   11  H   UNL     1      27.907  45.825  53.046  1.00  0.00     0.169 HD
HETATM   12  O   UNL     1      25.879  43.835  54.509  1.00  0.00    -0.272 OA
BRANCH  10  13
HETATM   13  C   UNL     1      28.770  44.515  54.375  1.00  0.00     0.035 A 
HETATM   14  C   UNL     1      29.241  44.963  55.612  1.00  0.00     0.044 A 
HETATM   15  C   UNL     1      30.336  44.336  56.226  1.00  0.00     0.011 A 
HETATM   16  C   UNL     1      30.960  43.255  55.592  1.00  0.00     0.015 A 
HETATM   17  C   UNL     1      30.497  42.803  54.360  1.00  0.00     0.003 A 
HETATM   18  C   UNL     1      29.408  43.432  53.755  1.00  0.00     0.029 A 
BRANCH  15  19
HETATM   19  C   UNL     1      30.867  44.782  57.549  1.00  0.00     0.155 C 
HETATM   20  C   UNL     1      30.282  46.009  58.200  1.00  0.00     0.096 C 
HETATM   21  O   UNL     1      31.770  44.147  58.090  1.00  0.00    -0.293 OA
ENDBRANCH  15  19
ENDBRANCH  10  13
ENDBRANCH   8   9
ENDBRANCH   7   8
ENDBRANCH   1   7
BRANCH   3  22
HETATM   22  C   UNL     1      22.694  48.902  49.146  1.00  0.00     0.048 A 
HETATM   23  C   UNL     1      23.380  50.074  48.773  1.00  0.00     0.080 A 
HETATM   24  C   UNL     1      22.692  51.242  48.453  1.00  0.00     0.039 A 
HETATM   25  C   UNL     1      21.299  51.263  48.507  1.00  0.00     0.022 A 
HETATM   26  C   UNL     1      20.607  50.113  48.883  1.00  0.00     0.012 A 
HETATM   27 BR   UNL     1      18.718  50.144  48.964  1.00  0.00    -0.051 Br
HETATM   28  C   UNL     1      21.292  48.939  49.200  1.00  0.00     0.037 A 
BRANCH  23  29
HETATM   29  O   UNL     1      24.750  50.142  48.707  1.00  0.00    -0.360 OA
HETATM   30  H   UNL     1      24.967  50.285  47.761  1.00  0.00     0.217 HD
ENDBRANCH  23  29
ENDBRANCH   3  22
TORSDOF 7
ENDMDL
MODEL 9
REMARK VINA RESULT:      -8.8      3.536      5.102
REMARK  7 active torsions:
REMARK  status: ('A' for Active; 'I' for Inactive)
REMARK    1  A    between atoms: C_2  and  C_3 
REMARK    2  A    between atoms: C_5  and  N_6 
REMARK       I    between atoms: N_6  and  C_7 
REMARK    3  A    between atoms: C_7  and  C_8 
REMARK    4  A    between atoms: C_8  and  S_9 
REMARK    5  A    between atoms: S_9  and  C_10 
REMARK    6  A    between atoms: C_12  and  C_13 
REMARK    7  A    between atoms: C_14  and  O_15 
ROOT
HETATM    1  C   UNL     1      24.490  45.865  50.832  1.00  0.00     0.185 A 
HETATM    2  N   UNL     1      25.509  46.392  51.461  1.00  0.00    -0.201 NA
HETATM    3  C   UNL     1      25.638  45.579  52.580  1.00  0.00     0.184 A 
HETATM    4  N   UNL     1      24.756  44.566  52.621  1.00  0.00    -0.152 NA
HETATM    5  N   UNL     1      24.038  44.776  51.505  1.00  0.00    -0.253 N 
HETATM    6  H   UNL     1      23.265  44.162  51.272  1.00  0.00     0.191 HD
ENDROOT
BRANCH   1   7
HETATM    7  S   UNL     1      23.743  46.393  49.378  1.00  0.00    -0.081 SA
BRANCH   7   8
HETATM    8  C   UNL     1      23.996  48.189  49.492  1.00  0.00     0.185 C 
BRANCH   8   9
HETATM    9  C   UNL     1      22.905  48.953  48.749  1.00  0.00     0.231 C 
HETATM   10  N   UNL     1      21.845  49.319  49.569  1.00  0.00    -0.327 N 
HETATM   11  H   UNL     1      21.897  49.048  50.544  1.00  0.00     0.169 HD
HETATM   12  O   UNL     1      23.007  49.210  47.552  1.00  0.00    -0.272 OA
BRANCH  10  13
HETATM   13  C   UNL     1      20.661  49.994  49.201  1.00  0.00     0.035 A 
HETATM   14  C   UNL     1      19.426  49.367  49.014  1.00  0.00     0.044 A 
HETATM   15  C   UNL     1      18.295  50.116  48.657  1.00  0.00     0.011 A 
HETATM   16  C   UNL     1      18.406  51.502  48.489  1.00  0.00     0.015 A 
HETATM   17  C   UNL     1      19.633  52.133  48.673  1.00  0.00     0.003 A 
HETATM   18  C   UNL     1      20.753  51.382  49.027  1.00  0.00     0.029 A 
BRANCH  15  19
HETATM   19  C   UNL     1      16.957  49.485  48.452  1.00  0.00     0.155 C 
HETATM   20  C   UNL     1      15.797  50.344  48.019  1.00  0.00     0.096 C 
HETATM   21  O   UNL     1      16.817  48.277  48.637  1.00  0.00    -0.293 OA
ENDBRANCH  15  19
ENDBRANCH  10  13
ENDBRANCH   8   9
ENDBRANCH   7   8
ENDBRANCH   1   7
BRANCH   3  22
HETATM   22  C   UNL     1      26.646  45.848  53.603  1.00  0.00     0.048 A 
HETATM   23  C   UNL     1      26.608  47.023  54.378  1.00  0.00     0.080 A 
HETATM   24  C   UNL     1      27.558  47.264  55.370  1.00  0.00     0.039 A 
HETATM   25  C   UNL     1      28.571  46.334  55.599  1.00  0.00     0.022 A 
HETATM   26  C   UNL     1      28.626  45.172  54.832  1.00  0.00     0.012 A 
HETATM   27 BR   UNL     1      30.006  43.915  55.138  1.00  0.00    -0.051 Br
HETATM   28  C   UNL     1      27.674  44.924  53.842  1.00  0.00     0.037 A 
BRANCH  23  29
HETATM   29  O   UNL     1      25.652  47.994  54.209  1.00  0.00    -0.360 OA
HETATM   30  H   UNL     1      24.850  47.664  54.667  1.00  0.00     0.217 HD
ENDBRANCH  23  29
ENDBRANCH   3  22
TORSDOF 7
ENDMDL
MODEL 10
REMARK VINA RESULT:      -8.8      3.347      7.248
REMARK  7 active torsions:
REMARK  status: ('A' for Active; 'I' for Inactive)
REMARK    1  A    between atoms: C_2  and  C_3 
REMARK    2  A    between atoms: C_5  and  N_6 
REMARK       I    between atoms: N_6  and  C_7 
REMARK    3  A    between atoms: C_7  and  C_8 
REMARK    4  A    between atoms: C_8  and  S_9 
REMARK    5  A    between atoms: S_9  and  C_10 
REMARK    6  A    between atoms: C_12  and  C_13 
REMARK    7  A    between atoms: C_14  and  O_15 
ROOT
HETATM    1  C   UNL     1      25.677  42.414  50.621  1.00  0.00     0.185 A 
HETATM    2  N   UNL     1      26.141  43.509  50.074  1.00  0.00    -0.201 NA
HETATM    3  C   UNL     1      25.253  44.479  50.523  1.00  0.00     0.184 A 
HETATM    4  N   UNL     1      24.301  44.008  51.346  1.00  0.00    -0.152 NA
HETATM    5  N   UNL     1      24.591  42.696  51.384  1.00  0.00    -0.253 N 
HETATM    6  H   UNL     1      24.015  42.062  51.927  1.00  0.00     0.191 HD
ENDROOT
BRANCH   1   7
HETATM    7  S   UNL     1      26.265  40.808  50.457  1.00  0.00    -0.081 SA
BRANCH   7   8
HETATM    8  C   UNL     1      28.011  41.029  50.909  1.00  0.00     0.185 C 
BRANCH   8   9
HETATM    9  C   UNL     1      28.154  41.557  52.333  1.00  0.00     0.231 C 
HETATM   10  N   UNL     1      28.913  42.717  52.407  1.00  0.00    -0.327 N 
HETATM   11  H   UNL     1      29.289  43.083  51.540  1.00  0.00     0.169 HD
HETATM   12  O   UNL     1      27.619  40.988  53.282  1.00  0.00    -0.272 OA
BRANCH  10  13
HETATM   13  C   UNL     1      29.275  43.441  53.564  1.00  0.00     0.035 A 
HETATM   14  C   UNL     1      28.577  44.551  54.046  1.00  0.00     0.044 A 
HETATM   15  C   UNL     1      29.001  45.208  55.211  1.00  0.00     0.011 A 
HETATM   16  C   UNL     1      30.132  44.746  55.894  1.00  0.00     0.015 A 
HETATM   17  C   UNL     1      30.833  43.641  55.420  1.00  0.00     0.003 A 
HETATM   18  C   UNL     1      30.406  42.993  54.261  1.00  0.00     0.029 A 
BRANCH  15  19
HETATM   19  C   UNL     1      28.279  46.395  55.761  1.00  0.00     0.155 C 
HETATM   20  C   UNL     1      27.673  47.392  54.808  1.00  0.00     0.096 C 
HETATM   21  O   UNL     1      28.188  46.545  56.978  1.00  0.00    -0.293 OA
ENDBRANCH  15  19
ENDBRANCH  10  13
ENDBRANCH   8   9
ENDBRANCH   7   8
ENDBRANCH   1   7
BRANCH   3  22
HETATM   22  C   UNL     1      25.373  45.872  50.099  1.00  0.00     0.048 A 
HETATM   23  C   UNL     1      26.628  46.451  49.827  1.00  0.00     0.080 A 
HETATM   24  C   UNL     1      26.735  47.773  49.399  1.00  0.00     0.039 A 
HETATM   25  C   UNL     1      25.586  48.546  49.244  1.00  0.00     0.022 A 
HETATM   26  C   UNL     1      24.338  47.989  49.519  1.00  0.00     0.012 A 
HETATM   27 BR   UNL     1      22.780  49.042  49.316  1.00  0.00    -0.051 Br
HETATM   28  C   UNL     1      24.226  46.664  49.942  1.00  0.00     0.037 A 
BRANCH  23  29
HETATM   29  O   UNL     1      27.808  45.763  49.966  1.00  0.00    -0.360 OA
HETATM   30  H   UNL     1      28.512  46.369  49.650  1.00  0.00     0.217 HD
ENDBRANCH  23  29
ENDBRANCH   3  22
TORSDOF 7
ENDMDL
