MODEL 1
REMARK VINA RESULT:      -9.7      0.000      0.000
REMARK  5 active torsions:
REMARK  status: ('A' for Active; 'I' for Inactive)
REMARK       I    between atoms: N_6  and  C_7 
REMARK    1  A    between atoms: C_7  and  C_8 
REMARK    2  A    between atoms: N_11  and  C_12 
REMARK    3  A    between atoms: C_19  and  C_20 
REMARK    4  A    between atoms: C_20  and  N_21 
REMARK    5  A    between atoms: N_21  and  C_22 
ROOT
HETATM    1  C   UNL     1      25.176  47.134  50.212  1.00  0.00     0.719 A 
HETATM    2  N   UNL     1      25.743  48.210  49.540  1.00  0.00    -0.154 N 
HETATM    3  C   UNL     1      24.680  48.853  48.900  1.00  0.00     0.083 A 
HETATM    4  C   UNL     1      24.956  50.031  48.148  1.00  0.00     0.033 A 
HETATM    5  C   UNL     1      26.227  50.460  48.032  1.00  0.00     0.004 A 
HETATM    6  C   UNL     1      27.324  49.741  48.647  1.00  0.00     0.018 A 
HETATM    7  C   UNL     1      27.064  48.644  49.377  1.00  0.00     0.115 A 
HETATM    8  C   UNL     1      23.560  48.089  49.139  1.00  0.00     0.099 A 
HETATM    9  N   UNL     1      23.873  47.017  49.964  1.00  0.00    -0.064 NA
ENDROOT
BRANCH   1  10
HETATM   10  N   UNL     1      25.839  46.224  51.047  1.00  0.00    -0.147 N 
HETATM   11  C   UNL     1      25.925  46.347  52.419  1.00  0.00     0.233 A 
HETATM   12  N   UNL     1      26.579  45.361  52.987  1.00  0.00    -0.236 NA
HETATM   13  C   UNL     1      26.963  44.534  51.954  1.00  0.00     0.142 A 
HETATM   14  C   UNL     1      26.548  45.086  50.753  1.00  0.00     0.153 A 
BRANCH  13  15
HETATM   15  C   UNL     1      27.741  43.289  52.078  1.00  0.00     0.273 C 
HETATM   16  N   UNL     1      27.143  42.052  51.783  1.00  0.00    -0.345 N 
HETATM   17  C   UNL     1      27.886  40.851  52.168  1.00  0.00     0.154 C 
HETATM   18  C   UNL     1      25.891  41.905  51.046  1.00  0.00     0.128 C 
HETATM   19  C   UNL     1      28.838  40.385  51.058  1.00  0.00     0.254 C 
HETATM   20  N   UNL     1      28.103  39.682  49.920  1.00  0.00    -0.073 N 
HETATM   21  C   UNL     1      29.097  39.192  48.890  1.00  0.00     0.269 C 
HETATM   22  H   UNL     1      27.672  38.833  50.313  1.00  0.00     0.279 HD
HETATM   23  C   UNL     1      27.002  40.487  49.258  1.00  0.00     0.236 C 
HETATM   24  C   UNL     1      25.800  40.647  50.183  1.00  0.00     0.048 C 
HETATM   25  O   UNL     1      28.926  43.328  52.415  1.00  0.00    -0.266 OA
ENDBRANCH  13  15
ENDBRANCH   1  10
BRANCH   8  26
HETATM   26  C   UNL     1      22.159  48.271  48.627  1.00  0.00     0.183 C 
BRANCH  26  27
HETATM   27  N   UNL     1      21.136  48.651  49.596  1.00  0.00    -0.371 N 
HETATM   28  H   UNL     1      20.624  47.859  49.983  1.00  0.00     0.161 HD
BRANCH  27  29
HETATM   29  C   UNL     1      20.376  49.801  49.494  1.00  0.00     0.101 A 
HETATM   30  N   UNL     1      19.195  49.935  50.119  1.00  0.00    -0.353 N 
HETATM   31  H   UNL     1      18.919  49.195  50.771  1.00  0.00     0.166 HD
HETATM   32  C   UNL     1      18.407  51.011  49.991  1.00  0.00     0.089 A 
HETATM   33  C   UNL     1      18.792  52.064  49.177  1.00  0.00     0.017 A 
HETATM   34  C   UNL     1      20.007  51.984  48.512  1.00  0.00     0.005 A 
HETATM   35  C   UNL     1      20.802  50.850  48.671  1.00  0.00     0.048 A 
ENDBRANCH  27  29
ENDBRANCH  26  27
ENDBRANCH   8  26
TORSDOF 5
ENDMDL
MODEL 2
REMARK VINA RESULT:      -9.7      2.006      2.797
REMARK  5 active torsions:
REMARK  status: ('A' for Active; 'I' for Inactive)
REMARK       I    between atoms: N_6  and  C_7 
REMARK    1  A    between atoms: C_7  and  C_8 
REMARK    2  A    between atoms: N_11  and  C_12 
REMARK    3  A    between atoms: C_19  and  C_20 
REMARK    4  A    between atoms: C_20  and  N_21 
REMARK    5  A    between atoms: N_21  and  C_22 
ROOT
HETATM    1  C   UNL     1      24.224  47.361  49.750  1.00  0.00     0.719 A 
HETATM    2  N   UNL     1      25.189  48.262  49.314  1.00  0.00    -0.154 N 
HETATM    3  C   UNL     1      24.498  49.216  48.562  1.00  0.00     0.083 A 
HETATM    4  C   UNL     1      25.234  50.301  48.006  1.00  0.00     0.033 A 
HETATM    5  C   UNL     1      26.568  50.351  48.173  1.00  0.00     0.004 A 
HETATM    6  C   UNL     1      27.277  49.316  48.898  1.00  0.00     0.018 A 
HETATM    7  C   UNL     1      26.582  48.305  49.445  1.00  0.00     0.115 A 
HETATM    8  C   UNL     1      23.188  48.795  48.506  1.00  0.00     0.099 A 
HETATM    9  N   UNL     1      23.020  47.637  49.254  1.00  0.00    -0.064 NA
ENDROOT
BRANCH   1  10
HETATM   10  N   UNL     1      24.427  46.257  50.589  1.00  0.00    -0.147 N 
HETATM   11  C   UNL     1      23.810  45.033  50.427  1.00  0.00     0.233 A 
HETATM   12  N   UNL     1      24.174  44.147  51.324  1.00  0.00    -0.236 NA
HETATM   13  C   UNL     1      25.069  44.802  52.142  1.00  0.00     0.142 A 
HETATM   14  C   UNL     1      25.194  46.115  51.719  1.00  0.00     0.153 A 
BRANCH  13  15
HETATM   15  C   UNL     1      25.753  44.234  53.316  1.00  0.00     0.273 C 
HETATM   16  N   UNL     1      26.699  43.207  53.153  1.00  0.00    -0.345 N 
HETATM   17  C   UNL     1      27.146  42.521  54.368  1.00  0.00     0.154 C 
HETATM   18  C   UNL     1      27.314  42.859  51.876  1.00  0.00     0.128 C 
HETATM   19  C   UNL     1      28.359  43.213  55.002  1.00  0.00     0.254 C 
HETATM   20  N   UNL     1      29.654  42.923  54.248  1.00  0.00    -0.073 N 
HETATM   21  C   UNL     1      30.820  43.579  54.955  1.00  0.00     0.269 C 
HETATM   22  H   UNL     1      29.825  41.911  54.314  1.00  0.00     0.279 HD
HETATM   23  C   UNL     1      29.648  43.290  52.777  1.00  0.00     0.236 C 
HETATM   24  C   UNL     1      28.752  42.351  51.976  1.00  0.00     0.048 C 
HETATM   25  O   UNL     1      25.519  44.672  54.444  1.00  0.00    -0.266 OA
ENDBRANCH  13  15
ENDBRANCH   1  10
BRANCH   8  26
HETATM   26  C   UNL     1      22.028  49.399  47.767  1.00  0.00     0.183 C 
BRANCH  26  27
HETATM   27  N   UNL     1      21.612  50.743  48.156  1.00  0.00    -0.371 N 
HETATM   28  H   UNL     1      22.377  51.328  48.487  1.00  0.00     0.161 HD
BRANCH  27  29
HETATM   29  C   UNL     1      20.402  51.023  48.762  1.00  0.00     0.101 A 
HETATM   30  N   UNL     1      19.816  50.168  49.617  1.00  0.00    -0.353 N 
HETATM   31  H   UNL     1      20.349  49.340  49.896  1.00  0.00     0.166 HD
HETATM   32  C   UNL     1      18.615  50.382  50.172  1.00  0.00     0.089 A 
HETATM   33  C   UNL     1      17.904  51.533  49.874  1.00  0.00     0.017 A 
HETATM   34  C   UNL     1      18.465  52.457  49.003  1.00  0.00     0.005 A 
HETATM   35  C   UNL     1      19.716  52.201  48.446  1.00  0.00     0.048 A 
ENDBRANCH  27  29
ENDBRANCH  26  27
ENDBRANCH   8  26
TORSDOF 5
ENDMDL
MODEL 3
REMARK VINA RESULT:      -9.6      3.255     10.141
REMARK  5 active torsions:
REMARK  status: ('A' for Active; 'I' for Inactive)
REMARK       I    between atoms: N_6  and  C_7 
REMARK    1  A    between atoms: C_7  and  C_8 
REMARK    2  A    between atoms: N_11  and  C_12 
REMARK    3  A    between atoms: C_19  and  C_20 
REMARK    4  A    between atoms: C_20  and  N_21 
REMARK    5  A    between atoms: N_21  and  C_22 
ROOT
HETATM    1  C   UNL     1      25.982  45.514  51.943  1.00  0.00     0.719 A 
HETATM    2  N   UNL     1      26.606  44.275  51.848  1.00  0.00    -0.154 N 
HETATM    3  C   UNL     1      27.233  44.077  53.082  1.00  0.00     0.083 A 
HETATM    4  C   UNL     1      27.936  42.857  53.295  1.00  0.00     0.033 A 
HETATM    5  C   UNL     1      28.020  41.958  52.297  1.00  0.00     0.004 A 
HETATM    6  C   UNL     1      27.421  42.211  51.002  1.00  0.00     0.018 A 
HETATM    7  C   UNL     1      26.736  43.349  50.806  1.00  0.00     0.115 A 
HETATM    8  C   UNL     1      27.037  45.230  53.809  1.00  0.00     0.099 A 
HETATM    9  N   UNL     1      26.250  46.124  53.095  1.00  0.00    -0.064 NA
ENDROOT
BRANCH   1  10
HETATM   10  N   UNL     1      25.176  46.122  50.971  1.00  0.00    -0.147 N 
HETATM   11  C   UNL     1      24.490  45.436  49.990  1.00  0.00     0.233 A 
HETATM   12  N   UNL     1      23.784  46.219  49.208  1.00  0.00    -0.236 NA
HETATM   13  C   UNL     1      24.009  47.497  49.671  1.00  0.00     0.142 A 
HETATM   14  C   UNL     1      24.902  47.445  50.730  1.00  0.00     0.153 A 
BRANCH  13  15
HETATM   15  C   UNL     1      23.448  48.739  49.112  1.00  0.00     0.273 C 
HETATM   16  N   UNL     1      22.161  48.737  48.543  1.00  0.00    -0.345 N 
HETATM   17  C   UNL     1      21.774  49.929  47.786  1.00  0.00     0.154 C 
HETATM   18  C   UNL     1      21.182  47.673  48.743  1.00  0.00     0.128 C 
HETATM   19  C   UNL     1      21.117  50.988  48.681  1.00  0.00     0.254 C 
HETATM   20  N   UNL     1      19.677  50.631  49.043  1.00  0.00    -0.073 N 
HETATM   21  C   UNL     1      19.065  51.740  49.872  1.00  0.00     0.269 C 
HETATM   22  H   UNL     1      19.138  50.612  48.166  1.00  0.00     0.279 HD
HETATM   23  C   UNL     1      19.488  49.290  49.723  1.00  0.00     0.236 C 
HETATM   24  C   UNL     1      19.726  48.138  48.752  1.00  0.00     0.048 C 
HETATM   25  O   UNL     1      24.090  49.789  49.162  1.00  0.00    -0.266 OA
ENDBRANCH  13  15
ENDBRANCH   1  10
BRANCH   8  26
HETATM   26  C   UNL     1      27.558  45.593  55.170  1.00  0.00     0.183 C 
BRANCH  26  27
HETATM   27  N   UNL     1      28.984  45.882  55.288  1.00  0.00    -0.371 N 
HETATM   28  H   UNL     1      29.406  46.215  54.423  1.00  0.00     0.161 HD
BRANCH  27  29
HETATM   29  C   UNL     1      29.849  45.149  56.078  1.00  0.00     0.101 A 
HETATM   30  N   UNL     1      30.186  45.537  57.319  1.00  0.00    -0.353 N 
HETATM   31  H   UNL     1      29.693  46.344  57.712  1.00  0.00     0.166 HD
HETATM   32  C   UNL     1      31.069  44.882  58.085  1.00  0.00     0.089 A 
HETATM   33  C   UNL     1      31.694  43.741  57.610  1.00  0.00     0.017 A 
HETATM   34  C   UNL     1      31.378  43.288  56.337  1.00  0.00     0.005 A 
HETATM   35  C   UNL     1      30.453  43.994  55.569  1.00  0.00     0.048 A 
ENDBRANCH  27  29
ENDBRANCH  26  27
ENDBRANCH   8  26
TORSDOF 5
ENDMDL
MODEL 4
REMARK VINA RESULT:      -9.3      3.023      9.903
REMARK  5 active torsions:
REMARK  status: ('A' for Active; 'I' for Inactive)
REMARK       I    between atoms: N_6  and  C_7 
REMARK    1  A    between atoms: C_7  and  C_8 
REMARK    2  A    between atoms: N_11  and  C_12 
REMARK    3  A    between atoms: C_19  and  C_20 
REMARK    4  A    between atoms: C_20  and  N_21 
REMARK    5  A    between atoms: N_21  and  C_22 
ROOT
HETATM    1  C   UNL     1      24.820  44.673  50.751  1.00  0.00     0.719 A 
HETATM    2  N   UNL     1      25.719  43.654  50.456  1.00  0.00    -0.154 N 
HETATM    3  C   UNL     1      26.395  43.394  51.652  1.00  0.00     0.083 A 
HETATM    4  C   UNL     1      27.371  42.357  51.665  1.00  0.00     0.033 A 
HETATM    5  C   UNL     1      27.651  41.697  50.526  1.00  0.00     0.004 A 
HETATM    6  C   UNL     1      26.989  42.027  49.280  1.00  0.00     0.018 A 
HETATM    7  C   UNL     1      26.050  42.988  49.271  1.00  0.00     0.115 A 
HETATM    8  C   UNL     1      25.941  44.319  52.566  1.00  0.00     0.099 A 
HETATM    9  N   UNL     1      24.953  45.114  52.000  1.00  0.00    -0.064 NA
ENDROOT
BRANCH   1  10
HETATM   10  N   UNL     1      23.877  45.236  49.880  1.00  0.00    -0.147 N 
HETATM   11  C   UNL     1      22.979  44.505  49.129  1.00  0.00     0.233 A 
HETATM   12  N   UNL     1      22.181  45.254  48.404  1.00  0.00    -0.236 NA
HETATM   13  C   UNL     1      22.560  46.553  48.666  1.00  0.00     0.142 A 
HETATM   14  C   UNL     1      23.635  46.544  49.541  1.00  0.00     0.153 A 
BRANCH  13  15
HETATM   15  C   UNL     1      21.971  47.768  48.078  1.00  0.00     0.273 C 
HETATM   16  N   UNL     1      20.583  47.983  48.149  1.00  0.00    -0.345 N 
HETATM   17  C   UNL     1      20.042  49.071  47.331  1.00  0.00     0.154 C 
HETATM   18  C   UNL     1      19.689  47.257  49.044  1.00  0.00     0.128 C 
HETATM   19  C   UNL     1      20.047  50.409  48.081  1.00  0.00     0.254 C 
HETATM   20  N   UNL     1      18.927  50.500  49.114  1.00  0.00    -0.073 N 
HETATM   21  C   UNL     1      18.946  51.861  49.775  1.00  0.00     0.269 C 
HETATM   22  H   UNL     1      18.035  50.453  48.603  1.00  0.00     0.279 HD
HETATM   23  C   UNL     1      18.912  49.401  50.158  1.00  0.00     0.236 C 
HETATM   24  C   UNL     1      18.495  48.066  49.551  1.00  0.00     0.048 C 
HETATM   25  O   UNL     1      22.692  48.613  47.546  1.00  0.00    -0.266 OA
ENDBRANCH  13  15
ENDBRANCH   1  10
BRANCH   8  26
HETATM   26  C   UNL     1      26.381  44.546  53.984  1.00  0.00     0.183 C 
BRANCH  26  27
HETATM   27  N   UNL     1      27.577  45.356  54.193  1.00  0.00    -0.371 N 
HETATM   28  H   UNL     1      27.792  45.978  53.415  1.00  0.00     0.161 HD
BRANCH  27  29
HETATM   29  C   UNL     1      28.698  44.904  54.863  1.00  0.00     0.101 A 
HETATM   30  N   UNL     1      29.243  45.585  55.885  1.00  0.00    -0.353 N 
HETATM   31  H   UNL     1      28.735  46.403  56.231  1.00  0.00     0.166 HD
HETATM   32  C   UNL     1      30.364  45.205  56.514  1.00  0.00     0.089 A 
HETATM   33  C   UNL     1      31.031  44.057  56.118  1.00  0.00     0.017 A 
HETATM   34  C   UNL     1      30.509  43.309  55.072  1.00  0.00     0.005 A 
HETATM   35  C   UNL     1      29.340  43.733  54.443  1.00  0.00     0.048 A 
ENDBRANCH  27  29
ENDBRANCH  26  27
ENDBRANCH   8  26
TORSDOF 5
ENDMDL
MODEL 5
REMARK VINA RESULT:      -9.3      2.593      9.627
REMARK  5 active torsions:
REMARK  status: ('A' for Active; 'I' for Inactive)
REMARK       I    between atoms: N_6  and  C_7 
REMARK    1  A    between atoms: C_7  and  C_8 
REMARK    2  A    between atoms: N_11  and  C_12 
REMARK    3  A    between atoms: C_19  and  C_20 
REMARK    4  A    between atoms: C_20  and  N_21 
REMARK    5  A    between atoms: N_21  and  C_22 
ROOT
HETATM    1  C   UNL     1      26.437  43.049  50.856  1.00  0.00     0.719 A 
HETATM    2  N   UNL     1      26.959  42.080  50.006  1.00  0.00    -0.154 N 
HETATM    3  C   UNL     1      27.744  41.255  50.817  1.00  0.00     0.083 A 
HETATM    4  C   UNL     1      28.389  40.135  50.218  1.00  0.00     0.033 A 
HETATM    5  C   UNL     1      28.269  39.932  48.893  1.00  0.00     0.004 A 
HETATM    6  C   UNL     1      27.506  40.837  48.057  1.00  0.00     0.018 A 
HETATM    7  C   UNL     1      26.876  41.880  48.623  1.00  0.00     0.115 A 
HETATM    8  C   UNL     1      27.731  41.816  52.074  1.00  0.00     0.099 A 
HETATM    9  N   UNL     1      26.909  42.935  52.096  1.00  0.00    -0.064 NA
ENDROOT
BRANCH   1  10
HETATM   10  N   UNL     1      25.539  44.069  50.513  1.00  0.00    -0.147 N 
HETATM   11  C   UNL     1      24.190  43.877  50.298  1.00  0.00     0.233 A 
HETATM   12  N   UNL     1      23.549  44.985  50.009  1.00  0.00    -0.236 NA
HETATM   13  C   UNL     1      24.508  45.975  50.017  1.00  0.00     0.142 A 
HETATM   14  C   UNL     1      25.744  45.407  50.283  1.00  0.00     0.153 A 
BRANCH  13  15
HETATM   15  C   UNL     1      24.289  47.403  49.735  1.00  0.00     0.273 C 
HETATM   16  N   UNL     1      23.304  47.796  48.810  1.00  0.00    -0.345 N 
HETATM   17  C   UNL     1      23.314  49.199  48.392  1.00  0.00     0.154 C 
HETATM   18  C   UNL     1      22.241  46.920  48.329  1.00  0.00     0.128 C 
HETATM   19  C   UNL     1      22.459  50.078  49.315  1.00  0.00     0.254 C 
HETATM   20  N   UNL     1      20.964  49.911  49.055  1.00  0.00    -0.073 N 
HETATM   21  C   UNL     1      20.178  50.846  49.948  1.00  0.00     0.269 C 
HETATM   22  H   UNL     1      20.784  50.232  48.093  1.00  0.00     0.279 HD
HETATM   23  C   UNL     1      20.436  48.495  49.168  1.00  0.00     0.236 C 
HETATM   24  C   UNL     1      20.924  47.627  48.013  1.00  0.00     0.048 C 
HETATM   25  O   UNL     1      24.947  48.262  50.325  1.00  0.00    -0.266 OA
ENDBRANCH  13  15
ENDBRANCH   1  10
BRANCH   8  26
HETATM   26  C   UNL     1      28.466  41.388  53.312  1.00  0.00     0.183 C 
BRANCH  26  27
HETATM   27  N   UNL     1      29.684  42.117  53.655  1.00  0.00    -0.371 N 
HETATM   28  H   UNL     1      30.505  41.521  53.745  1.00  0.00     0.161 HD
BRANCH  27  29
HETATM   29  C   UNL     1      29.706  43.216  54.492  1.00  0.00     0.101 A 
HETATM   30  N   UNL     1      28.828  44.225  54.369  1.00  0.00    -0.353 N 
HETATM   31  H   UNL     1      28.062  44.106  53.701  1.00  0.00     0.166 HD
HETATM   32  C   UNL     1      28.862  45.332  55.124  1.00  0.00     0.089 A 
HETATM   33  C   UNL     1      29.841  45.487  56.092  1.00  0.00     0.017 A 
HETATM   34  C   UNL     1      30.770  44.472  56.269  1.00  0.00     0.005 A 
HETATM   35  C   UNL     1      30.703  43.334  55.467  1.00  0.00     0.048 A 
ENDBRANCH  27  29
ENDBRANCH  26  27
ENDBRANCH   8  26
TORSDOF 5
ENDMDL
MODEL 6
REMARK VINA RESULT:      -9.3      3.729      9.951
REMARK  5 active torsions:
REMARK  status: ('A' for Active; 'I' for Inactive)
REMARK       I    between atoms: N_6  and  C_7 
REMARK    1  A    between atoms: C_7  and  C_8 
REMARK    2  A    between atoms: N_11  and  C_12 
REMARK    3  A    between atoms: C_19  and  C_20 
REMARK    4  A    between atoms: C_20  and  N_21 
REMARK    5  A    between atoms: N_21  and  C_22 
ROOT
HETATM    1  C   UNL     1      23.723  47.679  49.251  1.00  0.00     0.719 A 
HETATM    2  N   UNL     1      24.816  48.493  48.976  1.00  0.00    -0.154 N 
HETATM    3  C   UNL     1      25.915  47.851  49.552  1.00  0.00     0.083 A 
HETATM    4  C   UNL     1      27.201  48.446  49.401  1.00  0.00     0.033 A 
HETATM    5  C   UNL     1      27.315  49.623  48.758  1.00  0.00     0.004 A 
HETATM    6  C   UNL     1      26.154  50.307  48.227  1.00  0.00     0.018 A 
HETATM    7  C   UNL     1      24.944  49.737  48.346  1.00  0.00     0.115 A 
HETATM    8  C   UNL     1      25.422  46.750  50.216  1.00  0.00     0.099 A 
HETATM    9  N   UNL     1      24.051  46.643  50.020  1.00  0.00    -0.064 NA
ENDROOT
BRANCH   1  10
HETATM   10  N   UNL     1      22.403  47.877  48.825  1.00  0.00    -0.147 N 
HETATM   11  C   UNL     1      21.908  47.458  47.607  1.00  0.00     0.233 A 
HETATM   12  N   UNL     1      20.636  47.737  47.441  1.00  0.00    -0.236 NA
HETATM   13  C   UNL     1      20.251  48.386  48.595  1.00  0.00     0.142 A 
HETATM   14  C   UNL     1      21.348  48.514  49.431  1.00  0.00     0.153 A 
BRANCH  13  15
HETATM   15  C   UNL     1      18.909  48.918  48.889  1.00  0.00     0.273 C 
HETATM   16  N   UNL     1      18.715  50.304  49.022  1.00  0.00    -0.345 N 
HETATM   17  C   UNL     1      17.425  50.740  49.561  1.00  0.00     0.154 C 
HETATM   18  C   UNL     1      19.673  51.310  48.576  1.00  0.00     0.128 C 
HETATM   19  C   UNL     1      16.380  50.941  48.455  1.00  0.00     0.254 C 
HETATM   20  N   UNL     1      16.601  52.235  47.676  1.00  0.00    -0.073 N 
HETATM   21  C   UNL     1      15.507  52.407  46.644  1.00  0.00     0.269 C 
HETATM   22  H   UNL     1      16.481  53.014  48.338  1.00  0.00     0.279 HD
HETATM   23  C   UNL     1      17.966  52.386  47.036  1.00  0.00     0.236 C 
HETATM   24  C   UNL     1      19.048  52.615  48.086  1.00  0.00     0.048 C 
HETATM   25  O   UNL     1      17.947  48.155  48.993  1.00  0.00    -0.266 OA
ENDBRANCH  13  15
ENDBRANCH   1  10
BRANCH   8  26
HETATM   26  C   UNL     1      26.149  45.751  51.068  1.00  0.00     0.183 C 
BRANCH  26  27
HETATM   27  N   UNL     1      25.825  45.721  52.491  1.00  0.00    -0.371 N 
HETATM   28  H   UNL     1      24.878  46.033  52.702  1.00  0.00     0.161 HD
BRANCH  27  29
HETATM   29  C   UNL     1      26.736  46.013  53.489  1.00  0.00     0.101 A 
HETATM   30  N   UNL     1      27.576  45.089  53.982  1.00  0.00    -0.353 N 
HETATM   31  H   UNL     1      27.600  44.177  53.518  1.00  0.00     0.166 HD
HETATM   32  C   UNL     1      28.427  45.325  54.990  1.00  0.00     0.089 A 
HETATM   33  C   UNL     1      28.473  46.575  55.587  1.00  0.00     0.017 A 
HETATM   34  C   UNL     1      27.632  47.572  55.112  1.00  0.00     0.005 A 
HETATM   35  C   UNL     1      26.762  47.291  54.060  1.00  0.00     0.048 A 
ENDBRANCH  27  29
ENDBRANCH  26  27
ENDBRANCH   8  26
TORSDOF 5
ENDMDL
MODEL 7
REMARK VINA RESULT:      -9.3      3.109      9.900
REMARK  5 active torsions:
REMARK  status: ('A' for Active; 'I' for Inactive)
REMARK       I    between atoms: N_6  and  C_7 
REMARK    1  A    between atoms: C_7  and  C_8 
REMARK    2  A    between atoms: N_11  and  C_12 
REMARK    3  A    between atoms: C_19  and  C_20 
REMARK    4  A    between atoms: C_20  and  N_21 
REMARK    5  A    between atoms: N_21  and  C_22 
ROOT
HETATM    1  C   UNL     1      25.159  46.829  50.699  1.00  0.00     0.719 A 
HETATM    2  N   UNL     1      25.817  45.613  50.563  1.00  0.00    -0.154 N 
HETATM    3  C   UNL     1      26.486  45.412  51.774  1.00  0.00     0.083 A 
HETATM    4  C   UNL     1      27.231  44.210  51.943  1.00  0.00     0.033 A 
HETATM    5  C   UNL     1      27.313  43.333  50.925  1.00  0.00     0.004 A 
HETATM    6  C   UNL     1      26.669  43.590  49.653  1.00  0.00     0.018 A 
HETATM    7  C   UNL     1      25.945  44.711  49.500  1.00  0.00     0.115 A 
HETATM    8  C   UNL     1      26.277  46.545  52.528  1.00  0.00     0.099 A 
HETATM    9  N   UNL     1      25.442  47.427  51.855  1.00  0.00    -0.064 NA
ENDROOT
BRANCH   1  10
HETATM   10  N   UNL     1      24.306  47.430  49.763  1.00  0.00    -0.147 N 
HETATM   11  C   UNL     1      24.579  48.615  49.110  1.00  0.00     0.233 A 
HETATM   12  N   UNL     1      23.639  48.967  48.263  1.00  0.00    -0.236 NA
HETATM   13  C   UNL     1      22.678  47.984  48.353  1.00  0.00     0.142 A 
HETATM   14  C   UNL     1      23.065  47.058  49.309  1.00  0.00     0.153 A 
BRANCH  13  15
HETATM   15  C   UNL     1      21.410  47.934  47.606  1.00  0.00     0.273 C 
HETATM   16  N   UNL     1      20.255  48.535  48.137  1.00  0.00    -0.345 N 
HETATM   17  C   UNL     1      18.987  48.229  47.471  1.00  0.00     0.154 C 
HETATM   18  C   UNL     1      20.266  49.497  49.233  1.00  0.00     0.128 C 
HETATM   19  C   UNL     1      18.687  49.213  46.332  1.00  0.00     0.254 C 
HETATM   20  N   UNL     1      18.202  50.566  46.846  1.00  0.00    -0.073 N 
HETATM   21  C   UNL     1      17.864  51.469  45.679  1.00  0.00     0.269 C 
HETATM   22  H   UNL     1      17.312  50.405  47.337  1.00  0.00     0.279 HD
HETATM   23  C   UNL     1      19.134  51.270  47.812  1.00  0.00     0.236 C 
HETATM   24  C   UNL     1      19.171  50.561  49.162  1.00  0.00     0.048 C 
HETATM   25  O   UNL     1      21.361  47.389  46.502  1.00  0.00    -0.266 OA
ENDBRANCH  13  15
ENDBRANCH   1  10
BRANCH   8  26
HETATM   26  C   UNL     1      26.826  46.899  53.880  1.00  0.00     0.183 C 
BRANCH  26  27
HETATM   27  N   UNL     1      26.994  45.813  54.841  1.00  0.00    -0.371 N 
HETATM   28  H   UNL     1      26.237  45.745  55.519  1.00  0.00     0.161 HD
BRANCH  27  29
HETATM   29  C   UNL     1      28.221  45.421  55.344  1.00  0.00     0.101 A 
HETATM   30  N   UNL     1      28.860  46.120  56.295  1.00  0.00    -0.353 N 
HETATM   31  H   UNL     1      28.358  46.903  56.724  1.00  0.00     0.166 HD
HETATM   32  C   UNL     1      30.076  45.801  56.758  1.00  0.00     0.089 A 
HETATM   33  C   UNL     1      30.748  44.699  56.254  1.00  0.00     0.017 A 
HETATM   34  C   UNL     1      30.132  43.934  55.274  1.00  0.00     0.005 A 
HETATM   35  C   UNL     1      28.865  44.295  54.817  1.00  0.00     0.048 A 
ENDBRANCH  27  29
ENDBRANCH  26  27
ENDBRANCH   8  26
TORSDOF 5
ENDMDL
MODEL 8
REMARK VINA RESULT:      -9.1      2.403      9.315
REMARK  5 active torsions:
REMARK  status: ('A' for Active; 'I' for Inactive)
REMARK       I    between atoms: N_6  and  C_7 
REMARK    1  A    between atoms: C_7  and  C_8 
REMARK    2  A    between atoms: N_11  and  C_12 
REMARK    3  A    between atoms: C_19  and  C_20 
REMARK    4  A    between atoms: C_20  and  N_21 
REMARK    5  A    between atoms: N_21  and  C_22 
ROOT
HETATM    1  C   UNL     1      26.444  45.474  51.711  1.00  0.00     0.719 A 
HETATM    2  N   UNL     1      26.911  45.717  52.997  1.00  0.00    -0.154 N 
HETATM    3  C   UNL     1      27.437  44.500  53.439  1.00  0.00     0.083 A 
HETATM    4  C   UNL     1      28.028  44.450  54.735  1.00  0.00     0.033 A 
HETATM    5  C   UNL     1      28.018  45.550  55.510  1.00  0.00     0.004 A 
HETATM    6  C   UNL     1      27.406  46.784  55.061  1.00  0.00     0.018 A 
HETATM    7  C   UNL     1      26.871  46.841  53.830  1.00  0.00     0.115 A 
HETATM    8  C   UNL     1      27.179  43.579  52.449  1.00  0.00     0.099 A 
HETATM    9  N   UNL     1      26.562  44.193  51.367  1.00  0.00    -0.064 NA
ENDROOT
BRANCH   1  10
HETATM   10  N   UNL     1      25.880  46.411  50.833  1.00  0.00    -0.147 N 
HETATM   11  C   UNL     1      26.545  46.969  49.760  1.00  0.00     0.233 A 
HETATM   12  N   UNL     1      25.804  47.805  49.071  1.00  0.00    -0.236 NA
HETATM   13  C   UNL     1      24.583  47.825  49.710  1.00  0.00     0.142 A 
HETATM   14  C   UNL     1      24.641  47.001  50.823  1.00  0.00     0.153 A 
BRANCH  13  15
HETATM   15  C   UNL     1      23.411  48.628  49.325  1.00  0.00     0.273 C 
HETATM   16  N   UNL     1      22.495  48.131  48.380  1.00  0.00    -0.345 N 
HETATM   17  C   UNL     1      21.505  49.076  47.860  1.00  0.00     0.154 C 
HETATM   18  C   UNL     1      22.423  46.732  47.971  1.00  0.00     0.128 C 
HETATM   19  C   UNL     1      20.235  49.107  48.721  1.00  0.00     0.254 C 
HETATM   20  N   UNL     1      19.342  47.892  48.483  1.00  0.00    -0.073 N 
HETATM   21  C   UNL     1      18.081  48.010  49.311  1.00  0.00     0.269 C 
HETATM   22  H   UNL     1      19.033  47.928  47.502  1.00  0.00     0.279 HD
HETATM   23  C   UNL     1      20.001  46.545  48.704  1.00  0.00     0.236 C 
HETATM   24  C   UNL     1      21.021  46.241  47.612  1.00  0.00     0.048 C 
HETATM   25  O   UNL     1      23.211  49.727  49.846  1.00  0.00    -0.266 OA
ENDBRANCH  13  15
ENDBRANCH   1  10
BRANCH   8  26
HETATM   26  C   UNL     1      27.458  42.103  52.429  1.00  0.00     0.183 C 
BRANCH  26  27
HETATM   27  N   UNL     1      26.539  41.258  51.673  1.00  0.00    -0.371 N 
HETATM   28  H   UNL     1      25.800  40.846  52.241  1.00  0.00     0.161 HD
BRANCH  27  29
HETATM   29  C   UNL     1      26.931  40.460  50.615  1.00  0.00     0.101 A 
HETATM   30  N   UNL     1      26.337  39.285  50.348  1.00  0.00    -0.353 N 
HETATM   31  H   UNL     1      25.503  39.043  50.890  1.00  0.00     0.166 HD
HETATM   32  C   UNL     1      26.734  38.461  49.369  1.00  0.00     0.089 A 
HETATM   33  C   UNL     1      27.812  38.798  48.566  1.00  0.00     0.017 A 
HETATM   34  C   UNL     1      28.459  40.005  48.791  1.00  0.00     0.005 A 
HETATM   35  C   UNL     1      28.018  40.838  49.817  1.00  0.00     0.048 A 
ENDBRANCH  27  29
ENDBRANCH  26  27
ENDBRANCH   8  26
TORSDOF 5
ENDMDL
MODEL 9
REMARK VINA RESULT:      -9.0      3.499      9.535
REMARK  5 active torsions:
REMARK  status: ('A' for Active; 'I' for Inactive)
REMARK       I    between atoms: N_6  and  C_7 
REMARK    1  A    between atoms: C_7  and  C_8 
REMARK    2  A    between atoms: N_11  and  C_12 
REMARK    3  A    between atoms: C_19  and  C_20 
REMARK    4  A    between atoms: C_20  and  N_21 
REMARK    5  A    between atoms: N_21  and  C_22 
ROOT
HETATM    1  C   UNL     1      24.020  47.775  49.550  1.00  0.00     0.719 A 
HETATM    2  N   UNL     1      25.184  48.460  49.223  1.00  0.00    -0.154 N 
HETATM    3  C   UNL     1      26.175  47.931  50.056  1.00  0.00     0.083 A 
HETATM    4  C   UNL     1      27.504  48.425  49.921  1.00  0.00     0.033 A 
HETATM    5  C   UNL     1      27.759  49.412  49.043  1.00  0.00     0.004 A 
HETATM    6  C   UNL     1      26.705  49.995  48.237  1.00  0.00     0.018 A 
HETATM    7  C   UNL     1      25.456  49.514  48.343  1.00  0.00     0.115 A 
HETATM    8  C   UNL     1      25.547  47.037  50.893  1.00  0.00     0.099 A 
HETATM    9  N   UNL     1      24.199  46.938  50.570  1.00  0.00    -0.064 NA
ENDROOT
BRANCH   1  10
HETATM   10  N   UNL     1      22.766  47.916  48.941  1.00  0.00    -0.147 N 
HETATM   11  C   UNL     1      21.954  49.024  49.077  1.00  0.00     0.233 A 
HETATM   12  N   UNL     1      20.837  48.934  48.395  1.00  0.00    -0.236 NA
HETATM   13  C   UNL     1      20.885  47.704  47.775  1.00  0.00     0.142 A 
HETATM   14  C   UNL     1      22.051  47.055  48.145  1.00  0.00     0.153 A 
BRANCH  13  15
HETATM   15  C   UNL     1      19.848  47.128  46.902  1.00  0.00     0.273 C 
HETATM   16  N   UNL     1      18.623  46.703  47.447  1.00  0.00    -0.345 N 
HETATM   17  C   UNL     1      17.751  45.915  46.574  1.00  0.00     0.154 C 
HETATM   18  C   UNL     1      18.148  47.077  48.775  1.00  0.00     0.128 C 
HETATM   19  C   UNL     1      16.806  46.804  45.756  1.00  0.00     0.254 C 
HETATM   20  N   UNL     1      15.646  47.342  46.590  1.00  0.00    -0.073 N 
HETATM   21  C   UNL     1      14.717  48.157  45.716  1.00  0.00     0.269 C 
HETATM   22  H   UNL     1      15.092  46.532  46.901  1.00  0.00     0.279 HD
HETATM   23  C   UNL     1      16.040  48.126  47.826  1.00  0.00     0.236 C 
HETATM   24  C   UNL     1      16.630  47.213  48.896  1.00  0.00     0.048 C 
HETATM   25  O   UNL     1      20.037  47.039  45.687  1.00  0.00    -0.266 OA
ENDBRANCH  13  15
ENDBRANCH   1  10
BRANCH   8  26
HETATM   26  C   UNL     1      26.117  46.240  52.031  1.00  0.00     0.183 C 
BRANCH  26  27
HETATM   27  N   UNL     1      26.763  44.973  51.705  1.00  0.00    -0.371 N 
HETATM   28  H   UNL     1      26.148  44.309  51.235  1.00  0.00     0.161 HD
BRANCH  27  29
HETATM   29  C   UNL     1      27.714  44.371  52.507  1.00  0.00     0.101 A 
HETATM   30  N   UNL     1      27.872  44.702  53.799  1.00  0.00    -0.353 N 
HETATM   31  H   UNL     1      27.187  45.342  54.209  1.00  0.00     0.166 HD
HETATM   32  C   UNL     1      28.824  44.182  54.585  1.00  0.00     0.089 A 
HETATM   33  C   UNL     1      29.717  43.252  54.078  1.00  0.00     0.017 A 
HETATM   34  C   UNL     1      29.596  42.866  52.751  1.00  0.00     0.005 A 
HETATM   35  C   UNL     1      28.592  43.426  51.963  1.00  0.00     0.048 A 
ENDBRANCH  27  29
ENDBRANCH  26  27
ENDBRANCH   8  26
TORSDOF 5
ENDMDL
MODEL 10
REMARK VINA RESULT:      -8.9      2.795      3.651
REMARK  5 active torsions:
REMARK  status: ('A' for Active; 'I' for Inactive)
REMARK       I    between atoms: N_6  and  C_7 
REMARK    1  A    between atoms: C_7  and  C_8 
REMARK    2  A    between atoms: N_11  and  C_12 
REMARK    3  A    between atoms: C_19  and  C_20 
REMARK    4  A    between atoms: C_20  and  N_21 
REMARK    5  A    between atoms: N_21  and  C_22 
ROOT
HETATM    1  C   UNL     1      23.846  46.977  49.516  1.00  0.00     0.719 A 
HETATM    2  N   UNL     1      23.718  48.228  48.925  1.00  0.00    -0.154 N 
HETATM    3  C   UNL     1      22.484  48.206  48.267  1.00  0.00     0.083 A 
HETATM    4  C   UNL     1      22.060  49.383  47.587  1.00  0.00     0.033 A 
HETATM    5  C   UNL     1      22.870  50.458  47.554  1.00  0.00     0.004 A 
HETATM    6  C   UNL     1      24.174  50.438  48.184  1.00  0.00     0.018 A 
HETATM    7  C   UNL     1      24.567  49.338  48.847  1.00  0.00     0.115 A 
HETATM    8  C   UNL     1      21.986  46.931  48.414  1.00  0.00     0.099 A 
HETATM    9  N   UNL     1      22.838  46.167  49.201  1.00  0.00    -0.064 NA
ENDROOT
BRANCH   1  10
HETATM   10  N   UNL     1      24.896  46.541  50.336  1.00  0.00    -0.147 N 
HETATM   11  C   UNL     1      25.970  45.795  49.895  1.00  0.00     0.233 A 
HETATM   12  N   UNL     1      26.837  45.525  50.842  1.00  0.00    -0.236 NA
HETATM   13  C   UNL     1      26.324  46.104  51.983  1.00  0.00     0.142 A 
HETATM   14  C   UNL     1      25.106  46.693  51.685  1.00  0.00     0.153 A 
BRANCH  13  15
HETATM   15  C   UNL     1      26.928  46.066  53.326  1.00  0.00     0.273 C 
HETATM   16  N   UNL     1      27.157  44.833  53.961  1.00  0.00    -0.345 N 
HETATM   17  C   UNL     1      27.518  44.879  55.380  1.00  0.00     0.154 C 
HETATM   18  C   UNL     1      27.146  43.546  53.273  1.00  0.00     0.128 C 
HETATM   19  C   UNL     1      29.034  44.995  55.582  1.00  0.00     0.254 C 
HETATM   20  N   UNL     1      29.755  43.670  55.343  1.00  0.00    -0.073 N 
HETATM   21  C   UNL     1      31.235  43.833  55.617  1.00  0.00     0.269 C 
HETATM   22  H   UNL     1      29.414  43.005  56.050  1.00  0.00     0.279 HD
HETATM   23  C   UNL     1      29.531  43.043  53.981  1.00  0.00     0.236 C 
HETATM   24  C   UNL     1      28.110  42.507  53.845  1.00  0.00     0.048 C 
HETATM   25  O   UNL     1      27.258  47.112  53.889  1.00  0.00    -0.266 OA
ENDBRANCH  13  15
ENDBRANCH   1  10
BRANCH   8  26
HETATM   26  C   UNL     1      20.732  46.331  47.846  1.00  0.00     0.183 C 
BRANCH  26  27
HETATM   27  N   UNL     1      19.496  46.522  48.599  1.00  0.00    -0.371 N 
HETATM   28  H   UNL     1      18.718  45.960  48.258  1.00  0.00     0.161 HD
BRANCH  27  29
HETATM   29  C   UNL     1      19.107  47.736  49.133  1.00  0.00     0.101 A 
HETATM   30  N   UNL     1      19.145  47.981  50.453  1.00  0.00    -0.353 N 
HETATM   31  H   UNL     1      19.580  47.275  51.052  1.00  0.00     0.166 HD
HETATM   32  C   UNL     1      18.717  49.124  51.006  1.00  0.00     0.089 A 
HETATM   33  C   UNL     1      18.196  50.132  50.211  1.00  0.00     0.017 A 
HETATM   34  C   UNL     1      18.139  49.937  48.838  1.00  0.00     0.005 A 
HETATM   35  C   UNL     1      18.595  48.736  48.298  1.00  0.00     0.048 A 
ENDBRANCH  27  29
ENDBRANCH  26  27
ENDBRANCH   8  26
TORSDOF 5
ENDMDL
