MODEL 1
REMARK VINA RESULT:      -8.8      0.000      0.000
REMARK  9 active torsions:
REMARK  status: ('A' for Active; 'I' for Inactive)
REMARK    1  A    between atoms: N_2  and  C_4 
REMARK    2  A    between atoms: N_2  and  C_10 
REMARK    3  A    between atoms: C_10  and  C_11 
REMARK    4  A    between atoms: N_12  and  C_13 
REMARK    5  A    between atoms: C_17  and  N_18 
REMARK    6  A    between atoms: C_21  and  C_22 
REMARK       I    between atoms: C_22  and  N_23 
REMARK    7  A    between atoms: N_23  and  N_24 
REMARK    8  A    between atoms: C_25  and  C_26 
REMARK    9  A    between atoms: C_27  and  O_28 
ROOT
HETATM    1  C   UNL     1      21.459  47.582  48.484  1.00  0.00     0.102 A 
HETATM    2  N   UNL     1      21.003  46.800  47.411  1.00  0.00    -0.191 N 
HETATM    3  N   UNL     1      22.053  46.096  46.910  1.00  0.00    -0.058 NA
HETATM    4  N   UNL     1      23.110  46.280  47.677  1.00  0.00    -0.124 NA
HETATM    5  C   UNL     1      22.775  47.161  48.662  1.00  0.00     0.176 A 
ENDROOT
BRANCH   5   6
HETATM    6  C   UNL     1      23.720  47.568  49.691  1.00  0.00     0.294 C 
HETATM    7  N   UNL     1      24.219  46.530  50.456  1.00  0.00    -0.242 N 
HETATM    8  H   UNL     1      23.905  45.575  50.293  1.00  0.00     0.192 HD
HETATM    9  O   UNL     1      24.043  48.749  49.813  1.00  0.00    -0.264 OA
BRANCH   7  10
HETATM   10  N   UNL     1      25.184  46.795  51.377  1.00  0.00    -0.183 NA
HETATM   11  C   UNL     1      25.220  46.014  52.411  1.00  0.00     0.153 C 
BRANCH  11  12
HETATM   12  C   UNL     1      26.249  46.202  53.457  1.00  0.00     0.018 A 
HETATM   13  C   UNL     1      26.273  47.335  54.283  1.00  0.00     0.077 A 
HETATM   14  C   UNL     1      27.268  47.484  55.245  1.00  0.00     0.039 A 
HETATM   15  C   UNL     1      28.246  46.498  55.390  1.00  0.00     0.026 A 
HETATM   16  C   UNL     1      28.219  45.370  54.570  1.00  0.00     0.035 A 
HETATM   17 CL   UNL     1      29.427  44.158  54.750  1.00  0.00    -0.084 Cl
HETATM   18  C   UNL     1      27.227  45.214  53.602  1.00  0.00     0.039 A 
BRANCH  13  19
HETATM   19  O   UNL     1      25.353  48.344  54.201  1.00  0.00    -0.360 OA
HETATM   20  H   UNL     1      24.878  48.387  55.059  1.00  0.00     0.217 HD
ENDBRANCH  13  19
ENDBRANCH  11  12
ENDBRANCH   7  10
ENDBRANCH   5   6
BRANCH   1  21
HETATM   21  C   UNL     1      20.580  48.532  49.227  1.00  0.00     0.296 C 
BRANCH  21  22
HETATM   22  N   UNL     1      20.395  49.919  48.628  1.00  0.00    -0.065 N 
HETATM   23  C   UNL     1      21.549  50.253  47.705  1.00  0.00     0.270 C 
HETATM   24  H   UNL     1      20.454  50.600  49.411  1.00  0.00     0.280 HD
BRANCH  22  25
HETATM   25  C   UNL     1      19.026  50.126  47.953  1.00  0.00     0.188 C 
HETATM   26  C   UNL     1      17.855  49.935  48.936  1.00  0.00     0.033 C 
HETATM   27  C   UNL     1      17.788  51.013  50.016  1.00  0.00     0.002 C 
HETATM   28  C   UNL     1      17.752  52.415  49.413  1.00  0.00     0.000 C 
HETATM   29  C   UNL     1      18.865  52.643  48.395  1.00  0.00     0.002 C 
HETATM   30  C   UNL     1      18.901  51.536  47.341  1.00  0.00     0.033 C 
ENDBRANCH  22  25
ENDBRANCH  21  22
ENDBRANCH   1  21
BRANCH   2  31
HETATM   31  C   UNL     1      19.697  46.675  46.877  1.00  0.00     0.229 A 
HETATM   32  N   UNL     1      19.363  47.323  45.759  1.00  0.00    -0.081 NA
HETATM   33  O   UNL     1      18.024  46.975  45.559  1.00  0.00    -0.103 OA
HETATM   34  N   UNL     1      17.573  46.125  46.558  1.00  0.00    -0.083 NA
HETATM   35  C   UNL     1      18.606  45.943  47.378  1.00  0.00     0.201 A 
BRANCH  35  36
HETATM   36  N   UNL     1      18.576  45.173  48.478  1.00  0.00    -0.379 N 
HETATM   37  H   UNL     1      18.428  45.602  49.388  1.00  0.00     0.158 HD
HETATM   38  H   UNL     1      18.965  44.233  48.514  1.00  0.00     0.158 HD
ENDBRANCH  35  36
ENDBRANCH   2  31
TORSDOF 9
ENDMDL
MODEL 2
REMARK VINA RESULT:      -8.6      3.990      9.565
REMARK  9 active torsions:
REMARK  status: ('A' for Active; 'I' for Inactive)
REMARK    1  A    between atoms: N_2  and  C_4 
REMARK    2  A    between atoms: N_2  and  C_10 
REMARK    3  A    between atoms: C_10  and  C_11 
REMARK    4  A    between atoms: N_12  and  C_13 
REMARK    5  A    between atoms: C_17  and  N_18 
REMARK    6  A    between atoms: C_21  and  C_22 
REMARK       I    between atoms: C_22  and  N_23 
REMARK    7  A    between atoms: N_23  and  N_24 
REMARK    8  A    between atoms: C_25  and  C_26 
REMARK    9  A    between atoms: C_27  and  O_28 
ROOT
HETATM    1  C   UNL     1      25.896  44.724  51.343  1.00  0.00     0.102 A 
HETATM    2  N   UNL     1      26.935  43.917  50.854  1.00  0.00    -0.191 N 
HETATM    3  N   UNL     1      27.274  44.353  49.611  1.00  0.00    -0.058 NA
HETATM    4  N   UNL     1      26.612  45.460  49.338  1.00  0.00    -0.124 NA
HETATM    5  C   UNL     1      25.780  45.728  50.386  1.00  0.00     0.176 A 
ENDROOT
BRANCH   5   6
HETATM    6  C   UNL     1      24.915  46.898  50.406  1.00  0.00     0.294 C 
HETATM    7  N   UNL     1      23.819  46.817  49.567  1.00  0.00    -0.242 N 
HETATM    8  H   UNL     1      23.680  45.995  48.982  1.00  0.00     0.192 HD
HETATM    9  O   UNL     1      25.163  47.847  51.149  1.00  0.00    -0.264 OA
BRANCH   7  10
HETATM   10  N   UNL     1      22.897  47.816  49.589  1.00  0.00    -0.183 NA
HETATM   11  C   UNL     1      22.605  48.353  48.445  1.00  0.00     0.153 C 
BRANCH  11  12
HETATM   12  C   UNL     1      21.595  49.430  48.359  1.00  0.00     0.018 A 
HETATM   13  C   UNL     1      21.480  50.424  49.340  1.00  0.00     0.077 A 
HETATM   14  C   UNL     1      20.504  51.412  49.231  1.00  0.00     0.039 A 
HETATM   15  C   UNL     1      19.638  51.413  48.138  1.00  0.00     0.026 A 
HETATM   16  C   UNL     1      19.754  50.425  47.160  1.00  0.00     0.035 A 
HETATM   17 CL   UNL     1      18.684  50.428  45.813  1.00  0.00    -0.084 Cl
HETATM   18  C   UNL     1      20.728  49.430  47.262  1.00  0.00     0.039 A 
BRANCH  13  19
HETATM   19  O   UNL     1      22.289  50.490  50.441  1.00  0.00    -0.360 OA
HETATM   20  H   UNL     1      22.018  49.774  51.056  1.00  0.00     0.217 HD
ENDBRANCH  13  19
ENDBRANCH  11  12
ENDBRANCH   7  10
ENDBRANCH   5   6
BRANCH   1  21
HETATM   21  C   UNL     1      25.233  44.483  52.658  1.00  0.00     0.296 C 
BRANCH  21  22
HETATM   22  N   UNL     1      26.001  44.894  53.907  1.00  0.00    -0.065 N 
HETATM   23  C   UNL     1      26.393  43.672  54.711  1.00  0.00     0.270 C 
HETATM   24  H   UNL     1      25.342  45.428  54.508  1.00  0.00     0.280 HD
BRANCH  22  25
HETATM   25  C   UNL     1      27.201  45.817  53.622  1.00  0.00     0.188 C 
HETATM   26  C   UNL     1      26.839  47.308  53.769  1.00  0.00     0.033 C 
HETATM   27  C   UNL     1      26.521  47.716  55.207  1.00  0.00     0.002 C 
HETATM   28  C   UNL     1      27.653  47.348  56.161  1.00  0.00     0.000 C 
HETATM   29  C   UNL     1      28.084  45.890  56.025  1.00  0.00     0.002 C 
HETATM   30  C   UNL     1      28.381  45.524  54.571  1.00  0.00     0.033 C 
ENDBRANCH  22  25
ENDBRANCH  21  22
ENDBRANCH   1  21
BRANCH   2  31
HETATM   31  C   UNL     1      27.601  42.829  51.471  1.00  0.00     0.229 A 
HETATM   32  N   UNL     1      28.796  43.007  52.039  1.00  0.00    -0.081 NA
HETATM   33  O   UNL     1      29.132  41.736  52.514  1.00  0.00    -0.103 OA
HETATM   34  N   UNL     1      28.136  40.814  52.225  1.00  0.00    -0.083 NA
HETATM   35  C   UNL     1      27.190  41.489  51.575  1.00  0.00     0.201 A 
BRANCH  35  36
HETATM   36  N   UNL     1      26.047  40.948  51.122  1.00  0.00    -0.379 N 
HETATM   37  H   UNL     1      26.017  39.960  50.887  1.00  0.00     0.158 HD
HETATM   38  H   UNL     1      25.285  41.498  50.730  1.00  0.00     0.158 HD
ENDBRANCH  35  36
ENDBRANCH   2  31
TORSDOF 9
ENDMDL
MODEL 3
REMARK VINA RESULT:      -8.6      2.428      3.303
REMARK  9 active torsions:
REMARK  status: ('A' for Active; 'I' for Inactive)
REMARK    1  A    between atoms: N_2  and  C_4 
REMARK    2  A    between atoms: N_2  and  C_10 
REMARK    3  A    between atoms: C_10  and  C_11 
REMARK    4  A    between atoms: N_12  and  C_13 
REMARK    5  A    between atoms: C_17  and  N_18 
REMARK    6  A    between atoms: C_21  and  C_22 
REMARK       I    between atoms: C_22  and  N_23 
REMARK    7  A    between atoms: N_23  and  N_24 
REMARK    8  A    between atoms: C_25  and  C_26 
REMARK    9  A    between atoms: C_27  and  O_28 
ROOT
HETATM    1  C   UNL     1      22.153  46.246  48.604  1.00  0.00     0.102 A 
HETATM    2  N   UNL     1      20.775  46.000  48.500  1.00  0.00    -0.191 N 
HETATM    3  N   UNL     1      20.542  44.696  48.812  1.00  0.00    -0.058 NA
HETATM    4  N   UNL     1      21.660  44.140  49.234  1.00  0.00    -0.124 NA
HETATM    5  C   UNL     1      22.658  45.066  49.144  1.00  0.00     0.176 A 
ENDROOT
BRANCH   5   6
HETATM    6  C   UNL     1      24.024  44.772  49.549  1.00  0.00     0.294 C 
HETATM    7  N   UNL     1      24.201  44.627  50.913  1.00  0.00    -0.242 N 
HETATM    8  H   UNL     1      23.414  44.748  51.549  1.00  0.00     0.192 HD
HETATM    9  O   UNL     1      24.912  44.642  48.708  1.00  0.00    -0.264 OA
BRANCH   7  10
HETATM   10  N   UNL     1      25.420  44.254  51.384  1.00  0.00    -0.183 NA
HETATM   11  C   UNL     1      25.614  44.398  52.658  1.00  0.00     0.153 C 
BRANCH  11  12
HETATM   12  C   UNL     1      26.898  43.996  53.272  1.00  0.00     0.018 A 
HETATM   13  C   UNL     1      27.459  42.728  53.063  1.00  0.00     0.077 A 
HETATM   14  C   UNL     1      28.662  42.381  53.672  1.00  0.00     0.039 A 
HETATM   15  C   UNL     1      29.314  43.301  54.494  1.00  0.00     0.026 A 
HETATM   16  C   UNL     1      28.756  44.564  54.699  1.00  0.00     0.035 A 
HETATM   17 CL   UNL     1      29.562  45.696  55.714  1.00  0.00    -0.084 Cl
HETATM   18  C   UNL     1      27.551  44.919  54.094  1.00  0.00     0.039 A 
BRANCH  13  19
HETATM   19  O   UNL     1      26.880  41.772  52.273  1.00  0.00    -0.360 OA
HETATM   20  H   UNL     1      26.006  42.112  51.982  1.00  0.00     0.217 HD
ENDBRANCH  13  19
ENDBRANCH  11  12
ENDBRANCH   7  10
ENDBRANCH   5   6
BRANCH   1  21
HETATM   21  C   UNL     1      22.769  47.562  48.267  1.00  0.00     0.296 C 
BRANCH  21  22
HETATM   22  N   UNL     1      23.043  48.516  49.421  1.00  0.00    -0.065 N 
HETATM   23  C   UNL     1      24.189  48.003  50.269  1.00  0.00     0.270 C 
HETATM   24  H   UNL     1      22.206  48.497  50.038  1.00  0.00     0.280 HD
BRANCH  22  25
HETATM   25  C   UNL     1      23.248  49.979  48.983  1.00  0.00     0.188 C 
HETATM   26  C   UNL     1      22.655  50.258  47.588  1.00  0.00     0.033 C 
HETATM   27  C   UNL     1      21.129  50.177  47.550  1.00  0.00     0.002 C 
HETATM   28  C   UNL     1      20.489  51.090  48.593  1.00  0.00     0.000 C 
HETATM   29  C   UNL     1      21.074  50.887  49.988  1.00  0.00     0.002 C 
HETATM   30  C   UNL     1      22.601  50.965  49.976  1.00  0.00     0.033 C 
ENDBRANCH  22  25
ENDBRANCH  21  22
ENDBRANCH   1  21
BRANCH   2  31
HETATM   31  C   UNL     1      19.722  46.886  48.159  1.00  0.00     0.229 A 
HETATM   32  N   UNL     1      19.388  47.072  46.881  1.00  0.00    -0.081 NA
HETATM   33  O   UNL     1      18.348  48.004  46.940  1.00  0.00    -0.103 OA
HETATM   34  N   UNL     1      18.072  48.364  48.252  1.00  0.00    -0.083 NA
HETATM   35  C   UNL     1      18.927  47.676  49.007  1.00  0.00     0.201 A 
BRANCH  35  36
HETATM   36  N   UNL     1      18.980  47.744  50.348  1.00  0.00    -0.379 N 
HETATM   37  H   UNL     1      18.183  47.436  50.898  1.00  0.00     0.158 HD
HETATM   38  H   UNL     1      19.639  48.333  50.852  1.00  0.00     0.158 HD
ENDBRANCH  35  36
ENDBRANCH   2  31
TORSDOF 9
ENDMDL
MODEL 4
REMARK VINA RESULT:      -8.6      4.061      9.277
REMARK  9 active torsions:
REMARK  status: ('A' for Active; 'I' for Inactive)
REMARK    1  A    between atoms: N_2  and  C_4 
REMARK    2  A    between atoms: N_2  and  C_10 
REMARK    3  A    between atoms: C_10  and  C_11 
REMARK    4  A    between atoms: N_12  and  C_13 
REMARK    5  A    between atoms: C_17  and  N_18 
REMARK    6  A    between atoms: C_21  and  C_22 
REMARK       I    between atoms: C_22  and  N_23 
REMARK    7  A    between atoms: N_23  and  N_24 
REMARK    8  A    between atoms: C_25  and  C_26 
REMARK    9  A    between atoms: C_27  and  O_28 
ROOT
HETATM    1  C   UNL     1      24.690  44.066  50.554  1.00  0.00     0.102 A 
HETATM    2  N   UNL     1      25.730  43.192  50.198  1.00  0.00    -0.191 N 
HETATM    3  N   UNL     1      25.532  42.780  48.917  1.00  0.00    -0.058 NA
HETATM    4  N   UNL     1      24.513  43.438  48.398  1.00  0.00    -0.124 NA
HETATM    5  C   UNL     1      23.993  44.250  49.363  1.00  0.00     0.176 A 
ENDROOT
BRANCH   5   6
HETATM    6  C   UNL     1      22.859  45.126  49.107  1.00  0.00     0.294 C 
HETATM    7  N   UNL     1      23.158  46.476  49.140  1.00  0.00    -0.242 N 
HETATM    8  H   UNL     1      24.104  46.788  49.352  1.00  0.00     0.192 HD
HETATM    9  O   UNL     1      21.750  44.658  48.857  1.00  0.00    -0.264 OA
BRANCH   7  10
HETATM   10  N   UNL     1      22.189  47.373  48.815  1.00  0.00    -0.183 NA
HETATM   11  C   UNL     1      22.375  48.591  49.220  1.00  0.00     0.153 C 
BRANCH  11  12
HETATM   12  C   UNL     1      21.392  49.647  48.895  1.00  0.00     0.018 A 
HETATM   13  C   UNL     1      21.123  50.708  49.771  1.00  0.00     0.077 A 
HETATM   14  C   UNL     1      20.178  51.674  49.437  1.00  0.00     0.039 A 
HETATM   15  C   UNL     1      19.497  51.588  48.222  1.00  0.00     0.026 A 
HETATM   16  C   UNL     1      19.768  50.534  47.350  1.00  0.00     0.035 A 
HETATM   17 CL   UNL     1      18.926  50.429  45.853  1.00  0.00    -0.084 Cl
HETATM   18  C   UNL     1      20.712  49.560  47.677  1.00  0.00     0.039 A 
BRANCH  13  19
HETATM   19  O   UNL     1      21.746  50.861  50.980  1.00  0.00    -0.360 OA
HETATM   20  H   UNL     1      22.135  51.762  51.005  1.00  0.00     0.217 HD
ENDBRANCH  13  19
ENDBRANCH  11  12
ENDBRANCH   7  10
ENDBRANCH   5   6
BRANCH   1  21
HETATM   21  C   UNL     1      24.558  44.657  51.918  1.00  0.00     0.296 C 
BRANCH  21  22
HETATM   22  N   UNL     1      25.692  45.551  52.399  1.00  0.00    -0.065 N 
HETATM   23  C   UNL     1      25.735  46.830  51.588  1.00  0.00     0.270 C 
HETATM   24  H   UNL     1      26.581  45.055  52.191  1.00  0.00     0.280 HD
BRANCH  22  25
HETATM   25  C   UNL     1      25.669  45.821  53.916  1.00  0.00     0.188 C 
HETATM   26  C   UNL     1      25.445  44.534  54.733  1.00  0.00     0.033 C 
HETATM   27  C   UNL     1      26.614  43.553  54.652  1.00  0.00     0.002 C 
HETATM   28  C   UNL     1      27.933  44.211  55.047  1.00  0.00     0.000 C 
HETATM   29  C   UNL     1      28.183  45.517  54.299  1.00  0.00     0.002 C 
HETATM   30  C   UNL     1      26.985  46.463  54.398  1.00  0.00     0.033 C 
ENDBRANCH  22  25
ENDBRANCH  21  22
ENDBRANCH   1  21
BRANCH   2  31
HETATM   31  C   UNL     1      26.849  42.765  50.956  1.00  0.00     0.229 A 
HETATM   32  N   UNL     1      27.836  43.618  51.236  1.00  0.00    -0.081 NA
HETATM   33  O   UNL     1      28.746  42.847  51.965  1.00  0.00    -0.103 OA
HETATM   34  N   UNL     1      28.293  41.544  52.112  1.00  0.00    -0.083 NA
HETATM   35  C   UNL     1      27.121  41.490  51.482  1.00  0.00     0.201 A 
BRANCH  35  36
HETATM   36  N   UNL     1      26.354  40.391  51.398  1.00  0.00    -0.379 N 
HETATM   37  H   UNL     1      25.712  40.167  52.153  1.00  0.00     0.158 HD
HETATM   38  H   UNL     1      26.557  39.614  50.773  1.00  0.00     0.158 HD
ENDBRANCH  35  36
ENDBRANCH   2  31
TORSDOF 9
ENDMDL
MODEL 5
REMARK VINA RESULT:      -8.6      4.753      9.931
REMARK  9 active torsions:
REMARK  status: ('A' for Active; 'I' for Inactive)
REMARK    1  A    between atoms: N_2  and  C_4 
REMARK    2  A    between atoms: N_2  and  C_10 
REMARK    3  A    between atoms: C_10  and  C_11 
REMARK    4  A    between atoms: N_12  and  C_13 
REMARK    5  A    between atoms: C_17  and  N_18 
REMARK    6  A    between atoms: C_21  and  C_22 
REMARK       I    between atoms: C_22  and  N_23 
REMARK    7  A    between atoms: N_23  and  N_24 
REMARK    8  A    between atoms: C_25  and  C_26 
REMARK    9  A    between atoms: C_27  and  O_28 
ROOT
HETATM    1  C   UNL     1      26.265  43.729  49.729  1.00  0.00     0.102 A 
HETATM    2  N   UNL     1      26.130  42.399  49.302  1.00  0.00    -0.191 N 
HETATM    3  N   UNL     1      24.904  42.248  48.734  1.00  0.00    -0.058 NA
HETATM    4  N   UNL     1      24.310  43.422  48.653  1.00  0.00    -0.124 NA
HETATM    5  C   UNL     1      25.125  44.353  49.228  1.00  0.00     0.176 A 
ENDROOT
BRANCH   5   6
HETATM    6  C   UNL     1      24.766  45.762  49.291  1.00  0.00     0.294 C 
HETATM    7  N   UNL     1      23.464  46.040  48.921  1.00  0.00    -0.242 N 
HETATM    8  H   UNL     1      22.845  45.291  48.614  1.00  0.00     0.192 HD
HETATM    9  O   UNL     1      25.581  46.598  49.677  1.00  0.00    -0.264 OA
BRANCH   7  10
HETATM   10  N   UNL     1      23.002  47.314  49.041  1.00  0.00    -0.183 NA
HETATM   11  C   UNL     1      21.985  47.629  48.301  1.00  0.00     0.153 C 
BRANCH  11  12
HETATM   12  C   UNL     1      21.392  48.981  48.377  1.00  0.00     0.018 A 
HETATM   13  C   UNL     1      21.811  49.926  49.325  1.00  0.00     0.077 A 
HETATM   14  C   UNL     1      21.216  51.183  49.376  1.00  0.00     0.039 A 
HETATM   15  C   UNL     1      20.200  51.507  48.477  1.00  0.00     0.026 A 
HETATM   16  C   UNL     1      19.786  50.568  47.532  1.00  0.00     0.035 A 
HETATM   17 CL   UNL     1      18.531  50.969  46.425  1.00  0.00    -0.084 Cl
HETATM   18  C   UNL     1      20.374  49.304  47.475  1.00  0.00     0.039 A 
BRANCH  13  19
HETATM   19  O   UNL     1      22.799  49.684  50.240  1.00  0.00    -0.360 OA
HETATM   20  H   UNL     1      23.376  50.477  50.275  1.00  0.00     0.217 HD
ENDBRANCH  13  19
ENDBRANCH  11  12
ENDBRANCH   7  10
ENDBRANCH   5   6
BRANCH   1  21
HETATM   21  C   UNL     1      27.467  44.229  50.458  1.00  0.00     0.296 C 
BRANCH  21  22
HETATM   22  N   UNL     1      27.397  44.252  51.978  1.00  0.00    -0.065 N 
HETATM   23  C   UNL     1      26.107  44.901  52.437  1.00  0.00     0.270 C 
HETATM   24  H   UNL     1      28.159  44.876  52.310  1.00  0.00     0.280 HD
BRANCH  22  25
HETATM   25  C   UNL     1      27.624  42.875  52.631  1.00  0.00     0.188 C 
HETATM   26  C   UNL     1      29.012  42.294  52.299  1.00  0.00     0.033 C 
HETATM   27  C   UNL     1      30.164  43.080  52.922  1.00  0.00     0.002 C 
HETATM   28  C   UNL     1      29.997  43.226  54.432  1.00  0.00     0.000 C 
HETATM   29  C   UNL     1      28.620  43.756  54.820  1.00  0.00     0.002 C 
HETATM   30  C   UNL     1      27.499  42.947  54.167  1.00  0.00     0.033 C 
ENDBRANCH  22  25
ENDBRANCH  21  22
ENDBRANCH   1  21
BRANCH   2  31
HETATM   31  C   UNL     1      27.054  41.327  49.382  1.00  0.00     0.229 A 
HETATM   32  N   UNL     1      28.110  41.289  48.567  1.00  0.00    -0.081 NA
HETATM   33  O   UNL     1      28.763  40.105  48.922  1.00  0.00    -0.103 OA
HETATM   34  N   UNL     1      28.090  39.450  49.944  1.00  0.00    -0.083 NA
HETATM   35  C   UNL     1      27.029  40.203  50.225  1.00  0.00     0.201 A 
BRANCH  35  36
HETATM   36  N   UNL     1      26.119  39.911  51.170  1.00  0.00    -0.379 N 
HETATM   37  H   UNL     1      26.401  39.386  51.993  1.00  0.00     0.158 HD
HETATM   38  H   UNL     1      25.116  39.929  51.004  1.00  0.00     0.158 HD
ENDBRANCH  35  36
ENDBRANCH   2  31
TORSDOF 9
ENDMDL
MODEL 6
REMARK VINA RESULT:      -8.4      1.209      1.762
REMARK  9 active torsions:
REMARK  status: ('A' for Active; 'I' for Inactive)
REMARK    1  A    between atoms: N_2  and  C_4 
REMARK    2  A    between atoms: N_2  and  C_10 
REMARK    3  A    between atoms: C_10  and  C_11 
REMARK    4  A    between atoms: N_12  and  C_13 
REMARK    5  A    between atoms: C_17  and  N_18 
REMARK    6  A    between atoms: C_21  and  C_22 
REMARK       I    between atoms: C_22  and  N_23 
REMARK    7  A    between atoms: N_23  and  N_24 
REMARK    8  A    between atoms: C_25  and  C_26 
REMARK    9  A    between atoms: C_27  and  O_28 
ROOT
HETATM    1  C   UNL     1      20.595  47.267  48.175  1.00  0.00     0.102 A 
HETATM    2  N   UNL     1      20.197  46.851  46.895  1.00  0.00    -0.191 N 
HETATM    3  N   UNL     1      21.309  46.655  46.137  1.00  0.00    -0.058 NA
HETATM    4  N   UNL     1      22.382  46.790  46.891  1.00  0.00    -0.124 NA
HETATM    5  C   UNL     1      21.981  47.138  48.147  1.00  0.00     0.176 A 
ENDROOT
BRANCH   5   6
HETATM    6  C   UNL     1      22.928  47.350  49.231  1.00  0.00     0.294 C 
HETATM    7  N   UNL     1      23.533  46.198  49.699  1.00  0.00    -0.242 N 
HETATM    8  H   UNL     1      23.288  45.292  49.304  1.00  0.00     0.192 HD
HETATM    9  O   UNL     1      23.163  48.485  49.644  1.00  0.00    -0.264 OA
BRANCH   7  10
HETATM   10  N   UNL     1      24.507  46.301  50.643  1.00  0.00    -0.183 NA
HETATM   11  C   UNL     1      24.604  45.316  51.479  1.00  0.00     0.153 C 
BRANCH  11  12
HETATM   12  C   UNL     1      25.648  45.321  52.527  1.00  0.00     0.018 A 
HETATM   13  C   UNL     1      25.991  46.483  53.231  1.00  0.00     0.077 A 
HETATM   14  C   UNL     1      26.991  46.451  54.198  1.00  0.00     0.039 A 
HETATM   15  C   UNL     1      27.655  45.254  54.470  1.00  0.00     0.026 A 
HETATM   16  C   UNL     1      27.311  44.097  53.771  1.00  0.00     0.035 A 
HETATM   17 CL   UNL     1      28.132  42.623  54.107  1.00  0.00    -0.084 Cl
HETATM   18  C   UNL     1      26.311  44.120  52.798  1.00  0.00     0.039 A 
BRANCH  13  19
HETATM   19  O   UNL     1      25.388  47.694  53.021  1.00  0.00    -0.360 OA
HETATM   20  H   UNL     1      24.454  47.525  52.769  1.00  0.00     0.217 HD
ENDBRANCH  13  19
ENDBRANCH  11  12
ENDBRANCH   7  10
ENDBRANCH   5   6
BRANCH   1  21
HETATM   21  C   UNL     1      19.623  47.635  49.247  1.00  0.00     0.296 C 
BRANCH  21  22
HETATM   22  N   UNL     1      18.751  48.859  49.002  1.00  0.00    -0.065 N 
HETATM   23  C   UNL     1      17.293  48.458  48.913  1.00  0.00     0.270 C 
HETATM   24  H   UNL     1      19.000  49.228  48.063  1.00  0.00     0.280 HD
BRANCH  22  25
HETATM   25  C   UNL     1      18.985  49.999  50.011  1.00  0.00     0.188 C 
HETATM   26  C   UNL     1      20.386  50.624  49.872  1.00  0.00     0.033 C 
HETATM   27  C   UNL     1      20.585  51.382  48.560  1.00  0.00     0.002 C 
HETATM   28  C   UNL     1      19.508  52.442  48.351  1.00  0.00     0.000 C 
HETATM   29  C   UNL     1      18.097  51.885  48.524  1.00  0.00     0.002 C 
HETATM   30  C   UNL     1      17.947  51.128  49.843  1.00  0.00     0.033 C 
ENDBRANCH  22  25
ENDBRANCH  21  22
ENDBRANCH   1  21
BRANCH   2  31
HETATM   31  C   UNL     1      18.894  46.623  46.384  1.00  0.00     0.229 A 
HETATM   32  N   UNL     1      18.332  47.508  45.558  1.00  0.00    -0.081 NA
HETATM   33  O   UNL     1      17.075  46.961  45.288  1.00  0.00    -0.103 OA
HETATM   34  N   UNL     1      16.900  45.757  45.955  1.00  0.00    -0.083 NA
HETATM   35  C   UNL     1      18.023  45.550  46.638  1.00  0.00     0.201 A 
BRANCH  35  36
HETATM   36  N   UNL     1      18.253  44.479  47.416  1.00  0.00    -0.379 N 
HETATM   37  H   UNL     1      18.916  43.770  47.113  1.00  0.00     0.158 HD
HETATM   38  H   UNL     1      17.619  44.175  48.151  1.00  0.00     0.158 HD
ENDBRANCH  35  36
ENDBRANCH   2  31
TORSDOF 9
ENDMDL
MODEL 7
REMARK VINA RESULT:      -8.3     13.137     14.311
REMARK  9 active torsions:
REMARK  status: ('A' for Active; 'I' for Inactive)
REMARK    1  A    between atoms: N_2  and  C_4 
REMARK    2  A    between atoms: N_2  and  C_10 
REMARK    3  A    between atoms: C_10  and  C_11 
REMARK    4  A    between atoms: N_12  and  C_13 
REMARK    5  A    between atoms: C_17  and  N_18 
REMARK    6  A    between atoms: C_21  and  C_22 
REMARK       I    between atoms: C_22  and  N_23 
REMARK    7  A    between atoms: N_23  and  N_24 
REMARK    8  A    between atoms: C_25  and  C_26 
REMARK    9  A    between atoms: C_27  and  O_28 
ROOT
HETATM    1  C   UNL     1      32.673  50.505  40.862  1.00  0.00     0.102 A 
HETATM    2  N   UNL     1      32.340  49.144  40.776  1.00  0.00    -0.191 N 
HETATM    3  N   UNL     1      33.403  48.409  41.198  1.00  0.00    -0.058 NA
HETATM    4  N   UNL     1      34.334  49.216  41.669  1.00  0.00    -0.124 NA
HETATM    5  C   UNL     1      33.909  50.501  41.502  1.00  0.00     0.176 A 
ENDROOT
BRANCH   5   6
HETATM    6  C   UNL     1      34.704  51.641  41.934  1.00  0.00     0.294 C 
HETATM    7  N   UNL     1      34.804  51.785  43.306  1.00  0.00    -0.242 N 
HETATM    8  H   UNL     1      34.324  51.136  43.927  1.00  0.00     0.192 HD
HETATM    9  O   UNL     1      35.250  52.372  41.109  1.00  0.00    -0.264 OA
BRANCH   7  10
HETATM   10  N   UNL     1      35.606  52.760  43.809  1.00  0.00    -0.183 NA
HETATM   11  C   UNL     1      36.678  52.364  44.423  1.00  0.00     0.153 C 
BRANCH  11  12
HETATM   12  C   UNL     1      37.629  53.347  44.983  1.00  0.00     0.018 A 
HETATM   13  C   UNL     1      38.083  54.449  44.244  1.00  0.00     0.077 A 
HETATM   14  C   UNL     1      38.992  55.344  44.801  1.00  0.00     0.039 A 
HETATM   15  C   UNL     1      39.453  55.145  46.104  1.00  0.00     0.026 A 
HETATM   16  C   UNL     1      38.998  54.050  46.839  1.00  0.00     0.035 A 
HETATM   17 CL   UNL     1      39.568  53.806  48.444  1.00  0.00    -0.084 Cl
HETATM   18  C   UNL     1      38.089  53.147  46.288  1.00  0.00     0.039 A 
BRANCH  13  19
HETATM   19  O   UNL     1      37.681  54.711  42.963  1.00  0.00    -0.360 OA
HETATM   20  H   UNL     1      36.927  55.338  43.008  1.00  0.00     0.217 HD
ENDBRANCH  13  19
ENDBRANCH  11  12
ENDBRANCH   7  10
ENDBRANCH   5   6
BRANCH   1  21
HETATM   21  C   UNL     1      31.756  51.594  40.414  1.00  0.00     0.296 C 
BRANCH  21  22
HETATM   22  N   UNL     1      30.539  51.878  41.284  1.00  0.00    -0.065 N 
HETATM   23  C   UNL     1      30.970  52.423  42.631  1.00  0.00     0.270 C 
HETATM   24  H   UNL     1      30.085  50.964  41.482  1.00  0.00     0.280 HD
BRANCH  22  25
HETATM   25  C   UNL     1      29.483  52.769  40.603  1.00  0.00     0.188 C 
HETATM   26  C   UNL     1      29.340  52.459  39.100  1.00  0.00     0.033 C 
HETATM   27  C   UNL     1      28.750  51.078  38.818  1.00  0.00     0.002 C 
HETATM   28  C   UNL     1      27.415  50.879  39.531  1.00  0.00     0.000 C 
HETATM   29  C   UNL     1      27.488  51.217  41.017  1.00  0.00     0.002 C 
HETATM   30  C   UNL     1      28.094  52.601  41.252  1.00  0.00     0.033 C 
ENDBRANCH  22  25
ENDBRANCH  21  22
ENDBRANCH   1  21
BRANCH   2  31
HETATM   31  C   UNL     1      31.130  48.535  40.358  1.00  0.00     0.229 A 
HETATM   32  N   UNL     1      30.991  48.110  39.100  1.00  0.00    -0.081 NA
HETATM   33  O   UNL     1      29.691  47.596  39.063  1.00  0.00    -0.103 OA
HETATM   34  N   UNL     1      29.069  47.720  40.297  1.00  0.00    -0.083 NA
HETATM   35  C   UNL     1      29.957  48.306  41.098  1.00  0.00     0.201 A 
BRANCH  35  36
HETATM   36  N   UNL     1      29.737  48.601  42.390  1.00  0.00    -0.379 N 
HETATM   37  H   UNL     1      30.506  48.926  42.969  1.00  0.00     0.158 HD
HETATM   38  H   UNL     1      28.930  48.264  42.911  1.00  0.00     0.158 HD
ENDBRANCH  35  36
ENDBRANCH   2  31
TORSDOF 9
ENDMDL
MODEL 8
REMARK VINA RESULT:      -8.3     12.401     13.640
REMARK  9 active torsions:
REMARK  status: ('A' for Active; 'I' for Inactive)
REMARK    1  A    between atoms: N_2  and  C_4 
REMARK    2  A    between atoms: N_2  and  C_10 
REMARK    3  A    between atoms: C_10  and  C_11 
REMARK    4  A    between atoms: N_12  and  C_13 
REMARK    5  A    between atoms: C_17  and  N_18 
REMARK    6  A    between atoms: C_21  and  C_22 
REMARK       I    between atoms: C_22  and  N_23 
REMARK    7  A    between atoms: N_23  and  N_24 
REMARK    8  A    between atoms: C_25  and  C_26 
REMARK    9  A    between atoms: C_27  and  O_28 
ROOT
HETATM    1  C   UNL     1      28.803  49.433  38.787  1.00  0.00     0.102 A 
HETATM    2  N   UNL     1      28.069  48.238  38.736  1.00  0.00    -0.191 N 
HETATM    3  N   UNL     1      28.935  47.204  38.559  1.00  0.00    -0.058 NA
HETATM    4  N   UNL     1      30.174  47.653  38.628  1.00  0.00    -0.124 NA
HETATM    5  C   UNL     1      30.128  49.006  38.792  1.00  0.00     0.176 A 
ENDROOT
BRANCH   5   6
HETATM    6  C   UNL     1      31.334  49.811  38.919  1.00  0.00     0.294 C 
HETATM    7  N   UNL     1      32.049  49.595  40.083  1.00  0.00    -0.242 N 
HETATM    8  H   UNL     1      31.710  48.933  40.779  1.00  0.00     0.192 HD
HETATM    9  O   UNL     1      31.667  50.585  38.023  1.00  0.00    -0.264 OA
BRANCH   7  10
HETATM   10  N   UNL     1      33.243  50.224  40.250  1.00  0.00    -0.183 NA
HETATM   11  C   UNL     1      33.795  50.111  41.418  1.00  0.00     0.153 C 
BRANCH  11  12
HETATM   12  C   UNL     1      35.106  50.737  41.692  1.00  0.00     0.018 A 
HETATM   13  C   UNL     1      36.228  50.498  40.886  1.00  0.00     0.077 A 
HETATM   14  C   UNL     1      37.450  51.093  41.187  1.00  0.00     0.039 A 
HETATM   15  C   UNL     1      37.559  51.934  42.295  1.00  0.00     0.026 A 
HETATM   16  C   UNL     1      36.441  52.173  43.095  1.00  0.00     0.035 A 
HETATM   17 CL   UNL     1      36.577  53.209  44.462  1.00  0.00    -0.084 Cl
HETATM   18  C   UNL     1      35.212  51.579  42.802  1.00  0.00     0.039 A 
BRANCH  13  19
HETATM   19  O   UNL     1      36.203  49.686  39.785  1.00  0.00    -0.360 OA
HETATM   20  H   UNL     1      37.125  49.399  39.603  1.00  0.00     0.217 HD
ENDBRANCH  13  19
ENDBRANCH  11  12
ENDBRANCH   7  10
ENDBRANCH   5   6
BRANCH   1  21
HETATM   21  C   UNL     1      28.160  50.775  38.907  1.00  0.00     0.296 C 
BRANCH  21  22
HETATM   22  N   UNL     1      29.084  51.980  39.014  1.00  0.00    -0.065 N 
HETATM   23  C   UNL     1      29.105  52.745  37.707  1.00  0.00     0.270 C 
HETATM   24  H   UNL     1      30.049  51.615  39.142  1.00  0.00     0.280 HD
BRANCH  22  25
HETATM   25  C   UNL     1      28.781  52.889  40.220  1.00  0.00     0.188 C 
HETATM   26  C   UNL     1      28.652  52.093  41.533  1.00  0.00     0.033 C 
HETATM   27  C   UNL     1      29.967  51.465  41.993  1.00  0.00     0.002 C 
HETATM   28  C   UNL     1      31.079  52.503  42.109  1.00  0.00     0.000 C 
HETATM   29  C   UNL     1      31.220  53.353  40.849  1.00  0.00     0.002 C 
HETATM   30  C   UNL     1      29.881  53.952  40.420  1.00  0.00     0.033 C 
ENDBRANCH  22  25
ENDBRANCH  21  22
ENDBRANCH   1  21
BRANCH   2  31
HETATM   31  C   UNL     1      26.673  48.030  38.859  1.00  0.00     0.229 A 
HETATM   32  N   UNL     1      25.940  47.734  37.783  1.00  0.00    -0.081 NA
HETATM   33  O   UNL     1      24.641  47.622  38.285  1.00  0.00    -0.103 OA
HETATM   34  N   UNL     1      24.611  47.851  39.653  1.00  0.00    -0.083 NA
HETATM   35  C   UNL     1      25.868  48.110  40.008  1.00  0.00     0.201 A 
BRANCH  35  36
HETATM   36  N   UNL     1      26.262  48.383  41.264  1.00  0.00    -0.379 N 
HETATM   37  H   UNL     1      26.583  49.318  41.497  1.00  0.00     0.158 HD
HETATM   38  H   UNL     1      26.530  47.666  41.934  1.00  0.00     0.158 HD
ENDBRANCH  35  36
ENDBRANCH   2  31
TORSDOF 9
ENDMDL
MODEL 9
REMARK VINA RESULT:      -8.3      2.838      5.637
REMARK  9 active torsions:
REMARK  status: ('A' for Active; 'I' for Inactive)
REMARK    1  A    between atoms: N_2  and  C_4 
REMARK    2  A    between atoms: N_2  and  C_10 
REMARK    3  A    between atoms: C_10  and  C_11 
REMARK    4  A    between atoms: N_12  and  C_13 
REMARK    5  A    between atoms: C_17  and  N_18 
REMARK    6  A    between atoms: C_21  and  C_22 
REMARK       I    between atoms: C_22  and  N_23 
REMARK    7  A    between atoms: N_23  and  N_24 
REMARK    8  A    between atoms: C_25  and  C_26 
REMARK    9  A    between atoms: C_27  and  O_28 
ROOT
HETATM    1  C   UNL     1      23.592  46.556  49.178  1.00  0.00     0.102 A 
HETATM    2  N   UNL     1      22.472  47.232  48.669  1.00  0.00    -0.191 N 
HETATM    3  N   UNL     1      22.412  48.464  49.243  1.00  0.00    -0.058 NA
HETATM    4  N   UNL     1      23.490  48.659  49.978  1.00  0.00    -0.124 NA
HETATM    5  C   UNL     1      24.243  47.523  49.938  1.00  0.00     0.176 A 
ENDROOT
BRANCH   5   6
HETATM    6  C   UNL     1      25.514  47.413  50.639  1.00  0.00     0.294 C 
HETATM    7  N   UNL     1      25.420  46.920  51.927  1.00  0.00    -0.242 N 
HETATM    8  H   UNL     1      24.511  46.686  52.323  1.00  0.00     0.192 HD
HETATM    9  O   UNL     1      26.566  47.718  50.078  1.00  0.00    -0.264 OA
BRANCH   7  10
HETATM   10  N   UNL     1      26.561  46.687  52.629  1.00  0.00    -0.183 NA
HETATM   11  C   UNL     1      26.416  46.147  53.799  1.00  0.00     0.153 C 
BRANCH  11  12
HETATM   12  C   UNL     1      27.597  45.829  54.630  1.00  0.00     0.018 A 
HETATM   13  C   UNL     1      27.949  46.596  55.749  1.00  0.00     0.077 A 
HETATM   14  C   UNL     1      29.078  46.274  56.497  1.00  0.00     0.039 A 
HETATM   15  C   UNL     1      29.864  45.181  56.131  1.00  0.00     0.026 A 
HETATM   16  C   UNL     1      29.512  44.416  55.018  1.00  0.00     0.035 A 
HETATM   17 CL   UNL     1      30.484  43.069  54.568  1.00  0.00    -0.084 Cl
HETATM   18  C   UNL     1      28.383  44.732  54.262  1.00  0.00     0.039 A 
BRANCH  13  19
HETATM   19  O   UNL     1      27.232  47.683  56.170  1.00  0.00    -0.360 OA
HETATM   20  H   UNL     1      26.507  47.358  56.749  1.00  0.00     0.217 HD
ENDBRANCH  13  19
ENDBRANCH  11  12
ENDBRANCH   7  10
ENDBRANCH   5   6
BRANCH   1  21
HETATM   21  C   UNL     1      23.924  45.148  48.810  1.00  0.00     0.296 C 
BRANCH  21  22
HETATM   22  N   UNL     1      23.907  44.116  49.929  1.00  0.00    -0.065 N 
HETATM   23  C   UNL     1      22.485  43.695  50.237  1.00  0.00     0.270 C 
HETATM   24  H   UNL     1      24.252  44.591  50.787  1.00  0.00     0.280 HD
BRANCH  22  25
HETATM   25  C   UNL     1      24.834  42.911  49.677  1.00  0.00     0.188 C 
HETATM   26  C   UNL     1      26.158  43.324  49.007  1.00  0.00     0.033 C 
HETATM   27  C   UNL     1      27.057  44.169  49.909  1.00  0.00     0.002 C 
HETATM   28  C   UNL     1      27.328  43.479  51.242  1.00  0.00     0.000 C 
HETATM   29  C   UNL     1      26.049  43.007  51.929  1.00  0.00     0.002 C 
HETATM   30  C   UNL     1      25.178  42.175  50.987  1.00  0.00     0.033 C 
ENDBRANCH  22  25
ENDBRANCH  21  22
ENDBRANCH   1  21
BRANCH   2  31
HETATM   31  C   UNL     1      21.521  46.809  47.708  1.00  0.00     0.229 A 
HETATM   32  N   UNL     1      21.827  46.817  46.409  1.00  0.00    -0.081 NA
HETATM   33  O   UNL     1      20.661  46.361  45.788  1.00  0.00    -0.103 OA
HETATM   34  N   UNL     1      19.672  46.086  46.721  1.00  0.00    -0.083 NA
HETATM   35  C   UNL     1      20.201  46.368  47.909  1.00  0.00     0.201 A 
BRANCH  35  36
HETATM   36  N   UNL     1      19.557  46.230  49.080  1.00  0.00    -0.379 N 
HETATM   37  H   UNL     1      20.079  45.973  49.914  1.00  0.00     0.158 HD
HETATM   38  H   UNL     1      18.552  46.087  49.152  1.00  0.00     0.158 HD
ENDBRANCH  35  36
ENDBRANCH   2  31
TORSDOF 9
ENDMDL
MODEL 10
REMARK VINA RESULT:      -8.1      5.076      9.218
REMARK  9 active torsions:
REMARK  status: ('A' for Active; 'I' for Inactive)
REMARK    1  A    between atoms: N_2  and  C_4 
REMARK    2  A    between atoms: N_2  and  C_10 
REMARK    3  A    between atoms: C_10  and  C_11 
REMARK    4  A    between atoms: N_12  and  C_13 
REMARK    5  A    between atoms: C_17  and  N_18 
REMARK    6  A    between atoms: C_21  and  C_22 
REMARK       I    between atoms: C_22  and  N_23 
REMARK    7  A    between atoms: N_23  and  N_24 
REMARK    8  A    between atoms: C_25  and  C_26 
REMARK    9  A    between atoms: C_27  and  O_28 
ROOT
HETATM    1  C   UNL     1      25.596  42.348  49.589  1.00  0.00     0.102 A 
HETATM    2  N   UNL     1      25.586  41.156  48.848  1.00  0.00    -0.191 N 
HETATM    3  N   UNL     1      24.315  40.917  48.428  1.00  0.00    -0.058 NA
HETATM    4  N   UNL     1      23.549  41.943  48.741  1.00  0.00    -0.124 NA
HETATM    5  C   UNL     1      24.305  42.847  49.428  1.00  0.00     0.176 A 
ENDROOT
BRANCH   5   6
HETATM    6  C   UNL     1      23.759  44.107  49.908  1.00  0.00     0.294 C 
HETATM    7  N   UNL     1      24.298  45.231  49.310  1.00  0.00    -0.242 N 
HETATM    8  H   UNL     1      25.032  45.140  48.610  1.00  0.00     0.192 HD
HETATM    9  O   UNL     1      22.870  44.121  50.757  1.00  0.00    -0.264 OA
BRANCH   7  10
HETATM   10  N   UNL     1      23.783  46.452  49.618  1.00  0.00    -0.183 NA
HETATM   11  C   UNL     1      23.024  46.999  48.720  1.00  0.00     0.153 C 
BRANCH  11  12
HETATM   12  C   UNL     1      22.395  48.314  48.970  1.00  0.00     0.018 A 
HETATM   13  C   UNL     1      23.153  49.471  49.197  1.00  0.00     0.077 A 
HETATM   14  C   UNL     1      22.524  50.688  49.445  1.00  0.00     0.039 A 
HETATM   15  C   UNL     1      21.131  50.757  49.466  1.00  0.00     0.026 A 
HETATM   16  C   UNL     1      20.377  49.606  49.237  1.00  0.00     0.035 A 
HETATM   17 CL   UNL     1      18.659  49.693  49.264  1.00  0.00    -0.084 Cl
HETATM   18  C   UNL     1      20.999  48.382  48.989  1.00  0.00     0.039 A 
BRANCH  13  19
HETATM   19  O   UNL     1      24.522  49.485  49.195  1.00  0.00    -0.360 OA
HETATM   20  H   UNL     1      24.829  48.843  49.872  1.00  0.00     0.217 HD
ENDBRANCH  13  19
ENDBRANCH  11  12
ENDBRANCH   7  10
ENDBRANCH   5   6
BRANCH   1  21
HETATM   21  C   UNL     1      26.820  42.878  50.258  1.00  0.00     0.296 C 
BRANCH  21  22
HETATM   22  N   UNL     1      26.926  42.687  51.764  1.00  0.00    -0.065 N 
HETATM   23  C   UNL     1      27.638  41.388  52.082  1.00  0.00     0.270 C 
HETATM   24  H   UNL     1      25.959  42.574  52.126  1.00  0.00     0.280 HD
BRANCH  22  25
HETATM   25  C   UNL     1      27.547  43.890  52.500  1.00  0.00     0.188 C 
HETATM   26  C   UNL     1      26.740  45.185  52.286  1.00  0.00     0.033 C 
HETATM   27  C   UNL     1      25.358  45.154  52.939  1.00  0.00     0.002 C 
HETATM   28  C   UNL     1      25.444  44.821  54.425  1.00  0.00     0.000 C 
HETATM   29  C   UNL     1      26.274  43.569  54.699  1.00  0.00     0.002 C 
HETATM   30  C   UNL     1      27.641  43.640  54.019  1.00  0.00     0.033 C 
ENDBRANCH  22  25
ENDBRANCH  21  22
ENDBRANCH   1  21
BRANCH   2  31
HETATM   31  C   UNL     1      26.658  40.290  48.517  1.00  0.00     0.229 A 
HETATM   32  N   UNL     1      27.480  40.593  47.511  1.00  0.00    -0.081 NA
HETATM   33  O   UNL     1      28.376  39.520  47.478  1.00  0.00    -0.103 OA
HETATM   34  N   UNL     1      28.079  38.589  48.463  1.00  0.00    -0.083 NA
HETATM   35  C   UNL     1      27.012  39.062  49.103  1.00  0.00     0.201 A 
BRANCH  35  36
HETATM   36  N   UNL     1      26.412  38.449  50.137  1.00  0.00    -0.379 N 
HETATM   37  H   UNL     1      26.814  38.524  51.068  1.00  0.00     0.158 HD
HETATM   38  H   UNL     1      25.747  37.687  50.025  1.00  0.00     0.158 HD
ENDBRANCH  35  36
ENDBRANCH   2  31
TORSDOF 9
ENDMDL
