MODEL 1
REMARK VINA RESULT:      -7.8      0.000      0.000
REMARK  11 active torsions:
REMARK  status: ('A' for Active; 'I' for Inactive)
REMARK    1  A    between atoms: C_2  and  N_3 
REMARK    2  A    between atoms: N_3  and  C_5 
REMARK    3  A    between atoms: N_3  and  C_34 
REMARK    4  A    between atoms: C_5  and  C_6 
REMARK    5  A    between atoms: C_6  and  C_7 
REMARK    6  A    between atoms: C_7  and  N_8 
REMARK       I    between atoms: N_8  and  C_9 
REMARK    7  A    between atoms: C_9  and  C_10 
REMARK    8  A    between atoms: C_10  and  O_11 
REMARK    9  A    between atoms: N_12  and  C_13 
REMARK   10  A    between atoms: C_14  and  O_15 
REMARK   11  A    between atoms: C_18  and  O_19 
ROOT
HETATM    1  C   UNL     1      25.968  43.614  52.150  1.00  0.00     0.256 C 
HETATM    2  N   UNL     1      25.858  42.472  51.216  1.00  0.00    -0.251 N 
HETATM    3  C   UNL     1      26.452  41.255  51.522  1.00  0.00     0.330 C 
HETATM    4  O   UNL     1      26.225  40.193  50.941  1.00  0.00    -0.246 OA
HETATM    5  N   UNL     1      27.417  41.241  52.479  1.00  0.00    -0.308 N 
HETATM    6  C   UNL     1      27.878  42.343  53.176  1.00  0.00     0.048 A 
HETATM    7  C   UNL     1      27.223  43.557  53.018  1.00  0.00     0.035 A 
HETATM    8  C   UNL     1      28.978  42.209  54.026  1.00  0.00     0.031 A 
HETATM    9  C   UNL     1      29.451  43.315  54.728  1.00  0.00     0.021 A 
HETATM   10  C   UNL     1      28.801  44.538  54.594  1.00  0.00     0.011 A 
HETATM   11 BR   UNL     1      29.435  46.046  55.540  1.00  0.00    -0.051 Br
HETATM   12  C   UNL     1      27.684  44.660  53.766  1.00  0.00     0.034 A 
HETATM   13  H   UNL     1      27.827  40.329  52.639  1.00  0.00     0.170 HD
ENDROOT
BRANCH   1  14
HETATM   14  C   UNL     1      26.039  45.009  51.349  1.00  0.00     0.279 C 
HETATM   15  N   UNL     1      24.940  45.855  51.512  1.00  0.00    -0.356 N 
HETATM   16  H   UNL     1      24.413  45.712  52.367  1.00  0.00     0.162 HD
HETATM   17  O   UNL     1      26.915  45.266  50.521  1.00  0.00    -0.268 OA
BRANCH  15  18
HETATM   18  C   UNL     1      24.932  47.159  50.886  1.00  0.00     0.124 C 
BRANCH  18  19
HETATM   19  C   UNL     1      24.224  47.144  49.532  1.00  0.00     0.047 C 
BRANCH  19  20
HETATM   20  C   UNL     1      23.303  48.339  49.279  1.00  0.00     0.236 C 
BRANCH  20  21
HETATM   21  N   UNL     1      24.052  49.660  49.154  1.00  0.00    -0.072 N 
HETATM   22  H   UNL     1      24.623  49.758  50.001  1.00  0.00     0.279 HD
BRANCH  21  23
HETATM   23  C   UNL     1      23.117  50.862  49.174  1.00  0.00     0.230 C 
HETATM   24  C   UNL     1      21.941  50.636  48.238  1.00  0.00     0.034 C 
ENDBRANCH  21  23
BRANCH  21  25
HETATM   25  C   UNL     1      25.046  49.729  48.006  1.00  0.00     0.230 C 
HETATM   26  C   UNL     1      26.485  49.808  48.477  1.00  0.00     0.034 C 
ENDBRANCH  21  25
ENDBRANCH  20  21
ENDBRANCH  19  20
ENDBRANCH  18  19
ENDBRANCH  15  18
ENDBRANCH   1  14
BRANCH   1  27
HETATM   27  O   UNL     1      24.915  43.536  53.091  1.00  0.00    -0.359 OA
HETATM   28  H   UNL     1      24.843  44.438  53.452  1.00  0.00     0.213 HD
ENDBRANCH   1  27
BRANCH   2  29
HETATM   29  C   UNL     1      25.016  42.543  50.038  1.00  0.00     0.076 A 
HETATM   30  C   UNL     1      25.477  42.418  48.715  1.00  0.00     0.098 A 
HETATM   31  C   UNL     1      24.576  42.317  47.640  1.00  0.00     0.075 A 
HETATM   32  C   UNL     1      23.204  42.402  47.862  1.00  0.00     0.070 A 
HETATM   33  C   UNL     1      22.732  42.564  49.158  1.00  0.00     0.039 A 
HETATM   34  C   UNL     1      23.625  42.644  50.229  1.00  0.00     0.035 A 
BRANCH  30  35
HETATM   35  O   UNL     1      26.826  42.382  48.462  1.00  0.00    -0.354 OA
HETATM   36  C   UNL     1      27.195  41.207  47.724  1.00  0.00     0.210 C 
ENDBRANCH  30  35
BRANCH  32  37
HETATM   37  O   UNL     1      22.240  42.297  46.900  1.00  0.00    -0.356 OA
HETATM   38  C   UNL     1      21.547  43.503  46.591  1.00  0.00     0.210 C 
ENDBRANCH  32  37
ENDBRANCH   2  29
TORSDOF 11
ENDMDL
MODEL 2
REMARK VINA RESULT:      -7.8      1.295      1.577
REMARK  11 active torsions:
REMARK  status: ('A' for Active; 'I' for Inactive)
REMARK    1  A    between atoms: C_2  and  N_3 
REMARK    2  A    between atoms: N_3  and  C_5 
REMARK    3  A    between atoms: N_3  and  C_34 
REMARK    4  A    between atoms: C_5  and  C_6 
REMARK    5  A    between atoms: C_6  and  C_7 
REMARK    6  A    between atoms: C_7  and  N_8 
REMARK       I    between atoms: N_8  and  C_9 
REMARK    7  A    between atoms: C_9  and  C_10 
REMARK    8  A    between atoms: C_10  and  O_11 
REMARK    9  A    between atoms: N_12  and  C_13 
REMARK   10  A    between atoms: C_14  and  O_15 
REMARK   11  A    between atoms: C_18  and  O_19 
ROOT
HETATM    1  C   UNL     1      25.973  43.106  51.357  1.00  0.00     0.256 C 
HETATM    2  N   UNL     1      25.998  41.873  50.541  1.00  0.00    -0.251 N 
HETATM    3  C   UNL     1      26.507  40.693  51.066  1.00  0.00     0.330 C 
HETATM    4  O   UNL     1      26.360  39.576  50.568  1.00  0.00    -0.246 OA
HETATM    5  N   UNL     1      27.298  40.777  52.169  1.00  0.00    -0.308 N 
HETATM    6  C   UNL     1      27.659  41.944  52.816  1.00  0.00     0.048 A 
HETATM    7  C   UNL     1      27.064  43.137  52.426  1.00  0.00     0.035 A 
HETATM    8  C   UNL     1      28.599  41.897  53.848  1.00  0.00     0.031 A 
HETATM    9  C   UNL     1      28.970  43.070  54.502  1.00  0.00     0.021 A 
HETATM   10  C   UNL     1      28.377  44.274  54.136  1.00  0.00     0.011 A 
HETATM   11 BR   UNL     1      28.873  45.871  55.014  1.00  0.00    -0.051 Br
HETATM   12  C   UNL     1      27.416  44.311  53.124  1.00  0.00     0.034 A 
HETATM   13  H   UNL     1      27.658  39.885  52.488  1.00  0.00     0.170 HD
ENDROOT
BRANCH   1  14
HETATM   14  C   UNL     1      26.205  44.409  50.441  1.00  0.00     0.279 C 
HETATM   15  N   UNL     1      25.137  45.306  50.386  1.00  0.00    -0.356 N 
HETATM   16  H   UNL     1      24.505  45.270  51.179  1.00  0.00     0.162 HD
HETATM   17  O   UNL     1      27.184  44.549  49.706  1.00  0.00    -0.268 OA
BRANCH  15  18
HETATM   18  C   UNL     1      25.265  46.540  49.641  1.00  0.00     0.124 C 
BRANCH  18  19
HETATM   19  C   UNL     1      24.286  47.610  50.123  1.00  0.00     0.047 C 
BRANCH  19  20
HETATM   20  C   UNL     1      23.384  48.188  49.032  1.00  0.00     0.236 C 
BRANCH  20  21
HETATM   21  N   UNL     1      22.202  48.975  49.583  1.00  0.00    -0.072 N 
HETATM   22  H   UNL     1      22.125  48.736  50.578  1.00  0.00     0.279 HD
BRANCH  21  23
HETATM   23  C   UNL     1      20.877  48.537  48.974  1.00  0.00     0.230 C 
HETATM   24  C   UNL     1      21.117  47.620  47.786  1.00  0.00     0.034 C 
ENDBRANCH  21  23
BRANCH  21  25
HETATM   25  C   UNL     1      22.369  50.486  49.561  1.00  0.00     0.230 C 
HETATM   26  C   UNL     1      23.124  50.978  48.341  1.00  0.00     0.034 C 
ENDBRANCH  21  25
ENDBRANCH  20  21
ENDBRANCH  19  20
ENDBRANCH  18  19
ENDBRANCH  15  18
ENDBRANCH   1  14
BRANCH   1  27
HETATM   27  O   UNL     1      24.777  43.130  52.111  1.00  0.00    -0.359 OA
HETATM   28  H   UNL     1      24.484  42.201  52.135  1.00  0.00     0.213 HD
ENDBRANCH   1  27
BRANCH   2  29
HETATM   29  C   UNL     1      25.366  41.822  49.238  1.00  0.00     0.076 A 
HETATM   30  C   UNL     1      26.053  41.660  48.020  1.00  0.00     0.098 A 
HETATM   31  C   UNL     1      25.356  41.439  46.819  1.00  0.00     0.075 A 
HETATM   32  C   UNL     1      23.963  41.439  46.803  1.00  0.00     0.070 A 
HETATM   33  C   UNL     1      23.268  41.635  47.990  1.00  0.00     0.039 A 
HETATM   34  C   UNL     1      23.959  41.834  49.187  1.00  0.00     0.035 A 
BRANCH  30  35
HETATM   35  O   UNL     1      27.424  41.706  47.998  1.00  0.00    -0.354 OA
HETATM   36  C   UNL     1      27.984  40.526  47.401  1.00  0.00     0.210 C 
ENDBRANCH  30  35
BRANCH  32  37
HETATM   37  O   UNL     1      23.185  41.215  45.703  1.00  0.00    -0.356 OA
HETATM   38  C   UNL     1      21.779  41.250  45.928  1.00  0.00     0.210 C 
ENDBRANCH  32  37
ENDBRANCH   2  29
TORSDOF 11
ENDMDL
MODEL 3
REMARK VINA RESULT:      -7.7      1.790      2.934
REMARK  11 active torsions:
REMARK  status: ('A' for Active; 'I' for Inactive)
REMARK    1  A    between atoms: C_2  and  N_3 
REMARK    2  A    between atoms: N_3  and  C_5 
REMARK    3  A    between atoms: N_3  and  C_34 
REMARK    4  A    between atoms: C_5  and  C_6 
REMARK    5  A    between atoms: C_6  and  C_7 
REMARK    6  A    between atoms: C_7  and  N_8 
REMARK       I    between atoms: N_8  and  C_9 
REMARK    7  A    between atoms: C_9  and  C_10 
REMARK    8  A    between atoms: C_10  and  O_11 
REMARK    9  A    between atoms: N_12  and  C_13 
REMARK   10  A    between atoms: C_14  and  O_15 
REMARK   11  A    between atoms: C_18  and  O_19 
ROOT
HETATM    1  C   UNL     1      26.724  42.507  50.933  1.00  0.00     0.256 C 
HETATM    2  N   UNL     1      27.366  41.427  50.150  1.00  0.00    -0.251 N 
HETATM    3  C   UNL     1      28.283  40.575  50.749  1.00  0.00     0.330 C 
HETATM    4  O   UNL     1      28.688  39.518  50.263  1.00  0.00    -0.246 OA
HETATM    5  N   UNL     1      28.844  40.967  51.924  1.00  0.00    -0.308 N 
HETATM    6  C   UNL     1      28.592  42.159  52.579  1.00  0.00     0.048 A 
HETATM    7  C   UNL     1      27.579  42.983  52.106  1.00  0.00     0.035 A 
HETATM    8  C   UNL     1      29.350  42.500  53.702  1.00  0.00     0.031 A 
HETATM    9  C   UNL     1      29.106  43.701  54.365  1.00  0.00     0.021 A 
HETATM   10  C   UNL     1      28.087  44.535  53.915  1.00  0.00     0.011 A 
HETATM   11 BR   UNL     1      27.747  46.167  54.805  1.00  0.00    -0.051 Br
HETATM   12  C   UNL     1      27.313  44.175  52.810  1.00  0.00     0.034 A 
HETATM   13  H   UNL     1      29.522  40.314  52.298  1.00  0.00     0.170 HD
ENDROOT
BRANCH   1  14
HETATM   14  C   UNL     1      26.456  43.802  50.018  1.00  0.00     0.279 C 
HETATM   15  N   UNL     1      25.116  44.161  49.856  1.00  0.00    -0.356 N 
HETATM   16  H   UNL     1      24.496  43.843  50.593  1.00  0.00     0.162 HD
HETATM   17  O   UNL     1      27.341  44.361  49.366  1.00  0.00    -0.268 OA
BRANCH  15  18
HETATM   18  C   UNL     1      24.770  45.347  49.103  1.00  0.00     0.124 C 
BRANCH  18  19
HETATM   19  C   UNL     1      24.304  46.488  50.007  1.00  0.00     0.047 C 
BRANCH  19  20
HETATM   20  C   UNL     1      25.259  47.681  50.073  1.00  0.00     0.236 C 
BRANCH  20  21
HETATM   21  N   UNL     1      25.108  48.638  48.897  1.00  0.00    -0.072 N 
HETATM   22  H   UNL     1      25.041  48.060  48.051  1.00  0.00     0.279 HD
BRANCH  21  23
HETATM   23  C   UNL     1      26.348  49.496  48.684  1.00  0.00     0.230 C 
HETATM   24  C   UNL     1      27.602  48.718  49.050  1.00  0.00     0.034 C 
ENDBRANCH  21  23
BRANCH  21  25
HETATM   25  C   UNL     1      23.834  49.467  48.902  1.00  0.00     0.230 C 
HETATM   26  C   UNL     1      23.822  50.536  47.827  1.00  0.00     0.034 C 
ENDBRANCH  21  25
ENDBRANCH  20  21
ENDBRANCH  19  20
ENDBRANCH  18  19
ENDBRANCH  15  18
ENDBRANCH   1  14
BRANCH   1  27
HETATM   27  O   UNL     1      25.568  41.988  51.561  1.00  0.00    -0.359 OA
HETATM   28  H   UNL     1      25.901  41.274  52.134  1.00  0.00     0.213 HD
ENDBRANCH   1  27
BRANCH   2  29
HETATM   29  C   UNL     1      26.954  41.139  48.791  1.00  0.00     0.076 A 
HETATM   30  C   UNL     1      25.618  41.043  48.362  1.00  0.00     0.098 A 
HETATM   31  C   UNL     1      25.301  40.941  46.996  1.00  0.00     0.075 A 
HETATM   32  C   UNL     1      26.312  40.870  46.042  1.00  0.00     0.070 A 
HETATM   33  C   UNL     1      27.639  40.926  46.451  1.00  0.00     0.039 A 
HETATM   34  C   UNL     1      27.955  41.048  47.805  1.00  0.00     0.035 A 
BRANCH  30  35
HETATM   35  O   UNL     1      24.602  41.059  49.285  1.00  0.00    -0.354 OA
HETATM   36  C   UNL     1      23.357  41.466  48.694  1.00  0.00     0.210 C 
ENDBRANCH  30  35
BRANCH  32  37
HETATM   37  O   UNL     1      26.122  40.790  44.692  1.00  0.00    -0.356 OA
HETATM   38  C   UNL     1      26.849  41.735  43.912  1.00  0.00     0.210 C 
ENDBRANCH  32  37
ENDBRANCH   2  29
TORSDOF 11
ENDMDL
MODEL 4
REMARK VINA RESULT:      -7.6     11.216     14.392
REMARK  11 active torsions:
REMARK  status: ('A' for Active; 'I' for Inactive)
REMARK    1  A    between atoms: C_2  and  N_3 
REMARK    2  A    between atoms: N_3  and  C_5 
REMARK    3  A    between atoms: N_3  and  C_34 
REMARK    4  A    between atoms: C_5  and  C_6 
REMARK    5  A    between atoms: C_6  and  C_7 
REMARK    6  A    between atoms: C_7  and  N_8 
REMARK       I    between atoms: N_8  and  C_9 
REMARK    7  A    between atoms: C_9  and  C_10 
REMARK    8  A    between atoms: C_10  and  O_11 
REMARK    9  A    between atoms: N_12  and  C_13 
REMARK   10  A    between atoms: C_14  and  O_15 
REMARK   11  A    between atoms: C_18  and  O_19 
ROOT
HETATM    1  C   UNL     1      28.701  49.687  40.567  1.00  0.00     0.256 C 
HETATM    2  N   UNL     1      28.899  50.717  39.524  1.00  0.00    -0.251 N 
HETATM    3  C   UNL     1      27.820  51.187  38.787  1.00  0.00     0.330 C 
HETATM    4  O   UNL     1      27.834  52.192  38.076  1.00  0.00    -0.246 OA
HETATM    5  N   UNL     1      26.682  50.442  38.779  1.00  0.00    -0.308 N 
HETATM    6  C   UNL     1      26.502  49.238  39.434  1.00  0.00     0.048 A 
HETATM    7  C   UNL     1      27.491  48.793  40.302  1.00  0.00     0.035 A 
HETATM    8  C   UNL     1      25.332  48.505  39.219  1.00  0.00     0.031 A 
HETATM    9  C   UNL     1      25.145  47.289  39.872  1.00  0.00     0.021 A 
HETATM   10  C   UNL     1      26.118  46.831  40.756  1.00  0.00     0.011 A 
HETATM   11 BR   UNL     1      25.876  45.183  41.646  1.00  0.00    -0.051 Br
HETATM   12  C   UNL     1      27.271  47.581  40.989  1.00  0.00     0.034 A 
HETATM   13  H   UNL     1      25.941  50.825  38.204  1.00  0.00     0.170 HD
ENDROOT
BRANCH   1  14
HETATM   14  C   UNL     1      29.973  48.705  40.657  1.00  0.00     0.279 C 
HETATM   15  N   UNL     1      30.918  49.030  41.633  1.00  0.00    -0.356 N 
HETATM   16  H   UNL     1      30.561  49.577  42.409  1.00  0.00     0.162 HD
HETATM   17  O   UNL     1      30.199  47.818  39.832  1.00  0.00    -0.268 OA
BRANCH  15  18
HETATM   18  C   UNL     1      32.068  48.177  41.838  1.00  0.00     0.124 C 
BRANCH  18  19
HETATM   19  C   UNL     1      33.381  48.891  41.519  1.00  0.00     0.047 C 
BRANCH  19  20
HETATM   20  C   UNL     1      33.483  50.315  42.069  1.00  0.00     0.236 C 
BRANCH  20  21
HETATM   21  N   UNL     1      34.782  50.578  42.819  1.00  0.00    -0.072 N 
HETATM   22  H   UNL     1      34.846  49.869  43.559  1.00  0.00     0.279 HD
BRANCH  21  23
HETATM   23  C   UNL     1      34.767  51.910  43.558  1.00  0.00     0.230 C 
HETATM   24  C   UNL     1      33.540  52.009  44.450  1.00  0.00     0.034 C 
ENDBRANCH  21  23
BRANCH  21  25
HETATM   25  C   UNL     1      36.048  50.395  41.998  1.00  0.00     0.230 C 
HETATM   26  C   UNL     1      37.311  50.479  42.835  1.00  0.00     0.034 C 
ENDBRANCH  21  25
ENDBRANCH  20  21
ENDBRANCH  19  20
ENDBRANCH  18  19
ENDBRANCH  15  18
ENDBRANCH   1  14
BRANCH   1  27
HETATM   27  O   UNL     1      28.373  50.328  41.784  1.00  0.00    -0.359 OA
HETATM   28  H   UNL     1      27.717  49.741  42.201  1.00  0.00     0.213 HD
ENDBRANCH   1  27
BRANCH   2  29
HETATM   29  C   UNL     1      30.182  51.364  39.341  1.00  0.00     0.076 A 
HETATM   30  C   UNL     1      30.700  52.368  40.181  1.00  0.00     0.098 A 
HETATM   31  C   UNL     1      32.026  52.815  40.042  1.00  0.00     0.075 A 
HETATM   32  C   UNL     1      32.835  52.314  39.026  1.00  0.00     0.070 A 
HETATM   33  C   UNL     1      32.328  51.350  38.164  1.00  0.00     0.039 A 
HETATM   34  C   UNL     1      31.019  50.890  38.312  1.00  0.00     0.035 A 
BRANCH  30  35
HETATM   35  O   UNL     1      29.908  52.916  41.159  1.00  0.00    -0.354 OA
HETATM   36  C   UNL     1      30.532  52.837  42.450  1.00  0.00     0.210 C 
ENDBRANCH  30  35
BRANCH  32  37
HETATM   37  O   UNL     1      34.139  52.660  38.811  1.00  0.00    -0.356 OA
HETATM   38  C   UNL     1      35.097  51.638  39.071  1.00  0.00     0.210 C 
ENDBRANCH  32  37
ENDBRANCH   2  29
TORSDOF 11
ENDMDL
MODEL 5
REMARK VINA RESULT:      -7.4      3.033      8.132
REMARK  11 active torsions:
REMARK  status: ('A' for Active; 'I' for Inactive)
REMARK    1  A    between atoms: C_2  and  N_3 
REMARK    2  A    between atoms: N_3  and  C_5 
REMARK    3  A    between atoms: N_3  and  C_34 
REMARK    4  A    between atoms: C_5  and  C_6 
REMARK    5  A    between atoms: C_6  and  C_7 
REMARK    6  A    between atoms: C_7  and  N_8 
REMARK       I    between atoms: N_8  and  C_9 
REMARK    7  A    between atoms: C_9  and  C_10 
REMARK    8  A    between atoms: C_10  and  O_11 
REMARK    9  A    between atoms: N_12  and  C_13 
REMARK   10  A    between atoms: C_14  and  O_15 
REMARK   11  A    between atoms: C_18  and  O_19 
ROOT
HETATM    1  C   UNL     1      24.590  44.632  50.823  1.00  0.00     0.256 C 
HETATM    2  N   UNL     1      25.614  45.469  51.487  1.00  0.00    -0.251 N 
HETATM    3  C   UNL     1      25.489  46.852  51.501  1.00  0.00     0.330 C 
HETATM    4  O   UNL     1      26.143  47.612  52.215  1.00  0.00    -0.246 OA
HETATM    5  N   UNL     1      24.641  47.423  50.605  1.00  0.00    -0.308 N 
HETATM    6  C   UNL     1      23.893  46.748  49.659  1.00  0.00     0.048 A 
HETATM    7  C   UNL     1      23.864  45.360  49.693  1.00  0.00     0.035 A 
HETATM    8  C   UNL     1      23.178  47.472  48.702  1.00  0.00     0.031 A 
HETATM    9  C   UNL     1      22.424  46.799  47.743  1.00  0.00     0.021 A 
HETATM   10  C   UNL     1      22.371  45.409  47.767  1.00  0.00     0.011 A 
HETATM   11 BR   UNL     1      21.354  44.485  46.470  1.00  0.00    -0.051 Br
HETATM   12  C   UNL     1      23.065  44.691  48.743  1.00  0.00     0.034 A 
HETATM   13  H   UNL     1      24.614  48.435  50.649  1.00  0.00     0.170 HD
ENDROOT
BRANCH   1  14
HETATM   14  C   UNL     1      25.255  43.325  50.160  1.00  0.00     0.279 C 
HETATM   15  N   UNL     1      25.122  42.143  50.892  1.00  0.00    -0.356 N 
HETATM   16  H   UNL     1      24.336  42.123  51.534  1.00  0.00     0.162 HD
HETATM   17  O   UNL     1      25.972  43.368  49.158  1.00  0.00    -0.268 OA
BRANCH  15  18
HETATM   18  C   UNL     1      25.630  40.899  50.356  1.00  0.00     0.124 C 
BRANCH  18  19
HETATM   19  C   UNL     1      26.885  40.425  51.088  1.00  0.00     0.047 C 
BRANCH  19  20
HETATM   20  C   UNL     1      28.199  40.953  50.510  1.00  0.00     0.236 C 
BRANCH  20  21
HETATM   21  N   UNL     1      28.870  39.977  49.552  1.00  0.00    -0.072 N 
HETATM   22  H   UNL     1      29.880  40.148  49.613  1.00  0.00     0.279 HD
BRANCH  21  23
HETATM   23  C   UNL     1      28.515  40.254  48.097  1.00  0.00     0.230 C 
HETATM   24  C   UNL     1      27.743  39.085  47.506  1.00  0.00     0.034 C 
ENDBRANCH  21  23
BRANCH  21  25
HETATM   25  C   UNL     1      28.705  38.508  49.910  1.00  0.00     0.230 C 
HETATM   26  C   UNL     1      29.867  37.964  50.718  1.00  0.00     0.034 C 
ENDBRANCH  21  25
ENDBRANCH  20  21
ENDBRANCH  19  20
ENDBRANCH  18  19
ENDBRANCH  15  18
ENDBRANCH   1  14
BRANCH   1  27
HETATM   27  O   UNL     1      23.558  44.354  51.748  1.00  0.00    -0.359 OA
HETATM   28  H   UNL     1      23.948  43.707  52.363  1.00  0.00     0.213 HD
ENDBRANCH   1  27
BRANCH   2  29
HETATM   29  C   UNL     1      26.686  44.873  52.258  1.00  0.00     0.076 A 
HETATM   30  C   UNL     1      26.605  44.547  53.624  1.00  0.00     0.098 A 
HETATM   31  C   UNL     1      27.622  43.808  54.254  1.00  0.00     0.075 A 
HETATM   32  C   UNL     1      28.762  43.435  53.547  1.00  0.00     0.070 A 
HETATM   33  C   UNL     1      28.876  43.781  52.207  1.00  0.00     0.039 A 
HETATM   34  C   UNL     1      27.858  44.498  51.574  1.00  0.00     0.035 A 
BRANCH  30  35
HETATM   35  O   UNL     1      25.516  44.946  54.358  1.00  0.00    -0.354 OA
HETATM   36  C   UNL     1      24.998  43.874  55.161  1.00  0.00     0.210 C 
ENDBRANCH  30  35
BRANCH  32  37
HETATM   37  O   UNL     1      29.799  42.702  54.050  1.00  0.00    -0.356 OA
HETATM   38  C   UNL     1      30.475  43.277  55.164  1.00  0.00     0.210 C 
ENDBRANCH  32  37
ENDBRANCH   2  29
TORSDOF 11
ENDMDL
MODEL 6
REMARK VINA RESULT:      -7.2      2.318      3.928
REMARK  11 active torsions:
REMARK  status: ('A' for Active; 'I' for Inactive)
REMARK    1  A    between atoms: C_2  and  N_3 
REMARK    2  A    between atoms: N_3  and  C_5 
REMARK    3  A    between atoms: N_3  and  C_34 
REMARK    4  A    between atoms: C_5  and  C_6 
REMARK    5  A    between atoms: C_6  and  C_7 
REMARK    6  A    between atoms: C_7  and  N_8 
REMARK       I    between atoms: N_8  and  C_9 
REMARK    7  A    between atoms: C_9  and  C_10 
REMARK    8  A    between atoms: C_10  and  O_11 
REMARK    9  A    between atoms: N_12  and  C_13 
REMARK   10  A    between atoms: C_14  and  O_15 
REMARK   11  A    between atoms: C_18  and  O_19 
ROOT
HETATM    1  C   UNL     1      26.897  41.105  50.659  1.00  0.00     0.256 C 
HETATM    2  N   UNL     1      27.837  40.248  49.903  1.00  0.00    -0.251 N 
HETATM    3  C   UNL     1      28.898  39.629  50.550  1.00  0.00     0.330 C 
HETATM    4  O   UNL     1      29.585  38.725  50.074  1.00  0.00    -0.246 OA
HETATM    5  N   UNL     1      29.267  40.107  51.769  1.00  0.00    -0.308 N 
HETATM    6  C   UNL     1      28.684  41.175  52.426  1.00  0.00     0.048 A 
HETATM    7  C   UNL     1      27.529  41.737  51.897  1.00  0.00     0.035 A 
HETATM    8  C   UNL     1      29.259  41.654  53.605  1.00  0.00     0.031 A 
HETATM    9  C   UNL     1      28.680  42.732  54.271  1.00  0.00     0.021 A 
HETATM   10  C   UNL     1      27.515  43.302  53.766  1.00  0.00     0.011 A 
HETATM   11 BR   UNL     1      26.721  44.765  54.659  1.00  0.00    -0.051 Br
HETATM   12  C   UNL     1      26.928  42.800  52.603  1.00  0.00     0.034 A 
HETATM   13  H   UNL     1      30.062  39.630  52.177  1.00  0.00     0.170 HD
ENDROOT
BRANCH   1  14
HETATM   14  C   UNL     1      26.371  42.325  49.751  1.00  0.00     0.279 C 
HETATM   15  N   UNL     1      25.073  42.192  49.255  1.00  0.00    -0.356 N 
HETATM   16  H   UNL     1      24.470  41.578  49.791  1.00  0.00     0.162 HD
HETATM   17  O   UNL     1      27.098  43.246  49.374  1.00  0.00    -0.268 OA
BRANCH  15  18
HETATM   18  C   UNL     1      24.482  43.261  48.479  1.00  0.00     0.124 C 
BRANCH  18  19
HETATM   19  C   UNL     1      23.420  44.028  49.267  1.00  0.00     0.047 C 
BRANCH  19  20
HETATM   20  C   UNL     1      23.291  45.505  48.895  1.00  0.00     0.236 C 
BRANCH  20  21
HETATM   21  N   UNL     1      23.786  46.446  49.986  1.00  0.00    -0.072 N 
HETATM   22  H   UNL     1      22.982  46.647  50.591  1.00  0.00     0.279 HD
BRANCH  21  23
HETATM   23  C   UNL     1      24.206  47.803  49.436  1.00  0.00     0.230 C 
HETATM   24  C   UNL     1      22.989  48.686  49.214  1.00  0.00     0.034 C 
ENDBRANCH  21  23
BRANCH  21  25
HETATM   25  C   UNL     1      24.834  45.857  50.916  1.00  0.00     0.230 C 
HETATM   26  C   UNL     1      25.505  46.904  51.786  1.00  0.00     0.034 C 
ENDBRANCH  21  25
ENDBRANCH  20  21
ENDBRANCH  19  20
ENDBRANCH  18  19
ENDBRANCH  15  18
ENDBRANCH   1  14
BRANCH   1  27
HETATM   27  O   UNL     1      25.870  40.293  51.195  1.00  0.00    -0.359 OA
HETATM   28  H   UNL     1      25.690  40.675  52.072  1.00  0.00     0.213 HD
ENDBRANCH   1  27
BRANCH   2  29
HETATM   29  C   UNL     1      27.597  39.914  48.514  1.00  0.00     0.076 A 
HETATM   30  C   UNL     1      26.709  38.918  48.071  1.00  0.00     0.098 A 
HETATM   31  C   UNL     1      26.398  38.779  46.706  1.00  0.00     0.075 A 
HETATM   32  C   UNL     1      27.015  39.590  45.758  1.00  0.00     0.070 A 
HETATM   33  C   UNL     1      27.924  40.554  46.174  1.00  0.00     0.039 A 
HETATM   34  C   UNL     1      28.219  40.707  47.530  1.00  0.00     0.035 A 
BRANCH  30  35
HETATM   35  O   UNL     1      26.125  38.070  48.979  1.00  0.00    -0.354 OA
HETATM   36  C   UNL     1      26.807  36.808  49.039  1.00  0.00     0.210 C 
ENDBRANCH  30  35
BRANCH  32  37
HETATM   37  O   UNL     1      26.776  39.557  44.413  1.00  0.00    -0.356 OA
HETATM   38  C   UNL     1      27.307  38.430  43.722  1.00  0.00     0.210 C 
ENDBRANCH  32  37
ENDBRANCH   2  29
TORSDOF 11
ENDMDL
MODEL 7
REMARK VINA RESULT:      -7.2     11.394     13.203
REMARK  11 active torsions:
REMARK  status: ('A' for Active; 'I' for Inactive)
REMARK    1  A    between atoms: C_2  and  N_3 
REMARK    2  A    between atoms: N_3  and  C_5 
REMARK    3  A    between atoms: N_3  and  C_34 
REMARK    4  A    between atoms: C_5  and  C_6 
REMARK    5  A    between atoms: C_6  and  C_7 
REMARK    6  A    between atoms: C_7  and  N_8 
REMARK       I    between atoms: N_8  and  C_9 
REMARK    7  A    between atoms: C_9  and  C_10 
REMARK    8  A    between atoms: C_10  and  O_11 
REMARK    9  A    between atoms: N_12  and  C_13 
REMARK   10  A    between atoms: C_14  and  O_15 
REMARK   11  A    between atoms: C_18  and  O_19 
ROOT
HETATM    1  C   UNL     1      28.708  49.117  39.071  1.00  0.00     0.256 C 
HETATM    2  N   UNL     1      27.633  48.179  39.465  1.00  0.00    -0.251 N 
HETATM    3  C   UNL     1      26.470  48.652  40.057  1.00  0.00     0.330 C 
HETATM    4  O   UNL     1      25.436  47.999  40.203  1.00  0.00    -0.246 OA
HETATM    5  N   UNL     1      26.491  49.901  40.592  1.00  0.00    -0.308 N 
HETATM    6  C   UNL     1      27.582  50.751  40.614  1.00  0.00     0.048 A 
HETATM    7  C   UNL     1      28.725  50.392  39.911  1.00  0.00     0.035 A 
HETATM    8  C   UNL     1      27.507  51.949  41.329  1.00  0.00     0.031 A 
HETATM    9  C   UNL     1      28.603  52.808  41.359  1.00  0.00     0.021 A 
HETATM   10  C   UNL     1      29.753  52.474  40.651  1.00  0.00     0.011 A 
HETATM   11 BR   UNL     1      31.247  53.631  40.686  1.00  0.00    -0.051 Br
HETATM   12  C   UNL     1      29.812  51.290  39.915  1.00  0.00     0.034 A 
HETATM   13  H   UNL     1      25.620  50.179  41.029  1.00  0.00     0.170 HD
ENDROOT
BRANCH   1  14
HETATM   14  C   UNL     1      30.157  48.442  39.251  1.00  0.00     0.279 C 
HETATM   15  N   UNL     1      30.567  48.232  40.570  1.00  0.00    -0.356 N 
HETATM   16  H   UNL     1      29.813  48.158  41.245  1.00  0.00     0.162 HD
HETATM   17  O   UNL     1      30.936  48.259  38.313  1.00  0.00    -0.268 OA
BRANCH  15  18
HETATM   18  C   UNL     1      31.826  47.575  40.841  1.00  0.00     0.124 C 
BRANCH  18  19
HETATM   19  C   UNL     1      32.742  48.424  41.722  1.00  0.00     0.047 C 
BRANCH  19  20
HETATM   20  C   UNL     1      33.168  49.756  41.103  1.00  0.00     0.236 C 
BRANCH  20  21
HETATM   21  N   UNL     1      33.191  50.904  42.105  1.00  0.00    -0.072 N 
HETATM   22  H   UNL     1      32.933  51.753  41.589  1.00  0.00     0.279 HD
BRANCH  21  23
HETATM   23  C   UNL     1      34.590  51.182  42.638  1.00  0.00     0.230 C 
HETATM   24  C   UNL     1      35.639  50.749  41.626  1.00  0.00     0.034 C 
ENDBRANCH  21  23
BRANCH  21  25
HETATM   25  C   UNL     1      32.165  50.804  43.222  1.00  0.00     0.230 C 
HETATM   26  C   UNL     1      32.459  51.740  44.378  1.00  0.00     0.034 C 
ENDBRANCH  21  25
ENDBRANCH  20  21
ENDBRANCH  19  20
ENDBRANCH  18  19
ENDBRANCH  15  18
ENDBRANCH   1  14
BRANCH   1  27
HETATM   27  O   UNL     1      28.443  49.589  37.765  1.00  0.00    -0.359 OA
HETATM   28  H   UNL     1      27.853  50.353  37.896  1.00  0.00     0.213 HD
ENDBRANCH   1  27
BRANCH   2  29
HETATM   29  C   UNL     1      27.699  46.773  39.118  1.00  0.00     0.076 A 
HETATM   30  C   UNL     1      27.480  46.255  37.828  1.00  0.00     0.098 A 
HETATM   31  C   UNL     1      27.739  44.905  37.536  1.00  0.00     0.075 A 
HETATM   32  C   UNL     1      28.162  44.036  38.539  1.00  0.00     0.070 A 
HETATM   33  C   UNL     1      28.347  44.522  39.827  1.00  0.00     0.039 A 
HETATM   34  C   UNL     1      28.110  45.867  40.115  1.00  0.00     0.035 A 
BRANCH  30  35
HETATM   35  O   UNL     1      27.015  47.078  36.833  1.00  0.00    -0.354 OA
HETATM   36  C   UNL     1      25.587  46.988  36.697  1.00  0.00     0.210 C 
ENDBRANCH  30  35
BRANCH  32  37
HETATM   37  O   UNL     1      28.462  42.715  38.366  1.00  0.00    -0.356 OA
HETATM   38  C   UNL     1      28.292  41.891  39.516  1.00  0.00     0.210 C 
ENDBRANCH  32  37
ENDBRANCH   2  29
TORSDOF 11
ENDMDL
MODEL 8
REMARK VINA RESULT:      -7.1      1.689      2.792
REMARK  11 active torsions:
REMARK  status: ('A' for Active; 'I' for Inactive)
REMARK    1  A    between atoms: C_2  and  N_3 
REMARK    2  A    between atoms: N_3  and  C_5 
REMARK    3  A    between atoms: N_3  and  C_34 
REMARK    4  A    between atoms: C_5  and  C_6 
REMARK    5  A    between atoms: C_6  and  C_7 
REMARK    6  A    between atoms: C_7  and  N_8 
REMARK       I    between atoms: N_8  and  C_9 
REMARK    7  A    between atoms: C_9  and  C_10 
REMARK    8  A    between atoms: C_10  and  O_11 
REMARK    9  A    between atoms: N_12  and  C_13 
REMARK   10  A    between atoms: C_14  and  O_15 
REMARK   11  A    between atoms: C_18  and  O_19 
ROOT
HETATM    1  C   UNL     1      26.226  43.819  52.135  1.00  0.00     0.256 C 
HETATM    2  N   UNL     1      26.885  42.576  51.678  1.00  0.00    -0.251 N 
HETATM    3  C   UNL     1      27.715  41.866  52.534  1.00  0.00     0.330 C 
HETATM    4  O   UNL     1      28.116  40.718  52.339  1.00  0.00    -0.246 OA
HETATM    5  N   UNL     1      28.194  42.507  53.633  1.00  0.00    -0.308 N 
HETATM    6  C   UNL     1      27.938  43.822  53.975  1.00  0.00     0.048 A 
HETATM    7  C   UNL     1      27.001  44.536  53.239  1.00  0.00     0.035 A 
HETATM    8  C   UNL     1      28.616  44.398  55.052  1.00  0.00     0.031 A 
HETATM    9  C   UNL     1      28.366  45.724  55.400  1.00  0.00     0.021 A 
HETATM   10  C   UNL     1      27.422  46.452  54.684  1.00  0.00     0.011 A 
HETATM   11 BR   UNL     1      27.076  48.252  55.146  1.00  0.00    -0.051 Br
HETATM   12  C   UNL     1      26.727  45.863  53.627  1.00  0.00     0.034 A 
HETATM   13  H   UNL     1      28.813  41.944  54.204  1.00  0.00     0.170 HD
ENDROOT
BRANCH   1  14
HETATM   14  C   UNL     1      26.085  44.875  50.928  1.00  0.00     0.279 C 
HETATM   15  N   UNL     1      24.778  45.214  50.572  1.00  0.00    -0.356 N 
HETATM   16  H   UNL     1      24.088  45.087  51.305  1.00  0.00     0.162 HD
HETATM   17  O   UNL     1      27.041  45.250  50.246  1.00  0.00    -0.268 OA
BRANCH  15  18
HETATM   18  C   UNL     1      24.542  46.201  49.541  1.00  0.00     0.124 C 
BRANCH  18  19
HETATM   19  C   UNL     1      24.290  47.592  50.122  1.00  0.00     0.047 C 
BRANCH  19  20
HETATM   20  C   UNL     1      24.360  48.731  49.104  1.00  0.00     0.236 C 
BRANCH  20  21
HETATM   21  N   UNL     1      23.107  48.847  48.245  1.00  0.00    -0.072 N 
HETATM   22  H   UNL     1      23.236  48.217  47.445  1.00  0.00     0.279 HD
BRANCH  21  23
HETATM   23  C   UNL     1      22.951  50.231  47.628  1.00  0.00     0.230 C 
HETATM   24  C   UNL     1      22.590  51.251  48.696  1.00  0.00     0.034 C 
ENDBRANCH  21  23
BRANCH  21  25
HETATM   25  C   UNL     1      21.825  48.371  48.908  1.00  0.00     0.230 C 
HETATM   26  C   UNL     1      20.736  48.027  47.910  1.00  0.00     0.034 C 
ENDBRANCH  21  25
ENDBRANCH  20  21
ENDBRANCH  19  20
ENDBRANCH  18  19
ENDBRANCH  15  18
ENDBRANCH   1  14
BRANCH   1  27
HETATM   27  O   UNL     1      25.002  43.483  52.760  1.00  0.00    -0.359 OA
HETATM   28  H   UNL     1      25.246  43.284  53.682  1.00  0.00     0.213 HD
ENDBRANCH   1  27
BRANCH   2  29
HETATM   29  C   UNL     1      26.573  41.991  50.389  1.00  0.00     0.076 A 
HETATM   30  C   UNL     1      25.273  41.817  49.882  1.00  0.00     0.098 A 
HETATM   31  C   UNL     1      25.062  41.410  48.552  1.00  0.00     0.075 A 
HETATM   32  C   UNL     1      26.144  41.111  47.728  1.00  0.00     0.070 A 
HETATM   33  C   UNL     1      27.435  41.241  48.224  1.00  0.00     0.039 A 
HETATM   34  C   UNL     1      27.646  41.664  49.538  1.00  0.00     0.035 A 
BRANCH  30  35
HETATM   35  O   UNL     1      24.188  42.056  50.687  1.00  0.00    -0.354 OA
HETATM   36  C   UNL     1      23.027  42.414  49.920  1.00  0.00     0.210 C 
ENDBRANCH  30  35
BRANCH  32  37
HETATM   37  O   UNL     1      26.059  40.727  46.420  1.00  0.00    -0.356 OA
HETATM   38  C   UNL     1      27.279  40.773  45.686  1.00  0.00     0.210 C 
ENDBRANCH  32  37
ENDBRANCH   2  29
TORSDOF 11
ENDMDL
MODEL 9
REMARK VINA RESULT:      -7.1      4.594      8.823
REMARK  11 active torsions:
REMARK  status: ('A' for Active; 'I' for Inactive)
REMARK    1  A    between atoms: C_2  and  N_3 
REMARK    2  A    between atoms: N_3  and  C_5 
REMARK    3  A    between atoms: N_3  and  C_34 
REMARK    4  A    between atoms: C_5  and  C_6 
REMARK    5  A    between atoms: C_6  and  C_7 
REMARK    6  A    between atoms: C_7  and  N_8 
REMARK       I    between atoms: N_8  and  C_9 
REMARK    7  A    between atoms: C_9  and  C_10 
REMARK    8  A    between atoms: C_10  and  O_11 
REMARK    9  A    between atoms: N_12  and  C_13 
REMARK   10  A    between atoms: C_14  and  O_15 
REMARK   11  A    between atoms: C_18  and  O_19 
ROOT
HETATM    1  C   UNL     1      20.409  45.835  48.334  1.00  0.00     0.256 C 
HETATM    2  N   UNL     1      19.165  46.611  48.136  1.00  0.00    -0.251 N 
HETATM    3  C   UNL     1      18.038  46.004  47.597  1.00  0.00     0.330 C 
HETATM    4  O   UNL     1      16.904  46.483  47.610  1.00  0.00    -0.246 OA
HETATM    5  N   UNL     1      18.204  44.831  46.930  1.00  0.00    -0.308 N 
HETATM    6  C   UNL     1      19.409  44.184  46.724  1.00  0.00     0.048 A 
HETATM    7  C   UNL     1      20.545  44.664  47.363  1.00  0.00     0.035 A 
HETATM    8  C   UNL     1      19.454  43.062  45.893  1.00  0.00     0.031 A 
HETATM    9  C   UNL     1      20.665  42.407  45.678  1.00  0.00     0.021 A 
HETATM   10  C   UNL     1      21.812  42.864  46.318  1.00  0.00     0.011 A 
HETATM   11 BR   UNL     1      23.460  41.985  46.032  1.00  0.00    -0.051 Br
HETATM   12  C   UNL     1      21.756  43.968  47.171  1.00  0.00     0.034 A 
HETATM   13  H   UNL     1      17.350  44.453  46.540  1.00  0.00     0.170 HD
ENDROOT
BRANCH   1  14
HETATM   14  C   UNL     1      21.707  46.759  48.107  1.00  0.00     0.279 C 
HETATM   15  N   UNL     1      22.438  47.067  49.256  1.00  0.00    -0.356 N 
HETATM   16  H   UNL     1      22.331  46.408  50.021  1.00  0.00     0.162 HD
HETATM   17  O   UNL     1      21.969  47.300  47.031  1.00  0.00    -0.268 OA
BRANCH  15  18
HETATM   18  C   UNL     1      23.657  47.840  49.154  1.00  0.00     0.124 C 
BRANCH  18  19
HETATM   19  C   UNL     1      24.641  47.517  50.278  1.00  0.00     0.047 C 
BRANCH  19  20
HETATM   20  C   UNL     1      24.651  46.052  50.716  1.00  0.00     0.236 C 
BRANCH  20  21
HETATM   21  N   UNL     1      25.630  45.194  49.924  1.00  0.00    -0.072 N 
HETATM   22  H   UNL     1      26.097  45.818  49.256  1.00  0.00     0.279 HD
BRANCH  21  23
HETATM   23  C   UNL     1      24.925  44.157  49.059  1.00  0.00     0.230 C 
HETATM   24  C   UNL     1      24.180  43.158  49.929  1.00  0.00     0.034 C 
ENDBRANCH  21  23
BRANCH  21  25
HETATM   25  C   UNL     1      26.759  44.585  50.739  1.00  0.00     0.230 C 
HETATM   26  C   UNL     1      26.707  44.979  52.203  1.00  0.00     0.034 C 
ENDBRANCH  21  25
ENDBRANCH  20  21
ENDBRANCH  19  20
ENDBRANCH  18  19
ENDBRANCH  15  18
ENDBRANCH   1  14
BRANCH   1  27
HETATM   27  O   UNL     1      20.357  45.206  49.600  1.00  0.00    -0.359 OA
HETATM   28  H   UNL     1      21.265  45.277  49.946  1.00  0.00     0.213 HD
ENDBRANCH   1  27
BRANCH   2  29
HETATM   29  C   UNL     1      19.040  47.968  48.626  1.00  0.00     0.076 A 
HETATM   30  C   UNL     1      19.004  49.115  47.811  1.00  0.00     0.098 A 
HETATM   31  C   UNL     1      18.700  50.377  48.349  1.00  0.00     0.075 A 
HETATM   32  C   UNL     1      18.487  50.527  49.717  1.00  0.00     0.070 A 
HETATM   33  C   UNL     1      18.556  49.412  50.543  1.00  0.00     0.039 A 
HETATM   34  C   UNL     1      18.838  48.153  50.007  1.00  0.00     0.035 A 
BRANCH  30  35
HETATM   35  O   UNL     1      19.260  49.005  46.467  1.00  0.00    -0.354 OA
HETATM   36  C   UNL     1      18.095  49.301  45.681  1.00  0.00     0.210 C 
ENDBRANCH  30  35
BRANCH  32  37
HETATM   37  O   UNL     1      18.166  51.697  50.345  1.00  0.00    -0.356 OA
HETATM   38  C   UNL     1      16.967  52.324  49.899  1.00  0.00     0.210 C 
ENDBRANCH  32  37
ENDBRANCH   2  29
TORSDOF 11
ENDMDL
MODEL 10
REMARK VINA RESULT:      -7.0      8.219     11.786
REMARK  11 active torsions:
REMARK  status: ('A' for Active; 'I' for Inactive)
REMARK    1  A    between atoms: C_2  and  N_3 
REMARK    2  A    between atoms: N_3  and  C_5 
REMARK    3  A    between atoms: N_3  and  C_34 
REMARK    4  A    between atoms: C_5  and  C_6 
REMARK    5  A    between atoms: C_6  and  C_7 
REMARK    6  A    between atoms: C_7  and  N_8 
REMARK       I    between atoms: N_8  and  C_9 
REMARK    7  A    between atoms: C_9  and  C_10 
REMARK    8  A    between atoms: C_10  and  O_11 
REMARK    9  A    between atoms: N_12  and  C_13 
REMARK   10  A    between atoms: C_14  and  O_15 
REMARK   11  A    between atoms: C_18  and  O_19 
ROOT
HETATM    1  C   UNL     1      17.973  51.299  46.976  1.00  0.00     0.256 C 
HETATM    2  N   UNL     1      16.617  51.096  47.532  1.00  0.00    -0.251 N 
HETATM    3  C   UNL     1      16.367  51.335  48.877  1.00  0.00     0.330 C 
HETATM    4  O   UNL     1      15.247  51.426  49.381  1.00  0.00    -0.246 OA
HETATM    5  N   UNL     1      17.430  51.395  49.721  1.00  0.00    -0.308 N 
HETATM    6  C   UNL     1      18.755  51.224  49.364  1.00  0.00     0.048 A 
HETATM    7  C   UNL     1      19.078  51.127  48.017  1.00  0.00     0.035 A 
HETATM    8  C   UNL     1      19.733  51.162  50.359  1.00  0.00     0.031 A 
HETATM    9  C   UNL     1      21.070  50.985  50.007  1.00  0.00     0.021 A 
HETATM   10  C   UNL     1      21.417  50.899  48.662  1.00  0.00     0.011 A 
HETATM   11 BR   UNL     1      23.226  50.658  48.172  1.00  0.00    -0.051 Br
HETATM   12  C   UNL     1      20.438  50.991  47.671  1.00  0.00     0.034 A 
HETATM   13  H   UNL     1      17.180  51.548  50.691  1.00  0.00     0.170 HD
ENDROOT
BRANCH   1  14
HETATM   14  C   UNL     1      18.284  50.233  45.811  1.00  0.00     0.279 C 
HETATM   15  N   UNL     1      18.484  48.917  46.234  1.00  0.00    -0.356 N 
HETATM   16  H   UNL     1      18.056  48.684  47.124  1.00  0.00     0.162 HD
HETATM   17  O   UNL     1      18.494  50.557  44.640  1.00  0.00    -0.268 OA
BRANCH  15  18
HETATM   18  C   UNL     1      18.709  47.871  45.261  1.00  0.00     0.124 C 
BRANCH  18  19
HETATM   19  C   UNL     1      18.264  46.501  45.774  1.00  0.00     0.047 C 
BRANCH  19  20
HETATM   20  C   UNL     1      19.196  45.874  46.811  1.00  0.00     0.236 C 
BRANCH  20  21
HETATM   21  N   UNL     1      18.728  46.086  48.246  1.00  0.00    -0.072 N 
HETATM   22  H   UNL     1      18.908  45.209  48.748  1.00  0.00     0.279 HD
BRANCH  21  23
HETATM   23  C   UNL     1      17.222  46.287  48.342  1.00  0.00     0.230 C 
HETATM   24  C   UNL     1      16.903  47.545  49.133  1.00  0.00     0.034 C 
ENDBRANCH  21  23
BRANCH  21  25
HETATM   25  C   UNL     1      19.496  47.142  49.024  1.00  0.00     0.230 C 
HETATM   26  C   UNL     1      20.916  47.327  48.524  1.00  0.00     0.034 C 
ENDBRANCH  21  25
ENDBRANCH  20  21
ENDBRANCH  19  20
ENDBRANCH  18  19
ENDBRANCH  15  18
ENDBRANCH   1  14
BRANCH   1  27
HETATM   27  O   UNL     1      18.105  52.650  46.580  1.00  0.00    -0.359 OA
HETATM   28  H   UNL     1      18.661  53.054  47.270  1.00  0.00     0.213 HD
ENDBRANCH   1  27
BRANCH   2  29
HETATM   29  C   UNL     1      15.492  50.785  46.674  1.00  0.00     0.076 A 
HETATM   30  C   UNL     1      14.894  51.690  45.778  1.00  0.00     0.098 A 
HETATM   31  C   UNL     1      13.927  51.260  44.852  1.00  0.00     0.075 A 
HETATM   32  C   UNL     1      13.497  49.936  44.846  1.00  0.00     0.070 A 
HETATM   33  C   UNL     1      14.049  49.037  45.750  1.00  0.00     0.039 A 
HETATM   34  C   UNL     1      15.024  49.457  46.656  1.00  0.00     0.035 A 
BRANCH  30  35
HETATM   35  O   UNL     1      15.262  53.012  45.795  1.00  0.00    -0.354 OA
HETATM   36  C   UNL     1      14.332  53.810  46.544  1.00  0.00     0.210 C 
ENDBRANCH  30  35
BRANCH  32  37
HETATM   37  O   UNL     1      12.581  49.406  43.982  1.00  0.00    -0.356 OA
HETATM   38  C   UNL     1      12.673  47.999  43.778  1.00  0.00     0.210 C 
ENDBRANCH  32  37
ENDBRANCH   2  29
TORSDOF 11
ENDMDL
