MODEL 1
REMARK VINA RESULT:      -9.0      0.000      0.000
REMARK  5 active torsions:
REMARK  status: ('A' for Active; 'I' for Inactive)
REMARK    1  A    between atoms: N_3  and  C_4 
REMARK    2  A    between atoms: C_5  and  C_6 
REMARK    3  A    between atoms: C_15  and  C_16 
REMARK       I    between atoms: C_16  and  N_17 
REMARK    4  A    between atoms: N_17  and  N_18 
REMARK       I    between atoms: N_18  and  C_19 
REMARK    5  A    between atoms: C_19  and  C_20 
ROOT
HETATM    1  C   UNL     1      19.465  48.129  46.364  1.00  0.00     0.070 C 
HETATM    2  C   UNL     1      20.582  47.744  47.306  1.00  0.00     0.036 A 
HETATM    3  N   UNL     1      20.908  48.571  48.388  1.00  0.00    -0.237 N 
HETATM    4  N   UNL     1      22.009  48.384  49.183  1.00  0.00    -0.158 NA
HETATM    5  C   UNL     1      22.759  47.335  48.984  1.00  0.00     0.196 A 
HETATM    6  C   UNL     1      22.406  46.326  47.923  1.00  0.00     0.209 A 
HETATM    7  O   UNL     1      23.046  45.289  47.817  1.00  0.00    -0.286 OA
HETATM    8  C   UNL     1      21.282  46.633  47.034  1.00  0.00     0.084 A 
ENDROOT
BRANCH   5   9
HETATM    9  C   UNL     1      24.000  47.194  49.861  1.00  0.00     0.294 C 
HETATM   10  N   UNL     1      24.186  45.960  50.454  1.00  0.00    -0.261 N 
HETATM   11  H   UNL     1      23.631  45.134  50.197  1.00  0.00     0.190 HD
HETATM   12  O   UNL     1      24.780  48.128  50.008  1.00  0.00    -0.264 OA
BRANCH  10  13
HETATM   13  N   UNL     1      25.402  45.728  51.113  1.00  0.00    -0.262 N 
HETATM   14  C   UNL     1      25.435  44.849  52.175  1.00  0.00     0.286 C 
HETATM   15  O   UNL     1      24.412  44.344  52.635  1.00  0.00    -0.264 OA
HETATM   16  H   UNL     1      26.241  46.080  50.659  1.00  0.00     0.190 HD
BRANCH  14  17
HETATM   17  C   UNL     1      26.750  44.557  52.703  1.00  0.00     0.102 A 
HETATM   18  N   UNL     1      27.682  43.864  51.959  1.00  0.00    -0.361 N 
HETATM   19  H   UNL     1      27.508  43.523  51.020  1.00  0.00     0.165 HD
HETATM   20  C   UNL     1      28.842  43.712  52.668  1.00  0.00     0.088 A 
HETATM   21  C   UNL     1      28.669  44.318  53.891  1.00  0.00     0.019 A 
HETATM   22  C   UNL     1      27.356  44.849  53.916  1.00  0.00     0.036 A 
ENDBRANCH  14  17
ENDBRANCH  10  13
ENDBRANCH   5   9
BRANCH   3  23
HETATM   23  C   UNL     1      20.161  49.734  48.750  1.00  0.00     0.073 A 
HETATM   24  C   UNL     1      19.018  49.659  49.575  1.00  0.00     0.076 A 
HETATM   25  C   UNL     1      18.300  50.840  49.862  1.00  0.00     0.018 A 
HETATM   26  C   UNL     1      18.708  52.073  49.358  1.00  0.00     0.001 A 
HETATM   27  C   UNL     1      19.832  52.149  48.546  1.00  0.00     0.002 A 
HETATM   28  C   UNL     1      20.546  50.989  48.240  1.00  0.00     0.032 A 
BRANCH  24  29
HETATM   29  C   UNL     1      18.540  48.356  50.167  1.00  0.00     0.419 C 
HETATM   30  F   UNL     1      19.366  47.292  49.943  1.00  0.00    -0.166 F 
HETATM   31  F   UNL     1      18.437  48.422  51.532  1.00  0.00    -0.166 F 
HETATM   32  F   UNL     1      17.300  47.987  49.744  1.00  0.00    -0.166 F 
ENDBRANCH  24  29
ENDBRANCH   3  23
TORSDOF 5
ENDMDL
MODEL 2
REMARK VINA RESULT:      -8.9      7.904     11.535
REMARK  5 active torsions:
REMARK  status: ('A' for Active; 'I' for Inactive)
REMARK    1  A    between atoms: N_3  and  C_4 
REMARK    2  A    between atoms: C_5  and  C_6 
REMARK    3  A    between atoms: C_15  and  C_16 
REMARK       I    between atoms: C_16  and  N_17 
REMARK    4  A    between atoms: N_17  and  N_18 
REMARK       I    between atoms: N_18  and  C_19 
REMARK    5  A    between atoms: C_19  and  C_20 
ROOT
HETATM    1  C   UNL     1      16.106  51.256  45.821  1.00  0.00     0.070 C 
HETATM    2  C   UNL     1      15.699  52.028  47.055  1.00  0.00     0.036 A 
HETATM    3  N   UNL     1      16.045  51.557  48.327  1.00  0.00    -0.237 N 
HETATM    4  N   UNL     1      15.574  52.100  49.494  1.00  0.00    -0.158 NA
HETATM    5  C   UNL     1      14.824  53.166  49.434  1.00  0.00     0.196 A 
HETATM    6  C   UNL     1      14.511  53.814  48.111  1.00  0.00     0.209 A 
HETATM    7  O   UNL     1      13.905  54.876  48.069  1.00  0.00    -0.286 OA
HETATM    8  C   UNL     1      14.950  53.128  46.893  1.00  0.00     0.084 A 
ENDROOT
BRANCH   5   9
HETATM    9  C   UNL     1      14.283  53.708  50.754  1.00  0.00     0.294 C 
HETATM   10  N   UNL     1      15.208  54.303  51.590  1.00  0.00    -0.261 N 
HETATM   11  H   UNL     1      16.164  54.526  51.287  1.00  0.00     0.190 HD
HETATM   12  O   UNL     1      13.093  53.622  51.031  1.00  0.00    -0.264 OA
BRANCH  10  13
HETATM   13  N   UNL     1      14.728  54.976  52.723  1.00  0.00    -0.262 N 
HETATM   14  C   UNL     1      14.732  56.355  52.739  1.00  0.00     0.286 C 
HETATM   15  O   UNL     1      15.246  57.016  51.838  1.00  0.00    -0.264 OA
HETATM   16  H   UNL     1      14.226  54.416  53.407  1.00  0.00     0.190 HD
BRANCH  14  17
HETATM   17  C   UNL     1      14.087  56.968  53.880  1.00  0.00     0.102 A 
HETATM   18  N   UNL     1      14.724  57.053  55.101  1.00  0.00    -0.361 N 
HETATM   19  H   UNL     1      15.659  56.700  55.271  1.00  0.00     0.165 HD
HETATM   20  C   UNL     1      13.917  57.670  56.018  1.00  0.00     0.088 A 
HETATM   21  C   UNL     1      12.739  57.996  55.389  1.00  0.00     0.019 A 
HETATM   22  C   UNL     1      12.842  57.556  54.046  1.00  0.00     0.036 A 
ENDBRANCH  14  17
ENDBRANCH  10  13
ENDBRANCH   5   9
BRANCH   3  23
HETATM   23  C   UNL     1      16.884  50.422  48.551  1.00  0.00     0.073 A 
HETATM   24  C   UNL     1      18.262  50.555  48.824  1.00  0.00     0.076 A 
HETATM   25  C   UNL     1      19.045  49.393  48.995  1.00  0.00     0.018 A 
HETATM   26  C   UNL     1      18.478  48.123  48.911  1.00  0.00     0.001 A 
HETATM   27  C   UNL     1      17.122  47.989  48.642  1.00  0.00     0.002 A 
HETATM   28  C   UNL     1      16.336  49.127  48.456  1.00  0.00     0.032 A 
BRANCH  24  29
HETATM   29  C   UNL     1      18.929  51.904  48.947  1.00  0.00     0.419 C 
HETATM   30  F   UNL     1      18.521  52.645  50.018  1.00  0.00    -0.166 F 
HETATM   31  F   UNL     1      20.285  51.790  49.111  1.00  0.00    -0.166 F 
HETATM   32  F   UNL     1      18.778  52.689  47.846  1.00  0.00    -0.166 F 
ENDBRANCH  24  29
ENDBRANCH   3  23
TORSDOF 5
ENDMDL
MODEL 3
REMARK VINA RESULT:      -8.8      2.784      4.130
REMARK  5 active torsions:
REMARK  status: ('A' for Active; 'I' for Inactive)
REMARK    1  A    between atoms: N_3  and  C_4 
REMARK    2  A    between atoms: C_5  and  C_6 
REMARK    3  A    between atoms: C_15  and  C_16 
REMARK       I    between atoms: C_16  and  N_17 
REMARK    4  A    between atoms: N_17  and  N_18 
REMARK       I    between atoms: N_18  and  C_19 
REMARK    5  A    between atoms: C_19  and  C_20 
ROOT
HETATM    1  C   UNL     1      17.953  51.794  49.907  1.00  0.00     0.070 C 
HETATM    2  C   UNL     1      19.180  50.992  49.542  1.00  0.00     0.036 A 
HETATM    3  N   UNL     1      19.063  49.850  48.740  1.00  0.00    -0.237 N 
HETATM    4  N   UNL     1      20.092  48.977  48.505  1.00  0.00    -0.158 NA
HETATM    5  C   UNL     1      21.275  49.255  48.981  1.00  0.00     0.196 A 
HETATM    6  C   UNL     1      21.517  50.530  49.745  1.00  0.00     0.209 A 
HETATM    7  O   UNL     1      22.649  50.841  50.089  1.00  0.00    -0.286 OA
HETATM    8  C   UNL     1      20.358  51.370  50.058  1.00  0.00     0.084 A 
ENDROOT
BRANCH   5   9
HETATM    9  C   UNL     1      22.379  48.231  48.736  1.00  0.00     0.294 C 
HETATM   10  N   UNL     1      23.110  47.849  49.844  1.00  0.00    -0.261 N 
HETATM   11  H   UNL     1      22.831  48.097  50.801  1.00  0.00     0.190 HD
HETATM   12  O   UNL     1      22.582  47.777  47.615  1.00  0.00    -0.264 OA
BRANCH  10  13
HETATM   13  N   UNL     1      24.005  46.779  49.700  1.00  0.00    -0.262 N 
HETATM   14  C   UNL     1      25.032  46.633  50.609  1.00  0.00     0.286 C 
HETATM   15  O   UNL     1      25.257  47.473  51.479  1.00  0.00    -0.264 OA
HETATM   16  H   UNL     1      23.745  46.053  49.038  1.00  0.00     0.190 HD
BRANCH  14  17
HETATM   17  C   UNL     1      25.819  45.426  50.474  1.00  0.00     0.102 A 
HETATM   18  N   UNL     1      25.757  44.656  49.330  1.00  0.00    -0.361 N 
HETATM   19  H   UNL     1      25.171  44.881  48.535  1.00  0.00     0.165 HD
HETATM   20  C   UNL     1      26.585  43.573  49.440  1.00  0.00     0.088 A 
HETATM   21  C   UNL     1      27.202  43.637  50.667  1.00  0.00     0.019 A 
HETATM   22  C   UNL     1      26.721  44.800  51.320  1.00  0.00     0.036 A 
ENDBRANCH  14  17
ENDBRANCH  10  13
ENDBRANCH   5   9
BRANCH   3  23
HETATM   23  C   UNL     1      17.842  49.437  48.124  1.00  0.00     0.073 A 
HETATM   24  C   UNL     1      17.397  49.991  46.904  1.00  0.00     0.076 A 
HETATM   25  C   UNL     1      16.161  49.570  46.368  1.00  0.00     0.018 A 
HETATM   26  C   UNL     1      15.385  48.610  47.014  1.00  0.00     0.001 A 
HETATM   27  C   UNL     1      15.820  48.063  48.214  1.00  0.00     0.002 A 
HETATM   28  C   UNL     1      17.032  48.479  48.766  1.00  0.00     0.032 A 
BRANCH  24  29
HETATM   29  C   UNL     1      18.204  51.019  46.149  1.00  0.00     0.419 C 
HETATM   30  F   UNL     1      19.521  50.699  45.986  1.00  0.00    -0.166 F 
HETATM   31  F   UNL     1      17.739  51.195  44.871  1.00  0.00    -0.166 F 
HETATM   32  F   UNL     1      18.166  52.259  46.706  1.00  0.00    -0.166 F 
ENDBRANCH  24  29
ENDBRANCH   3  23
TORSDOF 5
ENDMDL
MODEL 4
REMARK VINA RESULT:      -8.7     13.316     14.342
REMARK  5 active torsions:
REMARK  status: ('A' for Active; 'I' for Inactive)
REMARK    1  A    between atoms: N_3  and  C_4 
REMARK    2  A    between atoms: C_5  and  C_6 
REMARK    3  A    between atoms: C_15  and  C_16 
REMARK       I    between atoms: C_16  and  N_17 
REMARK    4  A    between atoms: N_17  and  N_18 
REMARK       I    between atoms: N_18  and  C_19 
REMARK    5  A    between atoms: C_19  and  C_20 
ROOT
HETATM    1  C   UNL     1      30.532  51.348  38.012  1.00  0.00     0.070 C 
HETATM    2  C   UNL     1      31.510  51.400  39.163  1.00  0.00     0.036 A 
HETATM    3  N   UNL     1      31.178  50.825  40.396  1.00  0.00    -0.237 N 
HETATM    4  N   UNL     1      31.930  50.975  41.532  1.00  0.00    -0.158 NA
HETATM    5  C   UNL     1      33.062  51.619  41.458  1.00  0.00     0.196 A 
HETATM    6  C   UNL     1      33.556  52.158  40.141  1.00  0.00     0.209 A 
HETATM    7  O   UNL     1      34.669  52.659  40.054  1.00  0.00    -0.286 OA
HETATM    8  C   UNL     1      32.662  52.063  38.984  1.00  0.00     0.084 A 
ENDROOT
BRANCH   5   9
HETATM    9  C   UNL     1      33.842  51.803  42.756  1.00  0.00     0.294 C 
HETATM   10  N   UNL     1      35.218  51.742  42.651  1.00  0.00    -0.261 N 
HETATM   11  H   UNL     1      35.704  51.743  41.746  1.00  0.00     0.190 HD
HETATM   12  O   UNL     1      33.263  52.005  43.817  1.00  0.00    -0.264 OA
BRANCH  10  13
HETATM   13  N   UNL     1      35.976  52.089  43.780  1.00  0.00    -0.262 N 
HETATM   14  C   UNL     1      36.765  53.218  43.739  1.00  0.00     0.286 C 
HETATM   15  O   UNL     1      36.915  53.873  42.708  1.00  0.00    -0.264 OA
HETATM   16  H   UNL     1      35.764  51.591  44.641  1.00  0.00     0.190 HD
BRANCH  14  17
HETATM   17  C   UNL     1      37.398  53.583  44.989  1.00  0.00     0.102 A 
HETATM   18  N   UNL     1      38.143  52.670  45.706  1.00  0.00    -0.361 N 
HETATM   19  H   UNL     1      38.290  51.711  45.411  1.00  0.00     0.165 HD
HETATM   20  C   UNL     1      38.636  53.246  46.844  1.00  0.00     0.088 A 
HETATM   21  C   UNL     1      38.212  54.554  46.871  1.00  0.00     0.019 A 
HETATM   22  C   UNL     1      37.434  54.768  45.706  1.00  0.00     0.036 A 
ENDBRANCH  14  17
ENDBRANCH  10  13
ENDBRANCH   5   9
BRANCH   3  23
HETATM   23  C   UNL     1      29.990  50.064  40.621  1.00  0.00     0.073 A 
HETATM   24  C   UNL     1      28.797  50.662  41.080  1.00  0.00     0.076 A 
HETATM   25  C   UNL     1      27.669  49.849  41.324  1.00  0.00     0.018 A 
HETATM   26  C   UNL     1      27.712  48.474  41.106  1.00  0.00     0.001 A 
HETATM   27  C   UNL     1      28.885  47.882  40.655  1.00  0.00     0.002 A 
HETATM   28  C   UNL     1      30.014  48.669  40.423  1.00  0.00     0.032 A 
BRANCH  24  29
HETATM   29  C   UNL     1      28.685  52.149  41.314  1.00  0.00     0.419 C 
HETATM   30  F   UNL     1      29.008  52.921  40.236  1.00  0.00    -0.166 F 
HETATM   31  F   UNL     1      27.402  52.521  41.624  1.00  0.00    -0.166 F 
HETATM   32  F   UNL     1      29.436  52.596  42.357  1.00  0.00    -0.166 F 
ENDBRANCH  24  29
ENDBRANCH   3  23
TORSDOF 5
ENDMDL
MODEL 5
REMARK VINA RESULT:      -8.3      2.054      3.624
REMARK  5 active torsions:
REMARK  status: ('A' for Active; 'I' for Inactive)
REMARK    1  A    between atoms: N_3  and  C_4 
REMARK    2  A    between atoms: C_5  and  C_6 
REMARK    3  A    between atoms: C_15  and  C_16 
REMARK       I    between atoms: C_16  and  N_17 
REMARK    4  A    between atoms: N_17  and  N_18 
REMARK       I    between atoms: N_18  and  C_19 
REMARK    5  A    between atoms: C_19  and  C_20 
ROOT
HETATM    1  C   UNL     1      18.659  52.473  48.249  1.00  0.00     0.070 C 
HETATM    2  C   UNL     1      19.729  51.407  48.250  1.00  0.00     0.036 A 
HETATM    3  N   UNL     1      19.582  50.261  47.458  1.00  0.00    -0.237 N 
HETATM    4  N   UNL     1      20.417  49.176  47.529  1.00  0.00    -0.158 NA
HETATM    5  C   UNL     1      21.457  49.232  48.314  1.00  0.00     0.196 A 
HETATM    6  C   UNL     1      21.760  50.479  49.103  1.00  0.00     0.209 A 
HETATM    7  O   UNL     1      22.797  50.568  49.748  1.00  0.00    -0.286 OA
HETATM    8  C   UNL     1      20.777  51.564  49.072  1.00  0.00     0.084 A 
ENDROOT
BRANCH   5   9
HETATM    9  C   UNL     1      22.331  47.984  48.398  1.00  0.00     0.294 C 
HETATM   10  N   UNL     1      22.977  47.774  49.601  1.00  0.00    -0.261 N 
HETATM   11  H   UNL     1      22.761  48.318  50.445  1.00  0.00     0.190 HD
HETATM   12  O   UNL     1      22.430  47.217  47.446  1.00  0.00    -0.264 OA
BRANCH  10  13
HETATM   13  N   UNL     1      23.638  46.551  49.784  1.00  0.00    -0.262 N 
HETATM   14  C   UNL     1      24.656  46.468  50.710  1.00  0.00     0.286 C 
HETATM   15  O   UNL     1      25.080  47.458  51.303  1.00  0.00    -0.264 OA
HETATM   16  H   UNL     1      23.210  45.734  49.356  1.00  0.00     0.190 HD
BRANCH  14  17
HETATM   17  C   UNL     1      25.184  45.140  50.940  1.00  0.00     0.102 A 
HETATM   18  N   UNL     1      26.502  44.946  51.299  1.00  0.00    -0.361 N 
HETATM   19  H   UNL     1      27.165  45.702  51.421  1.00  0.00     0.165 HD
HETATM   20  C   UNL     1      26.761  43.613  51.459  1.00  0.00     0.088 A 
HETATM   21  C   UNL     1      25.598  42.924  51.206  1.00  0.00     0.019 A 
HETATM   22  C   UNL     1      24.605  43.881  50.878  1.00  0.00     0.036 A 
ENDBRANCH  14  17
ENDBRANCH  10  13
ENDBRANCH   5   9
BRANCH   3  23
HETATM   23  C   UNL     1      18.514  50.071  46.529  1.00  0.00     0.073 A 
HETATM   24  C   UNL     1      17.330  49.388  46.883  1.00  0.00     0.076 A 
HETATM   25  C   UNL     1      16.329  49.196  45.906  1.00  0.00     0.018 A 
HETATM   26  C   UNL     1      16.485  49.680  44.609  1.00  0.00     0.001 A 
HETATM   27  C   UNL     1      17.649  50.353  44.258  1.00  0.00     0.002 A 
HETATM   28  C   UNL     1      18.655  50.538  45.207  1.00  0.00     0.032 A 
BRANCH  24  29
HETATM   29  C   UNL     1      17.096  48.858  48.277  1.00  0.00     0.419 C 
HETATM   30  F   UNL     1      17.179  49.798  49.263  1.00  0.00    -0.166 F 
HETATM   31  F   UNL     1      15.839  48.330  48.417  1.00  0.00    -0.166 F 
HETATM   32  F   UNL     1      17.938  47.847  48.625  1.00  0.00    -0.166 F 
ENDBRANCH  24  29
ENDBRANCH   3  23
TORSDOF 5
ENDMDL
MODEL 6
REMARK VINA RESULT:      -8.3      2.239      2.727
REMARK  5 active torsions:
REMARK  status: ('A' for Active; 'I' for Inactive)
REMARK    1  A    between atoms: N_3  and  C_4 
REMARK    2  A    between atoms: C_5  and  C_6 
REMARK    3  A    between atoms: C_15  and  C_16 
REMARK       I    between atoms: C_16  and  N_17 
REMARK    4  A    between atoms: N_17  and  N_18 
REMARK       I    between atoms: N_18  and  C_19 
REMARK    5  A    between atoms: C_19  and  C_20 
ROOT
HETATM    1  C   UNL     1      20.286  47.499  46.701  1.00  0.00     0.070 C 
HETATM    2  C   UNL     1      21.391  47.080  47.643  1.00  0.00     0.036 A 
HETATM    3  N   UNL     1      21.713  47.876  48.749  1.00  0.00    -0.237 N 
HETATM    4  N   UNL     1      22.804  47.660  49.550  1.00  0.00    -0.158 NA
HETATM    5  C   UNL     1      23.547  46.609  49.332  1.00  0.00     0.196 A 
HETATM    6  C   UNL     1      23.194  45.630  48.243  1.00  0.00     0.209 A 
HETATM    7  O   UNL     1      23.826  44.590  48.117  1.00  0.00    -0.286 OA
HETATM    8  C   UNL     1      22.083  45.970  47.351  1.00  0.00     0.084 A 
ENDROOT
BRANCH   5   9
HETATM    9  C   UNL     1      24.777  46.434  50.217  1.00  0.00     0.294 C 
HETATM   10  N   UNL     1      24.742  45.372  51.100  1.00  0.00    -0.261 N 
HETATM   11  H   UNL     1      24.021  44.641  51.058  1.00  0.00     0.190 HD
HETATM   12  O   UNL     1      25.734  47.194  50.126  1.00  0.00    -0.264 OA
BRANCH  10  13
HETATM   13  N   UNL     1      25.919  45.063  51.798  1.00  0.00    -0.262 N 
HETATM   14  C   UNL     1      25.838  44.336  52.966  1.00  0.00     0.286 C 
HETATM   15  O   UNL     1      24.759  44.042  53.478  1.00  0.00    -0.264 OA
HETATM   16  H   UNL     1      26.795  45.232  51.310  1.00  0.00     0.190 HD
BRANCH  14  17
HETATM   17  C   UNL     1      27.105  43.937  53.542  1.00  0.00     0.102 A 
HETATM   18  N   UNL     1      28.014  44.874  53.988  1.00  0.00    -0.361 N 
HETATM   19  H   UNL     1      27.857  45.874  53.940  1.00  0.00     0.165 HD
HETATM   20  C   UNL     1      29.128  44.256  54.487  1.00  0.00     0.088 A 
HETATM   21  C   UNL     1      28.944  42.899  54.372  1.00  0.00     0.019 A 
HETATM   22  C   UNL     1      27.674  42.695  53.778  1.00  0.00     0.036 A 
ENDBRANCH  14  17
ENDBRANCH  10  13
ENDBRANCH   5   9
BRANCH   3  23
HETATM   23  C   UNL     1      20.973  49.037  49.133  1.00  0.00     0.073 A 
HETATM   24  C   UNL     1      21.485  50.340  48.953  1.00  0.00     0.076 A 
HETATM   25  C   UNL     1      20.723  51.445  49.392  1.00  0.00     0.018 A 
HETATM   26  C   UNL     1      19.474  51.269  49.984  1.00  0.00     0.001 A 
HETATM   27  C   UNL     1      18.968  49.987  50.162  1.00  0.00     0.002 A 
HETATM   28  C   UNL     1      19.715  48.884  49.747  1.00  0.00     0.032 A 
BRANCH  24  29
HETATM   29  C   UNL     1      22.822  50.594  48.300  1.00  0.00     0.419 C 
HETATM   30  F   UNL     1      22.953  50.065  47.049  1.00  0.00    -0.166 F 
HETATM   31  F   UNL     1      23.060  51.933  48.128  1.00  0.00    -0.166 F 
HETATM   32  F   UNL     1      23.879  50.145  49.030  1.00  0.00    -0.166 F 
ENDBRANCH  24  29
ENDBRANCH   3  23
TORSDOF 5
ENDMDL
MODEL 7
REMARK VINA RESULT:      -8.2     13.768     14.748
REMARK  5 active torsions:
REMARK  status: ('A' for Active; 'I' for Inactive)
REMARK    1  A    between atoms: N_3  and  C_4 
REMARK    2  A    between atoms: C_5  and  C_6 
REMARK    3  A    between atoms: C_15  and  C_16 
REMARK       I    between atoms: C_16  and  N_17 
REMARK    4  A    between atoms: N_17  and  N_18 
REMARK       I    between atoms: N_18  and  C_19 
REMARK    5  A    between atoms: C_19  and  C_20 
ROOT
HETATM    1  C   UNL     1      32.117  51.306  38.268  1.00  0.00     0.070 C 
HETATM    2  C   UNL     1      32.888  51.305  39.568  1.00  0.00     0.036 A 
HETATM    3  N   UNL     1      32.220  51.496  40.783  1.00  0.00    -0.237 N 
HETATM    4  N   UNL     1      32.859  51.678  41.982  1.00  0.00    -0.158 NA
HETATM    5  C   UNL     1      34.161  51.589  42.022  1.00  0.00     0.196 A 
HETATM    6  C   UNL     1      34.948  51.257  40.781  1.00  0.00     0.209 A 
HETATM    7  O   UNL     1      36.154  51.062  40.846  1.00  0.00    -0.286 OA
HETATM    8  C   UNL     1      34.222  51.181  39.511  1.00  0.00     0.084 A 
ENDROOT
BRANCH   5   9
HETATM    9  C   UNL     1      34.832  51.846  43.367  1.00  0.00     0.294 C 
HETATM   10  N   UNL     1      36.182  51.557  43.437  1.00  0.00    -0.261 N 
HETATM   11  H   UNL     1      36.745  51.346  42.604  1.00  0.00     0.190 HD
HETATM   12  O   UNL     1      34.198  52.294  44.315  1.00  0.00    -0.264 OA
BRANCH  10  13
HETATM   13  N   UNL     1      36.876  51.950  44.590  1.00  0.00    -0.262 N 
HETATM   14  C   UNL     1      37.665  53.080  44.549  1.00  0.00     0.286 C 
HETATM   15  O   UNL     1      37.870  53.695  43.503  1.00  0.00    -0.264 OA
HETATM   16  H   UNL     1      36.618  51.486  45.457  1.00  0.00     0.190 HD
BRANCH  14  17
HETATM   17  C   UNL     1      38.228  53.495  45.816  1.00  0.00     0.102 A 
HETATM   18  N   UNL     1      39.179  52.731  46.461  1.00  0.00    -0.361 N 
HETATM   19  H   UNL     1      39.532  51.854  46.098  1.00  0.00     0.165 HD
HETATM   20  C   UNL     1      39.554  53.327  47.634  1.00  0.00     0.088 A 
HETATM   21  C   UNL     1      38.845  54.499  47.756  1.00  0.00     0.019 A 
HETATM   22  C   UNL     1      38.010  54.606  46.616  1.00  0.00     0.036 A 
ENDBRANCH  14  17
ENDBRANCH  10  13
ENDBRANCH   5   9
BRANCH   3  23
HETATM   23  C   UNL     1      30.799  51.580  40.902  1.00  0.00     0.073 A 
HETATM   24  C   UNL     1      30.010  50.456  41.228  1.00  0.00     0.076 A 
HETATM   25  C   UNL     1      28.606  50.595  41.289  1.00  0.00     0.018 A 
HETATM   26  C   UNL     1      27.993  51.822  41.048  1.00  0.00     0.001 A 
HETATM   27  C   UNL     1      28.767  52.930  40.727  1.00  0.00     0.002 A 
HETATM   28  C   UNL     1      30.154  52.807  40.648  1.00  0.00     0.032 A 
BRANCH  24  29
HETATM   29  C   UNL     1      30.620  49.106  41.520  1.00  0.00     0.419 C 
HETATM   30  F   UNL     1      31.473  48.648  40.558  1.00  0.00    -0.166 F 
HETATM   31  F   UNL     1      31.377  49.124  42.663  1.00  0.00    -0.166 F 
HETATM   32  F   UNL     1      29.700  48.126  41.729  1.00  0.00    -0.166 F 
ENDBRANCH  24  29
ENDBRANCH   3  23
TORSDOF 5
ENDMDL
MODEL 8
REMARK VINA RESULT:      -8.2     11.281     14.102
REMARK  5 active torsions:
REMARK  status: ('A' for Active; 'I' for Inactive)
REMARK    1  A    between atoms: N_3  and  C_4 
REMARK    2  A    between atoms: C_5  and  C_6 
REMARK    3  A    between atoms: C_15  and  C_16 
REMARK       I    between atoms: C_16  and  N_17 
REMARK    4  A    between atoms: N_17  and  N_18 
REMARK       I    between atoms: N_18  and  C_19 
REMARK    5  A    between atoms: C_19  and  C_20 
ROOT
HETATM    1  C   UNL     1      31.630  47.715  40.569  1.00  0.00     0.070 C 
HETATM    2  C   UNL     1      30.286  48.143  40.028  1.00  0.00     0.036 A 
HETATM    3  N   UNL     1      30.073  49.473  39.642  1.00  0.00    -0.237 N 
HETATM    4  N   UNL     1      28.844  49.979  39.304  1.00  0.00    -0.158 NA
HETATM    5  C   UNL     1      27.822  49.170  39.256  1.00  0.00     0.196 A 
HETATM    6  C   UNL     1      27.990  47.699  39.530  1.00  0.00     0.209 A 
HETATM    7  O   UNL     1      27.054  46.927  39.371  1.00  0.00    -0.286 OA
HETATM    8  C   UNL     1      29.301  47.234  39.991  1.00  0.00     0.084 A 
ENDROOT
BRANCH   5   9
HETATM    9  C   UNL     1      26.466  49.786  38.922  1.00  0.00     0.294 C 
HETATM   10  N   UNL     1      25.406  49.382  39.710  1.00  0.00    -0.261 N 
HETATM   11  H   UNL     1      25.534  48.837  40.572  1.00  0.00     0.190 HD
HETATM   12  O   UNL     1      26.348  50.599  38.013  1.00  0.00    -0.264 OA
BRANCH  10  13
HETATM   13  N   UNL     1      24.186  50.057  39.561  1.00  0.00    -0.262 N 
HETATM   14  C   UNL     1      23.008  49.380  39.798  1.00  0.00     0.286 C 
HETATM   15  O   UNL     1      22.985  48.172  40.029  1.00  0.00    -0.264 OA
HETATM   16  H   UNL     1      24.233  51.068  39.464  1.00  0.00     0.190 HD
BRANCH  14  17
HETATM   17  C   UNL     1      21.807  50.187  39.764  1.00  0.00     0.102 A 
HETATM   18  N   UNL     1      21.040  50.280  38.621  1.00  0.00    -0.361 N 
HETATM   19  H   UNL     1      21.265  49.803  37.756  1.00  0.00     0.165 HD
HETATM   20  C   UNL     1      19.963  51.096  38.835  1.00  0.00     0.088 A 
HETATM   21  C   UNL     1      20.021  51.538  40.135  1.00  0.00     0.019 A 
HETATM   22  C   UNL     1      21.179  50.969  40.722  1.00  0.00     0.036 A 
ENDBRANCH  14  17
ENDBRANCH  10  13
ENDBRANCH   5   9
BRANCH   3  23
HETATM   23  C   UNL     1      31.101  50.464  39.612  1.00  0.00     0.073 A 
HETATM   24  C   UNL     1      31.367  51.296  40.721  1.00  0.00     0.076 A 
HETATM   25  C   UNL     1      32.368  52.286  40.614  1.00  0.00     0.018 A 
HETATM   26  C   UNL     1      33.104  52.442  39.441  1.00  0.00     0.001 A 
HETATM   27  C   UNL     1      32.844  51.625  38.348  1.00  0.00     0.002 A 
HETATM   28  C   UNL     1      31.847  50.652  38.432  1.00  0.00     0.032 A 
BRANCH  24  29
HETATM   29  C   UNL     1      30.617  51.160  42.024  1.00  0.00     0.419 C 
HETATM   30  F   UNL     1      30.789  49.963  42.657  1.00  0.00    -0.166 F 
HETATM   31  F   UNL     1      31.022  52.091  42.945  1.00  0.00    -0.166 F 
HETATM   32  F   UNL     1      29.275  51.352  41.904  1.00  0.00    -0.166 F 
ENDBRANCH  24  29
ENDBRANCH   3  23
TORSDOF 5
ENDMDL
MODEL 9
REMARK VINA RESULT:      -8.1     13.890     14.950
REMARK  5 active torsions:
REMARK  status: ('A' for Active; 'I' for Inactive)
REMARK    1  A    between atoms: N_3  and  C_4 
REMARK    2  A    between atoms: C_5  and  C_6 
REMARK    3  A    between atoms: C_15  and  C_16 
REMARK       I    between atoms: C_16  and  N_17 
REMARK    4  A    between atoms: N_17  and  N_18 
REMARK       I    between atoms: N_18  and  C_19 
REMARK    5  A    between atoms: C_19  and  C_20 
ROOT
HETATM    1  C   UNL     1      30.326  51.220  37.855  1.00  0.00     0.070 C 
HETATM    2  C   UNL     1      31.537  51.092  38.750  1.00  0.00     0.036 A 
HETATM    3  N   UNL     1      31.407  50.555  40.037  1.00  0.00    -0.237 N 
HETATM    4  N   UNL     1      32.414  50.561  40.968  1.00  0.00    -0.158 NA
HETATM    5  C   UNL     1      33.587  51.015  40.624  1.00  0.00     0.196 A 
HETATM    6  C   UNL     1      33.847  51.491  39.219  1.00  0.00     0.209 A 
HETATM    7  O   UNL     1      34.976  51.807  38.870  1.00  0.00    -0.286 OA
HETATM    8  C   UNL     1      32.708  51.563  38.300  1.00  0.00     0.084 A 
ENDROOT
BRANCH   5   9
HETATM    9  C   UNL     1      34.663  51.046  41.705  1.00  0.00     0.294 C 
HETATM   10  N   UNL     1      35.065  52.300  42.125  1.00  0.00    -0.261 N 
HETATM   11  H   UNL     1      34.564  53.157  41.862  1.00  0.00     0.190 HD
HETATM   12  O   UNL     1      35.122  50.009  42.171  1.00  0.00    -0.264 OA
BRANCH  10  13
HETATM   13  N   UNL     1      35.910  52.376  43.242  1.00  0.00    -0.262 N 
HETATM   14  C   UNL     1      36.833  53.397  43.319  1.00  0.00     0.286 C 
HETATM   15  O   UNL     1      37.017  54.181  42.389  1.00  0.00    -0.264 OA
HETATM   16  H   UNL     1      35.677  51.779  44.031  1.00  0.00     0.190 HD
BRANCH  14  17
HETATM   17  C   UNL     1      37.563  53.486  44.565  1.00  0.00     0.102 A 
HETATM   18  N   UNL     1      38.399  52.470  44.979  1.00  0.00    -0.361 N 
HETATM   19  H   UNL     1      38.551  51.619  44.450  1.00  0.00     0.165 HD
HETATM   20  C   UNL     1      38.973  52.784  46.181  1.00  0.00     0.088 A 
HETATM   21  C   UNL     1      38.510  54.023  46.557  1.00  0.00     0.019 A 
HETATM   22  C   UNL     1      37.623  54.467  45.544  1.00  0.00     0.036 A 
ENDBRANCH  14  17
ENDBRANCH  10  13
ENDBRANCH   5   9
BRANCH   3  23
HETATM   23  C   UNL     1      30.196  49.992  40.544  1.00  0.00     0.073 A 
HETATM   24  C   UNL     1      29.907  48.615  40.428  1.00  0.00     0.076 A 
HETATM   25  C   UNL     1      28.673  48.128  40.911  1.00  0.00     0.018 A 
HETATM   26  C   UNL     1      27.748  48.979  41.511  1.00  0.00     0.001 A 
HETATM   27  C   UNL     1      28.029  50.335  41.627  1.00  0.00     0.002 A 
HETATM   28  C   UNL     1      29.238  50.835  41.140  1.00  0.00     0.032 A 
BRANCH  24  29
HETATM   29  C   UNL     1      30.879  47.642  39.806  1.00  0.00     0.419 C 
HETATM   30  F   UNL     1      30.465  46.342  39.813  1.00  0.00    -0.166 F 
HETATM   31  F   UNL     1      31.101  47.918  38.482  1.00  0.00    -0.166 F 
HETATM   32  F   UNL     1      32.114  47.665  40.377  1.00  0.00    -0.166 F 
ENDBRANCH  24  29
ENDBRANCH   3  23
TORSDOF 5
ENDMDL
MODEL 10
REMARK VINA RESULT:      -8.0     11.574     13.764
REMARK  5 active torsions:
REMARK  status: ('A' for Active; 'I' for Inactive)
REMARK    1  A    between atoms: N_3  and  C_4 
REMARK    2  A    between atoms: C_5  and  C_6 
REMARK    3  A    between atoms: C_15  and  C_16 
REMARK       I    between atoms: C_16  and  N_17 
REMARK    4  A    between atoms: N_17  and  N_18 
REMARK       I    between atoms: N_18  and  C_19 
REMARK    5  A    between atoms: C_19  and  C_20 
ROOT
HETATM    1  C   UNL     1      31.106  54.237  40.663  1.00  0.00     0.070 C 
HETATM    2  C   UNL     1      30.299  52.979  40.881  1.00  0.00     0.036 A 
HETATM    3  N   UNL     1      30.936  51.733  40.927  1.00  0.00    -0.237 N 
HETATM    4  N   UNL     1      30.266  50.537  40.950  1.00  0.00    -0.158 NA
HETATM    5  C   UNL     1      28.962  50.546  41.015  1.00  0.00     0.196 A 
HETATM    6  C   UNL     1      28.205  51.846  41.101  1.00  0.00     0.209 A 
HETATM    7  O   UNL     1      26.995  51.847  41.277  1.00  0.00    -0.286 OA
HETATM    8  C   UNL     1      28.965  53.091  40.963  1.00  0.00     0.084 A 
ENDROOT
BRANCH   5   9
HETATM    9  C   UNL     1      28.257  49.194  40.990  1.00  0.00     0.294 C 
HETATM   10  N   UNL     1      26.953  49.181  41.446  1.00  0.00    -0.261 N 
HETATM   11  H   UNL     1      26.424  50.042  41.631  1.00  0.00     0.190 HD
HETATM   12  O   UNL     1      28.828  48.191  40.575  1.00  0.00    -0.264 OA
BRANCH  10  13
HETATM   13  N   UNL     1      26.210  48.005  41.268  1.00  0.00    -0.262 N 
HETATM   14  C   UNL     1      25.289  47.938  40.244  1.00  0.00     0.286 C 
HETATM   15  O   UNL     1      25.017  48.915  39.547  1.00  0.00    -0.264 OA
HETATM   16  H   UNL     1      26.518  47.188  41.790  1.00  0.00     0.190 HD
BRANCH  14  17
HETATM   17  C   UNL     1      24.674  46.644  40.041  1.00  0.00     0.102 A 
HETATM   18  N   UNL     1      25.196  45.505  40.618  1.00  0.00    -0.361 N 
HETATM   19  H   UNL     1      26.023  45.503  41.204  1.00  0.00     0.165 HD
HETATM   20  C   UNL     1      24.445  44.413  40.282  1.00  0.00     0.088 A 
HETATM   21  C   UNL     1      23.414  44.842  39.479  1.00  0.00     0.019 A 
HETATM   22  C   UNL     1      23.556  46.244  39.325  1.00  0.00     0.036 A 
ENDBRANCH  14  17
ENDBRANCH  10  13
ENDBRANCH   5   9
BRANCH   3  23
HETATM   23  C   UNL     1      32.354  51.565  40.898  1.00  0.00     0.073 A 
HETATM   24  C   UNL     1      33.112  51.416  42.079  1.00  0.00     0.076 A 
HETATM   25  C   UNL     1      34.515  51.297  41.986  1.00  0.00     0.018 A 
HETATM   26  C   UNL     1      35.159  51.310  40.750  1.00  0.00     0.001 A 
HETATM   27  C   UNL     1      34.416  51.457  39.586  1.00  0.00     0.002 A 
HETATM   28  C   UNL     1      33.029  51.591  39.661  1.00  0.00     0.032 A 
BRANCH  24  29
HETATM   29  C   UNL     1      32.469  51.373  43.445  1.00  0.00     0.419 C 
HETATM   30  F   UNL     1      31.844  50.197  43.742  1.00  0.00    -0.166 F 
HETATM   31  F   UNL     1      33.390  51.530  44.448  1.00  0.00    -0.166 F 
HETATM   32  F   UNL     1      31.560  52.365  43.651  1.00  0.00    -0.166 F 
ENDBRANCH  24  29
ENDBRANCH   3  23
TORSDOF 5
ENDMDL
