MODEL 1
REMARK VINA RESULT:     -10.7      0.000      0.000
REMARK  6 active torsions:
REMARK  status: ('A' for Active; 'I' for Inactive)
REMARK    1  A    between atoms: C_2  and  O_3 
REMARK    2  A    between atoms: C_2  and  C_4 
REMARK    3  A    between atoms: C_6  and  N_7 
REMARK       I    between atoms: N_7  and  C_8 
REMARK    4  A    between atoms: C_8  and  C_9 
REMARK    5  A    between atoms: C_14  and  C_15 
REMARK    6  A    between atoms: C_23  and  C_24 
ROOT
HETATM    1  C   UNL     1      26.299  44.909  50.836  1.00  0.00     0.148 A 
HETATM    2  N   UNL     1      27.316  44.090  50.472  1.00  0.00    -0.165 NA
HETATM    3  N   UNL     1      27.735  43.582  51.646  1.00  0.00    -0.240 N 
HETATM    4  C   UNL     1      27.093  44.095  52.738  1.00  0.00     0.123 A 
HETATM    5  N   UNL     1      27.488  43.784  53.989  1.00  0.00    -0.366 N 
HETATM    6  C   UNL     1      28.777  43.149  54.268  1.00  0.00     0.118 C 
HETATM    7  C   UNL     1      29.673  43.080  53.013  1.00  0.00     0.066 C 
HETATM    8  C   UNL     1      28.881  42.702  51.751  1.00  0.00     0.221 C 
HETATM    9  C   UNL     1      26.108  44.907  52.246  1.00  0.00     0.089 A 
HETATM   10  H   UNL     1      26.999  44.158  54.802  1.00  0.00     0.161 HD
ENDROOT
BRANCH   1  11
HETATM   11  C   UNL     1      25.550  45.717  49.858  1.00  0.00     0.276 C 
HETATM   12  N   UNL     1      25.644  47.070  50.123  1.00  0.00    -0.322 N 
HETATM   13  H   UNL     1      26.249  47.285  50.913  1.00  0.00     0.169 HD
HETATM   14  O   UNL     1      24.925  45.190  48.943  1.00  0.00    -0.266 OA
BRANCH  12  15
HETATM   15  C   UNL     1      25.023  48.134  49.451  1.00  0.00     0.035 A 
HETATM   16  C   UNL     1      23.640  48.335  49.429  1.00  0.00     0.039 A 
HETATM   17  C   UNL     1      23.075  49.423  48.740  1.00  0.00    -0.028 A 
HETATM   18  C   UNL     1      23.921  50.302  48.051  1.00  0.00     0.010 A 
HETATM   19  C   UNL     1      25.302  50.115  48.077  1.00  0.00     0.003 A 
HETATM   20  C   UNL     1      25.849  49.039  48.778  1.00  0.00     0.029 A 
BRANCH  17  21
HETATM   21  C   UNL     1      21.570  49.595  48.725  1.00  0.00     0.147 C 
HETATM   22  C   UNL     1      21.166  51.061  48.770  1.00  0.00     0.044 C 
BRANCH  21  23
HETATM   23  O   UNL     1      20.974  48.916  49.829  1.00  0.00    -0.391 OA
HETATM   24  H   UNL     1      21.546  49.082  50.598  1.00  0.00     0.210 HD
ENDBRANCH  21  23
ENDBRANCH  17  21
ENDBRANCH  12  15
ENDBRANCH   1  11
BRANCH   8  25
HETATM   25  C   UNL     1      28.433  41.259  51.749  1.00  0.00     0.409 C 
HETATM   26  F   UNL     1      27.147  41.121  52.140  1.00  0.00    -0.169 F 
HETATM   27  F   UNL     1      28.508  40.762  50.485  1.00  0.00    -0.169 F 
HETATM   28  F   UNL     1      29.189  40.455  52.523  1.00  0.00    -0.169 F 
ENDBRANCH   8  25
BRANCH   6  29
HETATM   29  C   UNL     1      29.477  43.918  55.380  1.00  0.00    -0.035 A 
HETATM   30  C   UNL     1      28.976  45.157  55.812  1.00  0.00     0.012 A 
HETATM   31  C   UNL     1      29.616  45.859  56.836  1.00  0.00     0.043 A 
HETATM   32  C   UNL     1      30.754  45.326  57.433  1.00  0.00     0.116 A 
HETATM   33  F   UNL     1      31.364  46.005  58.413  1.00  0.00    -0.206 F 
HETATM   34  C   UNL     1      31.267  44.102  57.026  1.00  0.00     0.043 A 
HETATM   35  C   UNL     1      30.628  43.398  56.004  1.00  0.00     0.012 A 
ENDBRANCH   6  29
TORSDOF 6
ENDMDL
MODEL 2
REMARK VINA RESULT:     -10.4      1.058      1.210
REMARK  6 active torsions:
REMARK  status: ('A' for Active; 'I' for Inactive)
REMARK    1  A    between atoms: C_2  and  O_3 
REMARK    2  A    between atoms: C_2  and  C_4 
REMARK    3  A    between atoms: C_6  and  N_7 
REMARK       I    between atoms: N_7  and  C_8 
REMARK    4  A    between atoms: C_8  and  C_9 
REMARK    5  A    between atoms: C_14  and  C_15 
REMARK    6  A    between atoms: C_23  and  C_24 
ROOT
HETATM    1  C   UNL     1      25.156  45.340  50.598  1.00  0.00     0.148 A 
HETATM    2  N   UNL     1      26.166  44.581  50.108  1.00  0.00    -0.165 NA
HETATM    3  N   UNL     1      26.707  44.041  51.216  1.00  0.00    -0.240 N 
HETATM    4  C   UNL     1      26.146  44.479  52.383  1.00  0.00     0.123 A 
HETATM    5  N   UNL     1      26.663  44.130  53.578  1.00  0.00    -0.366 N 
HETATM    6  C   UNL     1      27.994  43.538  53.714  1.00  0.00     0.118 C 
HETATM    7  C   UNL     1      28.777  43.561  52.383  1.00  0.00     0.066 C 
HETATM    8  C   UNL     1      27.891  43.205  51.180  1.00  0.00     0.221 C 
HETATM    9  C   UNL     1      25.092  45.269  52.017  1.00  0.00     0.089 A 
HETATM   10  H   UNL     1      26.234  44.448  54.448  1.00  0.00     0.161 HD
ENDROOT
BRANCH   1  11
HETATM   11  C   UNL     1      24.292  46.158  49.727  1.00  0.00     0.276 C 
HETATM   12  N   UNL     1      24.510  47.511  49.906  1.00  0.00    -0.322 N 
HETATM   13  H   UNL     1      25.257  47.715  50.566  1.00  0.00     0.169 HD
HETATM   14  O   UNL     1      23.486  45.638  48.964  1.00  0.00    -0.266 OA
BRANCH  12  15
HETATM   15  C   UNL     1      23.841  48.587  49.301  1.00  0.00     0.035 A 
HETATM   16  C   UNL     1      22.490  48.877  49.512  1.00  0.00     0.039 A 
HETATM   17  C   UNL     1      21.876  49.972  48.881  1.00  0.00    -0.028 A 
HETATM   18  C   UNL     1      22.635  50.767  48.012  1.00  0.00     0.010 A 
HETATM   19  C   UNL     1      23.985  50.492  47.804  1.00  0.00     0.003 A 
HETATM   20  C   UNL     1      24.586  49.410  48.451  1.00  0.00     0.029 A 
BRANCH  17  21
HETATM   21  C   UNL     1      20.405  50.242  49.122  1.00  0.00     0.147 C 
HETATM   22  C   UNL     1      20.036  51.688  48.824  1.00  0.00     0.044 C 
BRANCH  21  23
HETATM   23  O   UNL     1      20.051  49.942  50.471  1.00  0.00    -0.391 OA
HETATM   24  H   UNL     1      19.402  50.613  50.743  1.00  0.00     0.210 HD
ENDBRANCH  21  23
ENDBRANCH  17  21
ENDBRANCH  12  15
ENDBRANCH   1  11
BRANCH   8  25
HETATM   25  C   UNL     1      27.499  41.746  51.149  1.00  0.00     0.409 C 
HETATM   26  F   UNL     1      26.165  41.571  51.279  1.00  0.00    -0.169 F 
HETATM   27  F   UNL     1      27.843  41.209  49.948  1.00  0.00    -0.169 F 
HETATM   28  F   UNL     1      28.108  41.001  52.092  1.00  0.00    -0.169 F 
ENDBRANCH   8  25
BRANCH   6  29
HETATM   29  C   UNL     1      28.762  44.287  54.795  1.00  0.00    -0.035 A 
HETATM   30  C   UNL     1      28.203  45.420  55.407  1.00  0.00     0.012 A 
HETATM   31  C   UNL     1      28.905  46.103  56.403  1.00  0.00     0.043 A 
HETATM   32  C   UNL     1      30.163  45.656  56.792  1.00  0.00     0.116 A 
HETATM   33  F   UNL     1      30.832  46.316  57.746  1.00  0.00    -0.206 F 
HETATM   34  C   UNL     1      30.736  44.536  56.204  1.00  0.00     0.043 A 
HETATM   35  C   UNL     1      30.036  43.851  55.211  1.00  0.00     0.012 A 
ENDBRANCH   6  29
TORSDOF 6
ENDMDL
MODEL 3
REMARK VINA RESULT:      -9.7      3.965      9.441
REMARK  6 active torsions:
REMARK  status: ('A' for Active; 'I' for Inactive)
REMARK    1  A    between atoms: C_2  and  O_3 
REMARK    2  A    between atoms: C_2  and  C_4 
REMARK    3  A    between atoms: C_6  and  N_7 
REMARK       I    between atoms: N_7  and  C_8 
REMARK    4  A    between atoms: C_8  and  C_9 
REMARK    5  A    between atoms: C_14  and  C_15 
REMARK    6  A    between atoms: C_23  and  C_24 
ROOT
HETATM    1  C   UNL     1      25.198  44.990  51.848  1.00  0.00     0.148 A 
HETATM    2  N   UNL     1      24.150  44.271  51.377  1.00  0.00    -0.165 NA
HETATM    3  N   UNL     1      23.753  44.980  50.303  1.00  0.00    -0.240 N 
HETATM    4  C   UNL     1      24.439  46.146  50.118  1.00  0.00     0.123 A 
HETATM    5  N   UNL     1      24.073  47.027  49.165  1.00  0.00    -0.366 N 
HETATM    6  C   UNL     1      22.777  46.956  48.489  1.00  0.00     0.118 C 
HETATM    7  C   UNL     1      21.843  45.910  49.135  1.00  0.00     0.066 C 
HETATM    8  C   UNL     1      22.587  44.622  49.520  1.00  0.00     0.221 C 
HETATM    9  C   UNL     1      25.430  46.151  51.061  1.00  0.00     0.089 A 
HETATM   10  H   UNL     1      24.595  47.891  49.021  1.00  0.00     0.161 HD
ENDROOT
BRANCH   1  11
HETATM   11  C   UNL     1      25.939  44.598  53.061  1.00  0.00     0.276 C 
HETATM   12  N   UNL     1      27.293  44.849  52.944  1.00  0.00    -0.322 N 
HETATM   13  H   UNL     1      27.545  45.303  52.069  1.00  0.00     0.169 HD
HETATM   14  O   UNL     1      25.365  44.101  54.024  1.00  0.00    -0.266 OA
BRANCH  12  15
HETATM   15  C   UNL     1      28.314  44.558  53.862  1.00  0.00     0.035 A 
HETATM   16  C   UNL     1      28.570  45.320  55.005  1.00  0.00     0.039 A 
HETATM   17  C   UNL     1      29.606  44.976  55.891  1.00  0.00    -0.028 A 
HETATM   18  C   UNL     1      30.402  43.860  55.602  1.00  0.00     0.010 A 
HETATM   19  C   UNL     1      30.148  43.088  54.470  1.00  0.00     0.003 A 
HETATM   20  C   UNL     1      29.105  43.433  53.608  1.00  0.00     0.029 A 
BRANCH  17  21
HETATM   21  C   UNL     1      29.861  45.838  57.110  1.00  0.00     0.147 C 
HETATM   22  C   UNL     1      30.735  45.129  58.135  1.00  0.00     0.044 C 
BRANCH  21  23
HETATM   23  O   UNL     1      28.632  46.214  57.729  1.00  0.00    -0.391 OA
HETATM   24  H   UNL     1      28.277  46.957  57.211  1.00  0.00     0.210 HD
ENDBRANCH  21  23
ENDBRANCH  17  21
ENDBRANCH  12  15
ENDBRANCH   1  11
BRANCH   8  25
HETATM   25  C   UNL     1      22.997  43.800  48.320  1.00  0.00     0.409 C 
HETATM   26  F   UNL     1      22.956  42.472  48.570  1.00  0.00    -0.169 F 
HETATM   27  F   UNL     1      22.132  44.027  47.296  1.00  0.00    -0.169 F 
HETATM   28  F   UNL     1      24.228  44.094  47.855  1.00  0.00    -0.169 F 
ENDBRANCH   8  25
BRANCH   6  29
HETATM   29  C   UNL     1      22.130  48.333  48.512  1.00  0.00    -0.035 A 
HETATM   30  C   UNL     1      22.858  49.467  48.119  1.00  0.00     0.012 A 
HETATM   31  C   UNL     1      22.261  50.731  48.135  1.00  0.00     0.043 A 
HETATM   32  C   UNL     1      20.938  50.865  48.541  1.00  0.00     0.116 A 
HETATM   33  F   UNL     1      20.372  52.078  48.555  1.00  0.00    -0.206 F 
HETATM   34  C   UNL     1      20.196  49.759  48.931  1.00  0.00     0.043 A 
HETATM   35  C   UNL     1      20.788  48.495  48.914  1.00  0.00     0.012 A 
ENDBRANCH   6  29
TORSDOF 6
ENDMDL
MODEL 4
REMARK VINA RESULT:      -9.3      4.343      9.899
REMARK  6 active torsions:
REMARK  status: ('A' for Active; 'I' for Inactive)
REMARK    1  A    between atoms: C_2  and  O_3 
REMARK    2  A    between atoms: C_2  and  C_4 
REMARK    3  A    between atoms: C_6  and  N_7 
REMARK       I    between atoms: N_7  and  C_8 
REMARK    4  A    between atoms: C_8  and  C_9 
REMARK    5  A    between atoms: C_14  and  C_15 
REMARK    6  A    between atoms: C_23  and  C_24 
ROOT
HETATM    1  C   UNL     1      24.319  45.474  50.719  1.00  0.00     0.148 A 
HETATM    2  N   UNL     1      23.312  44.797  50.114  1.00  0.00    -0.165 NA
HETATM    3  N   UNL     1      22.895  45.656  49.165  1.00  0.00    -0.240 N 
HETATM    4  C   UNL     1      23.526  46.867  49.190  1.00  0.00     0.123 A 
HETATM    5  N   UNL     1      23.130  47.876  48.389  1.00  0.00    -0.366 N 
HETATM    6  C   UNL     1      21.847  47.860  47.684  1.00  0.00     0.118 C 
HETATM    7  C   UNL     1      20.957  46.679  48.128  1.00  0.00     0.066 C 
HETATM    8  C   UNL     1      21.758  45.381  48.309  1.00  0.00     0.221 C 
HETATM    9  C   UNL     1      24.504  46.760  50.140  1.00  0.00     0.089 A 
HETATM   10  H   UNL     1      23.611  48.775  48.400  1.00  0.00     0.161 HD
ENDROOT
BRANCH   1  11
HETATM   11  C   UNL     1      25.062  44.920  51.865  1.00  0.00     0.276 C 
HETATM   12  N   UNL     1      26.056  45.776  52.300  1.00  0.00    -0.322 N 
HETATM   13  H   UNL     1      26.078  46.659  51.795  1.00  0.00     0.169 HD
HETATM   14  O   UNL     1      24.790  43.816  52.325  1.00  0.00    -0.266 OA
BRANCH  12  15
HETATM   15  C   UNL     1      26.998  45.568  53.320  1.00  0.00     0.035 A 
HETATM   16  C   UNL     1      27.856  44.466  53.370  1.00  0.00     0.039 A 
HETATM   17  C   UNL     1      28.783  44.313  54.415  1.00  0.00    -0.028 A 
HETATM   18  C   UNL     1      28.824  45.279  55.430  1.00  0.00     0.010 A 
HETATM   19  C   UNL     1      27.980  46.387  55.383  1.00  0.00     0.003 A 
HETATM   20  C   UNL     1      27.075  46.532  54.330  1.00  0.00     0.029 A 
BRANCH  17  21
HETATM   21  C   UNL     1      29.683  43.095  54.442  1.00  0.00     0.147 C 
HETATM   22  C   UNL     1      30.695  43.162  55.577  1.00  0.00     0.044 C 
BRANCH  21  23
HETATM   23  O   UNL     1      30.381  42.956  53.206  1.00  0.00    -0.391 OA
HETATM   24  H   UNL     1      30.046  42.144  52.788  1.00  0.00     0.210 HD
ENDBRANCH  21  23
ENDBRANCH  17  21
ENDBRANCH  12  15
ENDBRANCH   1  11
BRANCH   8  25
HETATM   25  C   UNL     1      22.222  44.790  46.998  1.00  0.00     0.409 C 
HETATM   26  F   UNL     1      23.530  44.449  47.024  1.00  0.00    -0.169 F 
HETATM   27  F   UNL     1      21.531  43.646  46.745  1.00  0.00    -0.169 F 
HETATM   28  F   UNL     1      22.027  45.599  45.938  1.00  0.00    -0.169 F 
ENDBRANCH   8  25
BRANCH   6  29
HETATM   29  C   UNL     1      21.134  49.183  47.922  1.00  0.00    -0.035 A 
HETATM   30  C   UNL     1      19.994  49.520  47.175  1.00  0.00     0.012 A 
HETATM   31  C   UNL     1      19.336  50.732  47.398  1.00  0.00     0.043 A 
HETATM   32  C   UNL     1      19.812  51.608  48.368  1.00  0.00     0.116 A 
HETATM   33  F   UNL     1      19.178  52.769  48.576  1.00  0.00    -0.206 F 
HETATM   34  C   UNL     1      20.934  51.297  49.122  1.00  0.00     0.043 A 
HETATM   35  C   UNL     1      21.592  50.086  48.903  1.00  0.00     0.012 A 
ENDBRANCH   6  29
TORSDOF 6
ENDMDL
MODEL 5
REMARK VINA RESULT:      -9.0      4.377      7.080
REMARK  6 active torsions:
REMARK  status: ('A' for Active; 'I' for Inactive)
REMARK    1  A    between atoms: C_2  and  O_3 
REMARK    2  A    between atoms: C_2  and  C_4 
REMARK    3  A    between atoms: C_6  and  N_7 
REMARK       I    between atoms: N_7  and  C_8 
REMARK    4  A    between atoms: C_8  and  C_9 
REMARK    5  A    between atoms: C_14  and  C_15 
REMARK    6  A    between atoms: C_23  and  C_24 
ROOT
HETATM    1  C   UNL     1      27.256  41.830  51.089  1.00  0.00     0.148 A 
HETATM    2  N   UNL     1      26.208  42.362  51.765  1.00  0.00    -0.165 NA
HETATM    3  N   UNL     1      26.773  43.366  52.463  1.00  0.00    -0.240 N 
HETATM    4  C   UNL     1      28.131  43.446  52.327  1.00  0.00     0.123 A 
HETATM    5  N   UNL     1      28.855  44.313  53.062  1.00  0.00    -0.366 N 
HETATM    6  C   UNL     1      28.308  44.990  54.239  1.00  0.00     0.118 C 
HETATM    7  C   UNL     1      26.920  44.439  54.631  1.00  0.00     0.066 C 
HETATM    8  C   UNL     1      26.030  44.176  53.407  1.00  0.00     0.221 C 
HETATM    9  C   UNL     1      28.469  42.509  51.389  1.00  0.00     0.089 A 
HETATM   10  H   UNL     1      29.866  44.380  52.949  1.00  0.00     0.161 HD
ENDROOT
BRANCH   1  11
HETATM   11  C   UNL     1      27.109  40.661  50.204  1.00  0.00     0.276 C 
HETATM   12  N   UNL     1      28.053  40.653  49.196  1.00  0.00    -0.322 N 
HETATM   13  H   UNL     1      28.717  41.421  49.258  1.00  0.00     0.169 HD
HETATM   14  O   UNL     1      26.223  39.832  50.388  1.00  0.00    -0.266 OA
BRANCH  12  15
HETATM   15  C   UNL     1      28.189  39.739  48.138  1.00  0.00     0.035 A 
HETATM   16  C   UNL     1      27.906  40.048  46.805  1.00  0.00     0.039 A 
HETATM   17  C   UNL     1      28.065  39.090  45.788  1.00  0.00    -0.028 A 
HETATM   18  C   UNL     1      28.496  37.803  46.132  1.00  0.00     0.010 A 
HETATM   19  C   UNL     1      28.791  37.488  47.457  1.00  0.00     0.003 A 
HETATM   20  C   UNL     1      28.643  38.454  48.454  1.00  0.00     0.029 A 
BRANCH  17  21
HETATM   21  C   UNL     1      27.730  39.460  44.358  1.00  0.00     0.147 C 
HETATM   22  C   UNL     1      28.710  40.476  43.789  1.00  0.00     0.044 C 
BRANCH  21  23
HETATM   23  O   UNL     1      26.409  39.992  44.271  1.00  0.00    -0.391 OA
HETATM   24  H   UNL     1      26.383  40.538  43.466  1.00  0.00     0.210 HD
ENDBRANCH  21  23
ENDBRANCH  17  21
ENDBRANCH  12  15
ENDBRANCH   1  11
BRANCH   8  25
HETATM   25  C   UNL     1      25.553  45.446  52.743  1.00  0.00     0.409 C 
HETATM   26  F   UNL     1      24.354  45.290  52.139  1.00  0.00    -0.169 F 
HETATM   27  F   UNL     1      25.389  46.416  53.682  1.00  0.00    -0.169 F 
HETATM   28  F   UNL     1      26.414  45.938  51.830  1.00  0.00    -0.169 F 
ENDBRANCH   8  25
BRANCH   6  29
HETATM   29  C   UNL     1      29.286  44.839  55.396  1.00  0.00    -0.035 A 
HETATM   30  C   UNL     1      29.238  45.723  56.486  1.00  0.00     0.012 A 
HETATM   31  C   UNL     1      30.132  45.580  57.551  1.00  0.00     0.043 A 
HETATM   32  C   UNL     1      31.073  44.557  57.530  1.00  0.00     0.116 A 
HETATM   33  F   UNL     1      31.928  44.426  58.552  1.00  0.00    -0.206 F 
HETATM   34  C   UNL     1      31.139  43.668  56.466  1.00  0.00     0.043 A 
HETATM   35  C   UNL     1      30.246  43.807  55.402  1.00  0.00     0.012 A 
ENDBRANCH   6  29
TORSDOF 6
ENDMDL
MODEL 6
REMARK VINA RESULT:      -9.0      2.619      3.448
REMARK  6 active torsions:
REMARK  status: ('A' for Active; 'I' for Inactive)
REMARK    1  A    between atoms: C_2  and  O_3 
REMARK    2  A    between atoms: C_2  and  C_4 
REMARK    3  A    between atoms: C_6  and  N_7 
REMARK       I    between atoms: N_7  and  C_8 
REMARK    4  A    between atoms: C_8  and  C_9 
REMARK    5  A    between atoms: C_14  and  C_15 
REMARK    6  A    between atoms: C_23  and  C_24 
ROOT
HETATM    1  C   UNL     1      24.211  44.162  49.484  1.00  0.00     0.148 A 
HETATM    2  N   UNL     1      25.286  43.459  49.051  1.00  0.00    -0.165 NA
HETATM    3  N   UNL     1      25.876  43.067  50.196  1.00  0.00    -0.240 N 
HETATM    4  C   UNL     1      25.278  43.550  51.326  1.00  0.00     0.123 A 
HETATM    5  N   UNL     1      25.826  43.354  52.542  1.00  0.00    -0.366 N 
HETATM    6  C   UNL     1      27.206  42.899  52.716  1.00  0.00     0.118 C 
HETATM    7  C   UNL     1      27.982  42.879  51.381  1.00  0.00     0.066 C 
HETATM    8  C   UNL     1      27.130  42.343  50.220  1.00  0.00     0.221 C 
HETATM    9  C   UNL     1      24.156  44.207  50.905  1.00  0.00     0.089 A 
HETATM   10  H   UNL     1      25.371  43.705  53.386  1.00  0.00     0.161 HD
ENDROOT
BRANCH   1  11
HETATM   11  C   UNL     1      23.275  44.821  48.555  1.00  0.00     0.276 C 
HETATM   12  N   UNL     1      22.494  45.767  49.191  1.00  0.00    -0.322 N 
HETATM   13  H   UNL     1      22.725  45.885  50.175  1.00  0.00     0.169 HD
HETATM   14  O   UNL     1      23.235  44.513  47.369  1.00  0.00    -0.266 OA
BRANCH  12  15
HETATM   15  C   UNL     1      21.460  46.548  48.650  1.00  0.00     0.035 A 
HETATM   16  C   UNL     1      20.124  46.141  48.606  1.00  0.00     0.039 A 
HETATM   17  C   UNL     1      19.130  46.969  48.055  1.00  0.00    -0.028 A 
HETATM   18  C   UNL     1      19.502  48.212  47.525  1.00  0.00     0.010 A 
HETATM   19  C   UNL     1      20.831  48.630  47.574  1.00  0.00     0.003 A 
HETATM   20  C   UNL     1      21.803  47.803  48.139  1.00  0.00     0.029 A 
BRANCH  17  21
HETATM   21  C   UNL     1      17.696  46.484  48.010  1.00  0.00     0.147 C 
HETATM   22  C   UNL     1      16.790  47.307  48.914  1.00  0.00     0.044 C 
BRANCH  21  23
HETATM   23  O   UNL     1      17.615  45.113  48.396  1.00  0.00    -0.391 OA
HETATM   24  H   UNL     1      17.789  44.589  47.596  1.00  0.00     0.210 HD
ENDBRANCH  21  23
ENDBRANCH  17  21
ENDBRANCH  12  15
ENDBRANCH   1  11
BRANCH   8  25
HETATM   25  C   UNL     1      26.874  40.857  50.317  1.00  0.00     0.409 C 
HETATM   26  F   UNL     1      27.793  40.227  51.082  1.00  0.00    -0.169 F 
HETATM   27  F   UNL     1      25.668  40.641  50.906  1.00  0.00    -0.169 F 
HETATM   28  F   UNL     1      26.834  40.234  49.122  1.00  0.00    -0.169 F 
ENDBRANCH   8  25
BRANCH   6  29
HETATM   29  C   UNL     1      27.903  43.804  53.722  1.00  0.00    -0.035 A 
HETATM   30  C   UNL     1      29.125  43.418  54.298  1.00  0.00     0.012 A 
HETATM   31  C   UNL     1      29.767  44.251  55.217  1.00  0.00     0.043 A 
HETATM   32  C   UNL     1      29.194  45.471  55.562  1.00  0.00     0.116 A 
HETATM   33  F   UNL     1      29.814  46.264  56.444  1.00  0.00    -0.206 F 
HETATM   34  C   UNL     1      27.989  45.876  55.004  1.00  0.00     0.043 A 
HETATM   35  C   UNL     1      27.347  45.047  54.085  1.00  0.00     0.012 A 
ENDBRANCH   6  29
TORSDOF 6
ENDMDL
MODEL 7
REMARK VINA RESULT:      -8.9      4.693     10.075
REMARK  6 active torsions:
REMARK  status: ('A' for Active; 'I' for Inactive)
REMARK    1  A    between atoms: C_2  and  O_3 
REMARK    2  A    between atoms: C_2  and  C_4 
REMARK    3  A    between atoms: C_6  and  N_7 
REMARK       I    between atoms: N_7  and  C_8 
REMARK    4  A    between atoms: C_8  and  C_9 
REMARK    5  A    between atoms: C_14  and  C_15 
REMARK    6  A    between atoms: C_23  and  C_24 
ROOT
HETATM    1  C   UNL     1      24.400  46.610  49.605  1.00  0.00     0.148 A 
HETATM    2  N   UNL     1      23.353  45.777  49.390  1.00  0.00    -0.165 NA
HETATM    3  N   UNL     1      22.470  46.558  48.739  1.00  0.00    -0.240 N 
HETATM    4  C   UNL     1      22.868  47.858  48.602  1.00  0.00     0.123 A 
HETATM    5  N   UNL     1      22.040  48.790  48.089  1.00  0.00    -0.366 N 
HETATM    6  C   UNL     1      20.602  48.562  47.936  1.00  0.00     0.118 C 
HETATM    7  C   UNL     1      20.150  47.246  48.606  1.00  0.00     0.066 C 
HETATM    8  C   UNL     1      21.145  46.100  48.372  1.00  0.00     0.221 C 
HETATM    9  C   UNL     1      24.144  47.912  49.091  1.00  0.00     0.089 A 
HETATM   10  H   UNL     1      22.344  49.757  47.976  1.00  0.00     0.161 HD
ENDROOT
BRANCH   1  11
HETATM   11  C   UNL     1      25.609  46.184  50.332  1.00  0.00     0.276 C 
HETATM   12  N   UNL     1      25.331  45.837  51.640  1.00  0.00    -0.322 N 
HETATM   13  H   UNL     1      24.341  45.887  51.869  1.00  0.00     0.169 HD
HETATM   14  O   UNL     1      26.707  46.171  49.786  1.00  0.00    -0.266 OA
BRANCH  12  15
HETATM   15  C   UNL     1      26.229  45.442  52.645  1.00  0.00     0.035 A 
HETATM   16  C   UNL     1      26.737  46.310  53.616  1.00  0.00     0.039 A 
HETATM   17  C   UNL     1      27.631  45.855  54.600  1.00  0.00    -0.028 A 
HETATM   18  C   UNL     1      28.027  44.511  54.586  1.00  0.00     0.010 A 
HETATM   19  C   UNL     1      27.518  43.636  53.629  1.00  0.00     0.003 A 
HETATM   20  C   UNL     1      26.618  44.100  52.667  1.00  0.00     0.029 A 
BRANCH  17  21
HETATM   21  C   UNL     1      28.173  46.832  55.623  1.00  0.00     0.147 C 
HETATM   22  C   UNL     1      28.657  46.126  56.881  1.00  0.00     0.044 C 
BRANCH  21  23
HETATM   23  O   UNL     1      27.178  47.789  55.983  1.00  0.00    -0.391 OA
HETATM   24  H   UNL     1      27.083  47.739  56.950  1.00  0.00     0.210 HD
ENDBRANCH  21  23
ENDBRANCH  17  21
ENDBRANCH  12  15
ENDBRANCH   1  11
BRANCH   8  25
HETATM   25  C   UNL     1      21.141  45.601  46.946  1.00  0.00     0.409 C 
HETATM   26  F   UNL     1      22.196  46.063  46.238  1.00  0.00    -0.169 F 
HETATM   27  F   UNL     1      21.236  44.244  46.939  1.00  0.00    -0.169 F 
HETATM   28  F   UNL     1      20.019  45.910  46.265  1.00  0.00    -0.169 F 
ENDBRANCH   8  25
BRANCH   6  29
HETATM   29  C   UNL     1      19.847  49.745  48.523  1.00  0.00    -0.035 A 
HETATM   30  C   UNL     1      18.813  49.539  49.450  1.00  0.00     0.012 A 
HETATM   31  C   UNL     1      18.124  50.626  49.994  1.00  0.00     0.043 A 
HETATM   32  C   UNL     1      18.466  51.920  49.616  1.00  0.00     0.116 A 
HETATM   33  F   UNL     1      17.802  52.958  50.139  1.00  0.00    -0.206 F 
HETATM   34  C   UNL     1      19.487  52.150  48.704  1.00  0.00     0.043 A 
HETATM   35  C   UNL     1      20.178  51.067  48.161  1.00  0.00     0.012 A 
ENDBRANCH   6  29
TORSDOF 6
ENDMDL
MODEL 8
REMARK VINA RESULT:      -8.9      7.189     13.340
REMARK  6 active torsions:
REMARK  status: ('A' for Active; 'I' for Inactive)
REMARK    1  A    between atoms: C_2  and  O_3 
REMARK    2  A    between atoms: C_2  and  C_4 
REMARK    3  A    between atoms: C_6  and  N_7 
REMARK       I    between atoms: N_7  and  C_8 
REMARK    4  A    between atoms: C_8  and  C_9 
REMARK    5  A    between atoms: C_14  and  C_15 
REMARK    6  A    between atoms: C_23  and  C_24 
ROOT
HETATM    1  C   UNL     1      21.123  50.603  48.525  1.00  0.00     0.148 A 
HETATM    2  N   UNL     1      20.166  51.426  49.018  1.00  0.00    -0.165 NA
HETATM    3  N   UNL     1      19.175  51.318  48.113  1.00  0.00    -0.240 N 
HETATM    4  C   UNL     1      19.484  50.536  47.036  1.00  0.00     0.123 A 
HETATM    5  N   UNL     1      18.647  50.435  45.984  1.00  0.00    -0.366 N 
HETATM    6  C   UNL     1      17.531  51.361  45.779  1.00  0.00     0.118 C 
HETATM    7  C   UNL     1      17.569  52.543  46.772  1.00  0.00     0.066 C 
HETATM    8  C   UNL     1      17.957  52.101  48.191  1.00  0.00     0.221 C 
HETATM    9  C   UNL     1      20.713  50.000  47.303  1.00  0.00     0.089 A 
HETATM   10  H   UNL     1      18.874  49.841  45.188  1.00  0.00     0.161 HD
ENDROOT
BRANCH   1  11
HETATM   11  C   UNL     1      22.429  50.429  49.187  1.00  0.00     0.276 C 
HETATM   12  N   UNL     1      23.273  49.613  48.459  1.00  0.00    -0.322 N 
HETATM   13  H   UNL     1      22.876  49.309  47.573  1.00  0.00     0.169 HD
HETATM   14  O   UNL     1      22.672  50.965  50.263  1.00  0.00    -0.266 OA
BRANCH  12  15
HETATM   15  C   UNL     1      24.564  49.175  48.796  1.00  0.00     0.035 A 
HETATM   16  C   UNL     1      24.820  48.036  49.564  1.00  0.00     0.039 A 
HETATM   17  C   UNL     1      26.137  47.645  49.866  1.00  0.00    -0.028 A 
HETATM   18  C   UNL     1      27.200  48.430  49.402  1.00  0.00     0.010 A 
HETATM   19  C   UNL     1      26.954  49.562  48.627  1.00  0.00     0.003 A 
HETATM   20  C   UNL     1      25.642  49.929  48.322  1.00  0.00     0.029 A 
BRANCH  17  21
HETATM   21  C   UNL     1      26.371  46.413  50.716  1.00  0.00     0.147 C 
HETATM   22  C   UNL     1      26.932  45.258  49.899  1.00  0.00     0.044 C 
BRANCH  21  23
HETATM   23  O   UNL     1      25.160  45.994  51.341  1.00  0.00    -0.391 OA
HETATM   24  H   UNL     1      25.236  46.233  52.281  1.00  0.00     0.210 HD
ENDBRANCH  21  23
ENDBRANCH  17  21
ENDBRANCH  12  15
ENDBRANCH   1  11
BRANCH   8  25
HETATM   25  C   UNL     1      16.870  51.308  48.877  1.00  0.00     0.409 C 
HETATM   26  F   UNL     1      16.822  51.547  50.207  1.00  0.00    -0.169 F 
HETATM   27  F   UNL     1      15.659  51.670  48.377  1.00  0.00    -0.169 F 
HETATM   28  F   UNL     1      16.975  49.976  48.701  1.00  0.00    -0.169 F 
ENDBRANCH   8  25
BRANCH   6  29
HETATM   29  C   UNL     1      17.567  51.869  44.345  1.00  0.00    -0.035 A 
HETATM   30  C   UNL     1      16.967  53.094  44.010  1.00  0.00     0.012 A 
HETATM   31  C   UNL     1      17.005  53.563  42.695  1.00  0.00     0.043 A 
HETATM   32  C   UNL     1      17.642  52.813  41.712  1.00  0.00     0.116 A 
HETATM   33  F   UNL     1      17.673  53.267  40.453  1.00  0.00    -0.206 F 
HETATM   34  C   UNL     1      18.245  51.601  42.018  1.00  0.00     0.043 A 
HETATM   35  C   UNL     1      18.211  51.131  43.332  1.00  0.00     0.012 A 
ENDBRANCH   6  29
TORSDOF 6
ENDMDL
MODEL 9
REMARK VINA RESULT:      -8.8     16.326     19.677
REMARK  6 active torsions:
REMARK  status: ('A' for Active; 'I' for Inactive)
REMARK    1  A    between atoms: C_2  and  O_3 
REMARK    2  A    between atoms: C_2  and  C_4 
REMARK    3  A    between atoms: C_6  and  N_7 
REMARK       I    between atoms: N_7  and  C_8 
REMARK    4  A    between atoms: C_8  and  C_9 
REMARK    5  A    between atoms: C_14  and  C_15 
REMARK    6  A    between atoms: C_23  and  C_24 
ROOT
HETATM    1  C   UNL     1      38.022  41.258  64.161  1.00  0.00     0.148 A 
HETATM    2  N   UNL     1      37.237  41.226  65.266  1.00  0.00    -0.165 NA
HETATM    3  N   UNL     1      36.539  42.374  65.177  1.00  0.00    -0.240 N 
HETATM    4  C   UNL     1      36.897  43.166  64.123  1.00  0.00     0.123 A 
HETATM    5  N   UNL     1      36.382  44.403  63.974  1.00  0.00    -0.366 N 
HETATM    6  C   UNL     1      35.670  45.090  65.052  1.00  0.00     0.118 C 
HETATM    7  C   UNL     1      35.768  44.326  66.390  1.00  0.00     0.066 C 
HETATM    8  C   UNL     1      35.617  42.808  66.207  1.00  0.00     0.221 C 
HETATM    9  C   UNL     1      37.806  42.442  63.402  1.00  0.00     0.089 A 
HETATM   10  H   UNL     1      36.640  44.987  63.178  1.00  0.00     0.161 HD
ENDROOT
BRANCH   1  11
HETATM   11  C   UNL     1      38.996  40.195  63.857  1.00  0.00     0.276 C 
HETATM   12  N   UNL     1      39.414  39.535  64.996  1.00  0.00    -0.322 N 
HETATM   13  H   UNL     1      38.949  39.855  65.842  1.00  0.00     0.169 HD
HETATM   14  O   UNL     1      39.362  39.978  62.706  1.00  0.00    -0.266 OA
BRANCH  12  15
HETATM   15  C   UNL     1      40.372  38.514  65.109  1.00  0.00     0.035 A 
HETATM   16  C   UNL     1      40.115  37.272  65.696  1.00  0.00     0.039 A 
HETATM   17  C   UNL     1      41.114  36.286  65.776  1.00  0.00    -0.028 A 
HETATM   18  C   UNL     1      42.390  36.573  65.274  1.00  0.00     0.010 A 
HETATM   19  C   UNL     1      42.652  37.804  64.677  1.00  0.00     0.003 A 
HETATM   20  C   UNL     1      41.645  38.767  64.590  1.00  0.00     0.029 A 
BRANCH  17  21
HETATM   21  C   UNL     1      40.801  34.960  66.437  1.00  0.00     0.147 C 
HETATM   22  C   UNL     1      41.655  34.726  67.675  1.00  0.00     0.044 C 
BRANCH  21  23
HETATM   23  O   UNL     1      41.003  33.881  65.525  1.00  0.00    -0.391 OA
HETATM   24  H   UNL     1      40.561  34.133  64.696  1.00  0.00     0.210 HD
ENDBRANCH  21  23
ENDBRANCH  17  21
ENDBRANCH  12  15
ENDBRANCH   1  11
BRANCH   8  25
HETATM   25  C   UNL     1      34.207  42.396  65.853  1.00  0.00     0.409 C 
HETATM   26  F   UNL     1      34.176  41.462  64.877  1.00  0.00    -0.169 F 
HETATM   27  F   UNL     1      33.610  41.839  66.939  1.00  0.00    -0.169 F 
HETATM   28  F   UNL     1      33.423  43.422  65.467  1.00  0.00    -0.169 F 
ENDBRANCH   8  25
BRANCH   6  29
HETATM   29  C   UNL     1      36.233  46.496  65.200  1.00  0.00    -0.035 A 
HETATM   30  C   UNL     1      36.785  47.161  64.093  1.00  0.00     0.012 A 
HETATM   31  C   UNL     1      37.296  48.454  64.228  1.00  0.00     0.043 A 
HETATM   32  C   UNL     1      37.256  49.087  65.465  1.00  0.00     0.116 A 
HETATM   33  F   UNL     1      37.749  50.326  65.589  1.00  0.00    -0.206 F 
HETATM   34  C   UNL     1      36.712  48.453  66.574  1.00  0.00     0.043 A 
HETATM   35  C   UNL     1      36.199  47.162  66.442  1.00  0.00     0.012 A 
ENDBRANCH   6  29
TORSDOF 6
ENDMDL
MODEL 10
REMARK VINA RESULT:      -8.7      4.380      7.364
REMARK  6 active torsions:
REMARK  status: ('A' for Active; 'I' for Inactive)
REMARK    1  A    between atoms: C_2  and  O_3 
REMARK    2  A    between atoms: C_2  and  C_4 
REMARK    3  A    between atoms: C_6  and  N_7 
REMARK       I    between atoms: N_7  and  C_8 
REMARK    4  A    between atoms: C_8  and  C_9 
REMARK    5  A    between atoms: C_14  and  C_15 
REMARK    6  A    between atoms: C_23  and  C_24 
ROOT
HETATM    1  C   UNL     1      27.132  41.829  50.829  1.00  0.00     0.148 A 
HETATM    2  N   UNL     1      26.112  42.333  51.566  1.00  0.00    -0.165 NA
HETATM    3  N   UNL     1      26.707  43.300  52.290  1.00  0.00    -0.240 N 
HETATM    4  C   UNL     1      28.059  43.381  52.110  1.00  0.00     0.123 A 
HETATM    5  N   UNL     1      28.814  44.210  52.860  1.00  0.00    -0.366 N 
HETATM    6  C   UNL     1      28.313  44.831  54.086  1.00  0.00     0.118 C 
HETATM    7  C   UNL     1      26.936  44.268  54.501  1.00  0.00     0.066 C 
HETATM    8  C   UNL     1      26.002  44.067  53.298  1.00  0.00     0.221 C 
HETATM    9  C   UNL     1      28.359  42.489  51.118  1.00  0.00     0.089 A 
HETATM   10  H   UNL     1      29.821  44.278  52.715  1.00  0.00     0.161 HD
ENDROOT
BRANCH   1  11
HETATM   11  C   UNL     1      26.948  40.704  49.896  1.00  0.00     0.276 C 
HETATM   12  N   UNL     1      27.676  40.871  48.733  1.00  0.00    -0.322 N 
HETATM   13  H   UNL     1      28.251  41.711  48.734  1.00  0.00     0.169 HD
HETATM   14  O   UNL     1      26.211  39.763  50.172  1.00  0.00    -0.266 OA
BRANCH  12  15
HETATM   15  C   UNL     1      27.706  40.044  47.599  1.00  0.00     0.035 A 
HETATM   16  C   UNL     1      27.464  38.668  47.637  1.00  0.00     0.039 A 
HETATM   17  C   UNL     1      27.505  37.891  46.466  1.00  0.00    -0.028 A 
HETATM   18  C   UNL     1      27.814  38.514  45.250  1.00  0.00     0.010 A 
HETATM   19  C   UNL     1      28.046  39.888  45.201  1.00  0.00     0.003 A 
HETATM   20  C   UNL     1      27.987  40.648  46.370  1.00  0.00     0.029 A 
BRANCH  17  21
HETATM   21  C   UNL     1      27.255  36.399  46.552  1.00  0.00     0.147 C 
HETATM   22  C   UNL     1      26.592  36.010  47.866  1.00  0.00     0.044 C 
BRANCH  21  23
HETATM   23  O   UNL     1      28.476  35.674  46.416  1.00  0.00    -0.391 OA
HETATM   24  H   UNL     1      28.296  34.942  45.802  1.00  0.00     0.210 HD
ENDBRANCH  21  23
ENDBRANCH  17  21
ENDBRANCH  12  15
ENDBRANCH   1  11
BRANCH   8  25
HETATM   25  C   UNL     1      25.509  45.369  52.712  1.00  0.00     0.409 C 
HETATM   26  F   UNL     1      26.315  45.826  51.728  1.00  0.00    -0.169 F 
HETATM   27  F   UNL     1      24.285  45.181  52.152  1.00  0.00    -0.169 F 
HETATM   28  F   UNL     1      25.368  46.354  53.621  1.00  0.00    -0.169 F 
ENDBRANCH   8  25
BRANCH   6  29
HETATM   29  C   UNL     1      29.330  44.622  55.199  1.00  0.00    -0.035 A 
HETATM   30  C   UNL     1      29.429  45.545  56.253  1.00  0.00     0.012 A 
HETATM   31  C   UNL     1      30.359  45.349  57.278  1.00  0.00     0.043 A 
HETATM   32  C   UNL     1      31.189  44.233  57.254  1.00  0.00     0.116 A 
HETATM   33  F   UNL     1      32.079  44.052  58.237  1.00  0.00    -0.206 F 
HETATM   34  C   UNL     1      31.107  43.305  56.225  1.00  0.00     0.043 A 
HETATM   35  C   UNL     1      30.178  43.497  55.202  1.00  0.00     0.012 A 
ENDBRANCH   6  29
TORSDOF 6
ENDMDL
