MODEL 1
REMARK VINA RESULT:      -9.0      0.000      0.000
REMARK  9 active torsions:
REMARK  status: ('A' for Active; 'I' for Inactive)
REMARK    1  A    between atoms: N_5  and  C_6 
REMARK    2  A    between atoms: C_6  and  C_7 
REMARK    3  A    between atoms: C_7  and  O_8 
REMARK    4  A    between atoms: C_7  and  C_9 
REMARK    5  A    between atoms: C_9  and  O_10 
REMARK    6  A    between atoms: O_10  and  C_11 
REMARK    7  A    between atoms: N_23  and  C_24 
REMARK    8  A    between atoms: C_24  and  C_25 
REMARK    9  A    between atoms: C_25  and  N_26 
ROOT
HETATM    1  C   UNL     1      27.200  50.076  48.436  1.00  0.00     0.002 A 
HETATM    2  C   UNL     1      25.848  50.127  48.084  1.00  0.00     0.032 A 
HETATM    3  C   UNL     1      25.019  49.167  48.629  1.00  0.00     0.079 A 
HETATM    4  C   UNL     1      25.496  48.175  49.521  1.00  0.00     0.079 A 
HETATM    5  N   UNL     1      24.417  47.376  49.902  1.00  0.00    -0.179 N 
HETATM    6  C   UNL     1      23.259  47.886  49.255  1.00  0.00     0.681 A 
HETATM    7  N   UNL     1      22.012  47.397  49.418  1.00  0.00    -0.234 N 
HETATM    8  H   UNL     1      21.186  47.813  49.013  1.00  0.00     0.174 HD
HETATM    9  H   UNL     1      21.861  46.567  49.985  1.00  0.00     0.174 HD
HETATM   10  N   UNL     1      23.597  48.980  48.445  1.00  0.00    -0.180 N 
HETATM   11  C   UNL     1      26.828  48.128  49.869  1.00  0.00     0.032 A 
HETATM   12  C   UNL     1      27.681  49.087  49.315  1.00  0.00     0.002 A 
ENDROOT
BRANCH   5  13
HETATM   13  C   UNL     1      24.504  46.425  50.999  1.00  0.00     0.181 C 
BRANCH  13  14
HETATM   14  C   UNL     1      24.454  44.952  50.543  1.00  0.00     0.161 C 
BRANCH  14  15
HETATM   15  O   UNL     1      23.118  44.482  50.737  1.00  0.00    -0.392 OA
HETATM   16  H   UNL     1      22.963  43.766  50.089  1.00  0.00     0.210 HD
ENDBRANCH  14  15
BRANCH  14  17
HETATM   17  C   UNL     1      25.408  44.072  51.357  1.00  0.00     0.209 C 
BRANCH  17  18
HETATM   18  O   UNL     1      26.746  44.551  51.219  1.00  0.00    -0.347 OA
BRANCH  18  19
HETATM   19  C   UNL     1      27.566  44.293  52.290  1.00  0.00     0.090 A 
HETATM   20  C   UNL     1      27.496  44.876  53.568  1.00  0.00     0.069 A 
HETATM   21 CL   UNL     1      26.340  46.092  54.003  1.00  0.00    -0.081 Cl
HETATM   22  C   UNL     1      28.414  44.506  54.557  1.00  0.00     0.050 A 
HETATM   23  C   UNL     1      29.412  43.579  54.269  1.00  0.00     0.035 A 
HETATM   24 CL   UNL     1      30.530  43.126  55.492  1.00  0.00    -0.084 Cl
HETATM   25  C   UNL     1      29.514  43.025  52.997  1.00  0.00     0.026 A 
HETATM   26  C   UNL     1      28.597  43.389  52.008  1.00  0.00     0.040 A 
ENDBRANCH  18  19
ENDBRANCH  17  18
ENDBRANCH  14  17
ENDBRANCH  13  14
ENDBRANCH   5  13
BRANCH  10  27
HETATM   27  C   UNL     1      22.713  49.895  47.707  1.00  0.00     0.175 C 
BRANCH  27  28
HETATM   28  C   UNL     1      22.104  50.998  48.600  1.00  0.00     0.256 C 
BRANCH  28  29
HETATM   29  N   UNL     1      20.620  50.850  48.865  1.00  0.00    -0.066 N 
HETATM   30  H   UNL     1      20.303  50.087  48.247  1.00  0.00     0.280 HD
HETATM   31  C   UNL     1      20.250  50.395  50.280  1.00  0.00     0.261 C 
HETATM   32  C   UNL     1      18.737  50.168  50.372  1.00  0.00     0.195 C 
HETATM   33  O   UNL     1      18.033  51.359  50.008  1.00  0.00    -0.388 OA
HETATM   34  C   UNL     1      18.284  51.738  48.651  1.00  0.00     0.195 C 
HETATM   35  C   UNL     1      19.770  52.060  48.454  1.00  0.00     0.261 C 
ENDBRANCH  28  29
ENDBRANCH  27  28
ENDBRANCH  10  27
TORSDOF 9
ENDMDL
MODEL 2
REMARK VINA RESULT:      -8.9      1.828      2.123
REMARK  9 active torsions:
REMARK  status: ('A' for Active; 'I' for Inactive)
REMARK    1  A    between atoms: N_5  and  C_6 
REMARK    2  A    between atoms: C_6  and  C_7 
REMARK    3  A    between atoms: C_7  and  O_8 
REMARK    4  A    between atoms: C_7  and  C_9 
REMARK    5  A    between atoms: C_9  and  O_10 
REMARK    6  A    between atoms: O_10  and  C_11 
REMARK    7  A    between atoms: N_23  and  C_24 
REMARK    8  A    between atoms: C_24  and  C_25 
REMARK    9  A    between atoms: C_25  and  N_26 
ROOT
HETATM    1  C   UNL     1      26.909  50.229  48.444  1.00  0.00     0.002 A 
HETATM    2  C   UNL     1      25.581  49.839  48.258  1.00  0.00     0.032 A 
HETATM    3  C   UNL     1      25.197  48.631  48.807  1.00  0.00     0.079 A 
HETATM    4  C   UNL     1      26.093  47.817  49.544  1.00  0.00     0.079 A 
HETATM    5  N   UNL     1      25.399  46.685  49.973  1.00  0.00    -0.179 N 
HETATM    6  C   UNL     1      24.060  46.804  49.515  1.00  0.00     0.681 A 
HETATM    7  N   UNL     1      23.078  45.917  49.777  1.00  0.00    -0.234 N 
HETATM    8  H   UNL     1      22.113  46.049  49.511  1.00  0.00     0.174 HD
HETATM    9  H   UNL     1      23.288  45.059  50.280  1.00  0.00     0.174 HD
HETATM   10  N   UNL     1      23.904  47.985  48.774  1.00  0.00    -0.180 N 
HETATM   11  C   UNL     1      27.401  48.205  49.728  1.00  0.00     0.032 A 
HETATM   12  C   UNL     1      27.807  49.421  49.167  1.00  0.00     0.002 A 
ENDROOT
BRANCH   5  13
HETATM   13  C   UNL     1      25.947  45.769  50.962  1.00  0.00     0.181 C 
BRANCH  13  14
HETATM   14  C   UNL     1      25.366  45.973  52.378  1.00  0.00     0.161 C 
BRANCH  14  15
HETATM   15  O   UNL     1      25.487  47.360  52.701  1.00  0.00    -0.392 OA
HETATM   16  H   UNL     1      25.995  47.784  51.981  1.00  0.00     0.210 HD
ENDBRANCH  14  15
BRANCH  14  17
HETATM   17  C   UNL     1      26.125  45.154  53.427  1.00  0.00     0.209 C 
BRANCH  17  18
HETATM   18  O   UNL     1      27.431  44.837  52.942  1.00  0.00    -0.347 OA
BRANCH  18  19
HETATM   19  C   UNL     1      28.375  44.633  53.918  1.00  0.00     0.090 A 
HETATM   20  C   UNL     1      28.769  45.539  54.918  1.00  0.00     0.069 A 
HETATM   21 CL   UNL     1      28.126  47.143  55.062  1.00  0.00    -0.081 Cl
HETATM   22  C   UNL     1      29.755  45.178  55.842  1.00  0.00     0.050 A 
HETATM   23  C   UNL     1      30.364  43.928  55.758  1.00  0.00     0.035 A 
HETATM   24 CL   UNL     1      31.569  43.491  56.902  1.00  0.00    -0.084 Cl
HETATM   25  C   UNL     1      30.009  43.038  54.750  1.00  0.00     0.026 A 
HETATM   26  C   UNL     1      29.023  43.394  53.827  1.00  0.00     0.040 A 
ENDBRANCH  18  19
ENDBRANCH  17  18
ENDBRANCH  14  17
ENDBRANCH  13  14
ENDBRANCH   5  13
BRANCH  10  27
HETATM   27  C   UNL     1      22.674  48.582  48.231  1.00  0.00     0.175 C 
BRANCH  27  28
HETATM   28  C   UNL     1      21.824  49.295  49.304  1.00  0.00     0.256 C 
BRANCH  28  29
HETATM   29  N   UNL     1      20.517  48.605  49.637  1.00  0.00    -0.066 N 
HETATM   30  H   UNL     1      20.766  47.837  50.281  1.00  0.00     0.280 HD
HETATM   31  C   UNL     1      19.505  49.457  50.408  1.00  0.00     0.261 C 
HETATM   32  C   UNL     1      18.289  48.603  50.785  1.00  0.00     0.195 C 
HETATM   33  O   UNL     1      17.702  48.030  49.613  1.00  0.00    -0.388 OA
HETATM   34  C   UNL     1      18.601  47.144  48.940  1.00  0.00     0.195 C 
HETATM   35  C   UNL     1      19.836  47.909  48.451  1.00  0.00     0.261 C 
ENDBRANCH  28  29
ENDBRANCH  27  28
ENDBRANCH  10  27
TORSDOF 9
ENDMDL
MODEL 3
REMARK VINA RESULT:      -8.7      1.330      1.549
REMARK  9 active torsions:
REMARK  status: ('A' for Active; 'I' for Inactive)
REMARK    1  A    between atoms: N_5  and  C_6 
REMARK    2  A    between atoms: C_6  and  C_7 
REMARK    3  A    between atoms: C_7  and  O_8 
REMARK    4  A    between atoms: C_7  and  C_9 
REMARK    5  A    between atoms: C_9  and  O_10 
REMARK    6  A    between atoms: O_10  and  C_11 
REMARK    7  A    between atoms: N_23  and  C_24 
REMARK    8  A    between atoms: C_24  and  C_25 
REMARK    9  A    between atoms: C_25  and  N_26 
ROOT
HETATM    1  C   UNL     1      26.671  50.292  48.386  1.00  0.00     0.002 A 
HETATM    2  C   UNL     1      25.344  49.877  48.251  1.00  0.00     0.032 A 
HETATM    3  C   UNL     1      25.015  48.641  48.772  1.00  0.00     0.079 A 
HETATM    4  C   UNL     1      25.965  47.823  49.434  1.00  0.00     0.079 A 
HETATM    5  N   UNL     1      25.319  46.659  49.854  1.00  0.00    -0.179 N 
HETATM    6  C   UNL     1      23.957  46.763  49.466  1.00  0.00     0.681 A 
HETATM    7  N   UNL     1      23.009  45.843  49.743  1.00  0.00    -0.234 N 
HETATM    8  H   UNL     1      22.029  45.961  49.530  1.00  0.00     0.174 HD
HETATM    9  H   UNL     1      23.263  44.973  50.203  1.00  0.00     0.174 HD
HETATM   10  N   UNL     1      23.737  47.966  48.778  1.00  0.00    -0.180 N 
HETATM   11  C   UNL     1      27.272  48.236  49.568  1.00  0.00     0.032 A 
HETATM   12  C   UNL     1      27.621  49.480  49.034  1.00  0.00     0.002 A 
ENDROOT
BRANCH   5  13
HETATM   13  C   UNL     1      25.936  45.722  50.781  1.00  0.00     0.181 C 
BRANCH  13  14
HETATM   14  C   UNL     1      27.092  44.911  50.157  1.00  0.00     0.161 C 
BRANCH  14  15
HETATM   15  O   UNL     1      26.551  44.136  49.086  1.00  0.00    -0.392 OA
HETATM   16  H   UNL     1      25.876  44.685  48.640  1.00  0.00     0.210 HD
ENDBRANCH  14  15
BRANCH  14  17
HETATM   17  C   UNL     1      27.734  43.963  51.176  1.00  0.00     0.209 C 
BRANCH  17  18
HETATM   18  O   UNL     1      27.254  44.264  52.487  1.00  0.00    -0.347 OA
BRANCH  18  19
HETATM   19  C   UNL     1      28.205  44.210  53.476  1.00  0.00     0.090 A 
HETATM   20  C   UNL     1      28.382  45.122  54.531  1.00  0.00     0.069 A 
HETATM   21 CL   UNL     1      27.410  46.542  54.740  1.00  0.00    -0.081 Cl
HETATM   22  C   UNL     1      29.408  44.927  55.462  1.00  0.00     0.050 A 
HETATM   23  C   UNL     1      30.270  43.842  55.330  1.00  0.00     0.035 A 
HETATM   24 CL   UNL     1      31.523  43.607  56.482  1.00  0.00    -0.084 Cl
HETATM   25  C   UNL     1      30.129  42.954  54.269  1.00  0.00     0.026 A 
HETATM   26  C   UNL     1      29.104  43.144  53.339  1.00  0.00     0.040 A 
ENDBRANCH  18  19
ENDBRANCH  17  18
ENDBRANCH  14  17
ENDBRANCH  13  14
ENDBRANCH   5  13
BRANCH  10  27
HETATM   27  C   UNL     1      22.469  48.552  48.319  1.00  0.00     0.175 C 
BRANCH  27  28
HETATM   28  C   UNL     1      21.512  48.907  49.477  1.00  0.00     0.256 C 
BRANCH  28  29
HETATM   29  N   UNL     1      20.399  49.866  49.106  1.00  0.00    -0.066 N 
HETATM   30  H   UNL     1      20.049  49.543  48.190  1.00  0.00     0.280 HD
HETATM   31  C   UNL     1      19.178  49.838  50.030  1.00  0.00     0.261 C 
HETATM   32  C   UNL     1      18.086  50.758  49.472  1.00  0.00     0.195 C 
HETATM   33  O   UNL     1      18.589  52.088  49.315  1.00  0.00    -0.388 OA
HETATM   34  C   UNL     1      19.662  52.148  48.370  1.00  0.00     0.195 C 
HETATM   35  C   UNL     1      20.851  51.312  48.861  1.00  0.00     0.261 C 
ENDBRANCH  28  29
ENDBRANCH  27  28
ENDBRANCH  10  27
TORSDOF 9
ENDMDL
MODEL 4
REMARK VINA RESULT:      -8.5      4.244      9.954
REMARK  9 active torsions:
REMARK  status: ('A' for Active; 'I' for Inactive)
REMARK    1  A    between atoms: N_5  and  C_6 
REMARK    2  A    between atoms: C_6  and  C_7 
REMARK    3  A    between atoms: C_7  and  O_8 
REMARK    4  A    between atoms: C_7  and  C_9 
REMARK    5  A    between atoms: C_9  and  O_10 
REMARK    6  A    between atoms: O_10  and  C_11 
REMARK    7  A    between atoms: N_23  and  C_24 
REMARK    8  A    between atoms: C_24  and  C_25 
REMARK    9  A    between atoms: C_25  and  N_26 
ROOT
HETATM    1  C   UNL     1      30.670  43.568  55.014  1.00  0.00     0.002 A 
HETATM    2  C   UNL     1      30.085  42.901  53.934  1.00  0.00     0.032 A 
HETATM    3  C   UNL     1      28.783  43.235  53.619  1.00  0.00     0.079 A 
HETATM    4  C   UNL     1      28.061  44.221  54.336  1.00  0.00     0.079 A 
HETATM    5  N   UNL     1      26.792  44.334  53.764  1.00  0.00    -0.179 N 
HETATM    6  C   UNL     1      26.732  43.425  52.675  1.00  0.00     0.681 A 
HETATM    7  N   UNL     1      25.674  43.285  51.850  1.00  0.00    -0.234 N 
HETATM    8  H   UNL     1      25.669  42.691  51.033  1.00  0.00     0.174 HD
HETATM    9  H   UNL     1      24.817  43.803  52.029  1.00  0.00     0.174 HD
HETATM   10  N   UNL     1      27.938  42.715  52.567  1.00  0.00    -0.180 N 
HETATM   11  C   UNL     1      28.640  44.880  55.398  1.00  0.00     0.032 A 
HETATM   12  C   UNL     1      29.955  44.543  55.736  1.00  0.00     0.002 A 
ENDROOT
BRANCH   5  13
HETATM   13  C   UNL     1      25.888  45.426  54.092  1.00  0.00     0.181 C 
BRANCH  13  14
HETATM   14  C   UNL     1      26.082  46.673  53.204  1.00  0.00     0.161 C 
BRANCH  14  15
HETATM   15  O   UNL     1      25.534  47.793  53.902  1.00  0.00    -0.392 OA
HETATM   16  H   UNL     1      25.028  48.322  53.254  1.00  0.00     0.210 HD
ENDBRANCH  14  15
BRANCH  14  17
HETATM   17  C   UNL     1      25.361  46.531  51.859  1.00  0.00     0.209 C 
BRANCH  17  18
HETATM   18  O   UNL     1      26.178  47.057  50.813  1.00  0.00    -0.347 OA
BRANCH  18  19
HETATM   19  C   UNL     1      25.543  47.937  49.972  1.00  0.00     0.090 A 
HETATM   20  C   UNL     1      26.145  48.913  49.158  1.00  0.00     0.069 A 
HETATM   21 CL   UNL     1      27.854  49.200  49.111  1.00  0.00    -0.081 Cl
HETATM   22  C   UNL     1      25.353  49.740  48.354  1.00  0.00     0.050 A 
HETATM   23  C   UNL     1      23.966  49.614  48.379  1.00  0.00     0.035 A 
HETATM   24 CL   UNL     1      23.002  50.630  47.384  1.00  0.00    -0.084 Cl
HETATM   25  C   UNL     1      23.358  48.678  49.209  1.00  0.00     0.026 A 
HETATM   26  C   UNL     1      24.146  47.848  50.010  1.00  0.00     0.040 A 
ENDBRANCH  18  19
ENDBRANCH  17  18
ENDBRANCH  14  17
ENDBRANCH  13  14
ENDBRANCH   5  13
BRANCH  10  27
HETATM   27  C   UNL     1      28.372  41.781  51.517  1.00  0.00     0.175 C 
BRANCH  27  28
HETATM   28  C   UNL     1      27.447  40.554  51.379  1.00  0.00     0.256 C 
BRANCH  28  29
HETATM   29  N   UNL     1      28.064  39.375  50.654  1.00  0.00    -0.066 N 
HETATM   30  H   UNL     1      27.424  38.582  50.821  1.00  0.00     0.280 HD
HETATM   31  C   UNL     1      28.140  39.511  49.131  1.00  0.00     0.261 C 
HETATM   32  C   UNL     1      28.666  38.206  48.520  1.00  0.00     0.195 C 
HETATM   33  O   UNL     1      29.942  37.877  49.077  1.00  0.00    -0.388 OA
HETATM   34  C   UNL     1      29.867  37.639  50.486  1.00  0.00     0.195 C 
HETATM   35  C   UNL     1      29.413  38.909  51.217  1.00  0.00     0.261 C 
ENDBRANCH  28  29
ENDBRANCH  27  28
ENDBRANCH  10  27
TORSDOF 9
ENDMDL
MODEL 5
REMARK VINA RESULT:      -8.3      3.336      6.153
REMARK  9 active torsions:
REMARK  status: ('A' for Active; 'I' for Inactive)
REMARK    1  A    between atoms: N_5  and  C_6 
REMARK    2  A    between atoms: C_6  and  C_7 
REMARK    3  A    between atoms: C_7  and  O_8 
REMARK    4  A    between atoms: C_7  and  C_9 
REMARK    5  A    between atoms: C_9  and  O_10 
REMARK    6  A    between atoms: O_10  and  C_11 
REMARK    7  A    between atoms: N_23  and  C_24 
REMARK    8  A    between atoms: C_24  and  C_25 
REMARK    9  A    between atoms: C_25  and  N_26 
ROOT
HETATM    1  C   UNL     1      24.650  40.156  47.366  1.00  0.00     0.002 A 
HETATM    2  C   UNL     1      24.083  41.105  48.220  1.00  0.00     0.032 A 
HETATM    3  C   UNL     1      24.857  41.545  49.275  1.00  0.00     0.079 A 
HETATM    4  C   UNL     1      26.178  41.078  49.488  1.00  0.00     0.079 A 
HETATM    5  N   UNL     1      26.691  41.722  50.616  1.00  0.00    -0.179 N 
HETATM    6  C   UNL     1      25.687  42.606  51.096  1.00  0.00     0.681 A 
HETATM    7  N   UNL     1      25.837  43.436  52.149  1.00  0.00    -0.234 N 
HETATM    8  H   UNL     1      25.146  44.114  52.436  1.00  0.00     0.174 HD
HETATM    9  H   UNL     1      26.689  43.408  52.703  1.00  0.00     0.174 HD
HETATM   10  N   UNL     1      24.534  42.509  50.303  1.00  0.00    -0.180 N 
HETATM   11  C   UNL     1      26.737  40.146  48.643  1.00  0.00     0.032 A 
HETATM   12  C   UNL     1      25.959  39.683  47.577  1.00  0.00     0.002 A 
ENDROOT
BRANCH   5  13
HETATM   13  C   UNL     1      28.101  41.667  50.967  1.00  0.00     0.181 C 
BRANCH  13  14
HETATM   14  C   UNL     1      28.373  40.964  52.314  1.00  0.00     0.161 C 
BRANCH  14  15
HETATM   15  O   UNL     1      27.111  40.693  52.925  1.00  0.00    -0.392 OA
HETATM   16  H   UNL     1      27.167  39.804  53.329  1.00  0.00     0.210 HD
ENDBRANCH  14  15
BRANCH  14  17
HETATM   17  C   UNL     1      29.198  41.845  53.258  1.00  0.00     0.209 C 
BRANCH  17  18
HETATM   18  O   UNL     1      28.669  43.172  53.268  1.00  0.00    -0.347 OA
BRANCH  18  19
HETATM   19  C   UNL     1      29.060  43.942  54.336  1.00  0.00     0.090 A 
HETATM   20  C   UNL     1      28.478  45.146  54.769  1.00  0.00     0.069 A 
HETATM   21 CL   UNL     1      27.142  45.905  53.968  1.00  0.00    -0.081 Cl
HETATM   22  C   UNL     1      29.000  45.816  55.881  1.00  0.00     0.050 A 
HETATM   23  C   UNL     1      30.112  45.302  56.545  1.00  0.00     0.035 A 
HETATM   24 CL   UNL     1      30.741  46.129  57.913  1.00  0.00    -0.084 Cl
HETATM   25  C   UNL     1      30.718  44.132  56.102  1.00  0.00     0.026 A 
HETATM   26  C   UNL     1      30.198  43.458  54.994  1.00  0.00     0.040 A 
ENDBRANCH  18  19
ENDBRANCH  17  18
ENDBRANCH  14  17
ENDBRANCH  13  14
ENDBRANCH   5  13
BRANCH  10  27
HETATM   27  C   UNL     1      23.311  43.325  50.343  1.00  0.00     0.175 C 
BRANCH  27  28
HETATM   28  C   UNL     1      23.268  44.403  49.239  1.00  0.00     0.256 C 
BRANCH  28  29
HETATM   29  N   UNL     1      23.655  45.794  49.698  1.00  0.00    -0.066 N 
HETATM   30  H   UNL     1      23.265  45.890  50.649  1.00  0.00     0.280 HD
HETATM   31  C   UNL     1      25.158  46.036  49.858  1.00  0.00     0.261 C 
HETATM   32  C   UNL     1      25.399  47.433  50.442  1.00  0.00     0.195 C 
HETATM   33  O   UNL     1      24.798  48.429  49.610  1.00  0.00    -0.388 OA
HETATM   34  C   UNL     1      23.376  48.282  49.537  1.00  0.00     0.195 C 
HETATM   35  C   UNL     1      23.012  46.936  48.899  1.00  0.00     0.261 C 
ENDBRANCH  28  29
ENDBRANCH  27  28
ENDBRANCH  10  27
TORSDOF 9
ENDMDL
MODEL 6
REMARK VINA RESULT:      -8.2      4.088      6.562
REMARK  9 active torsions:
REMARK  status: ('A' for Active; 'I' for Inactive)
REMARK    1  A    between atoms: N_5  and  C_6 
REMARK    2  A    between atoms: C_6  and  C_7 
REMARK    3  A    between atoms: C_7  and  O_8 
REMARK    4  A    between atoms: C_7  and  C_9 
REMARK    5  A    between atoms: C_9  and  O_10 
REMARK    6  A    between atoms: O_10  and  C_11 
REMARK    7  A    between atoms: N_23  and  C_24 
REMARK    8  A    between atoms: C_24  and  C_25 
REMARK    9  A    between atoms: C_25  and  N_26 
ROOT
HETATM    1  C   UNL     1      27.612  47.504  54.716  1.00  0.00     0.002 A 
HETATM    2  C   UNL     1      26.711  47.077  53.737  1.00  0.00     0.032 A 
HETATM    3  C   UNL     1      26.752  45.744  53.382  1.00  0.00     0.079 A 
HETATM    4  C   UNL     1      27.650  44.828  53.986  1.00  0.00     0.079 A 
HETATM    5  N   UNL     1      27.431  43.569  53.425  1.00  0.00    -0.179 N 
HETATM    6  C   UNL     1      26.379  43.700  52.479  1.00  0.00     0.681 A 
HETATM    7  N   UNL     1      25.857  42.680  51.766  1.00  0.00    -0.234 N 
HETATM    8  H   UNL     1      25.060  42.770  51.153  1.00  0.00     0.174 HD
HETATM    9  H   UNL     1      26.262  41.750  51.838  1.00  0.00     0.174 HD
HETATM   10  N   UNL     1      25.949  45.034  52.412  1.00  0.00    -0.180 N 
HETATM   11  C   UNL     1      28.534  45.250  54.954  1.00  0.00     0.032 A 
HETATM   12  C   UNL     1      28.511  46.601  55.314  1.00  0.00     0.002 A 
ENDROOT
BRANCH   5  13
HETATM   13  C   UNL     1      28.002  42.357  53.992  1.00  0.00     0.181 C 
BRANCH  13  14
HETATM   14  C   UNL     1      29.157  41.771  53.153  1.00  0.00     0.161 C 
BRANCH  14  15
HETATM   15  O   UNL     1      29.698  42.828  52.359  1.00  0.00    -0.392 OA
HETATM   16  H   UNL     1      29.050  43.026  51.654  1.00  0.00     0.210 HD
ENDBRANCH  14  15
BRANCH  14  17
HETATM   17  C   UNL     1      28.673  40.654  52.221  1.00  0.00     0.209 C 
BRANCH  17  18
HETATM   18  O   UNL     1      28.352  41.198  50.940  1.00  0.00    -0.347 OA
BRANCH  18  19
HETATM   19  C   UNL     1      28.316  40.282  49.917  1.00  0.00     0.090 A 
HETATM   20  C   UNL     1      27.592  40.383  48.717  1.00  0.00     0.069 A 
HETATM   21 CL   UNL     1      26.555  41.719  48.334  1.00  0.00    -0.081 Cl
HETATM   22  C   UNL     1      27.657  39.355  47.770  1.00  0.00     0.050 A 
HETATM   23  C   UNL     1      28.422  38.219  48.027  1.00  0.00     0.035 A 
HETATM   24 CL   UNL     1      28.501  36.965  46.856  1.00  0.00    -0.084 Cl
HETATM   25  C   UNL     1      29.111  38.092  49.228  1.00  0.00     0.026 A 
HETATM   26  C   UNL     1      29.051  39.118  50.174  1.00  0.00     0.040 A 
ENDBRANCH  18  19
ENDBRANCH  17  18
ENDBRANCH  14  17
ENDBRANCH  13  14
ENDBRANCH   5  13
BRANCH  10  27
HETATM   27  C   UNL     1      24.806  45.603  51.681  1.00  0.00     0.175 C 
BRANCH  27  28
HETATM   28  C   UNL     1      24.982  45.552  50.149  1.00  0.00     0.256 C 
BRANCH  28  29
HETATM   29  N   UNL     1      24.979  46.905  49.467  1.00  0.00    -0.066 N 
HETATM   30  H   UNL     1      25.102  46.708  48.461  1.00  0.00     0.280 HD
HETATM   31  C   UNL     1      23.664  47.683  49.562  1.00  0.00     0.261 C 
HETATM   32  C   UNL     1      23.760  48.967  48.730  1.00  0.00     0.195 C 
HETATM   33  O   UNL     1      24.867  49.761  49.168  1.00  0.00    -0.388 OA
HETATM   34  C   UNL     1      26.116  49.088  48.983  1.00  0.00     0.195 C 
HETATM   35  C   UNL     1      26.164  47.811  49.831  1.00  0.00     0.261 C 
ENDBRANCH  28  29
ENDBRANCH  27  28
ENDBRANCH  10  27
TORSDOF 9
ENDMDL
MODEL 7
REMARK VINA RESULT:      -8.1      1.557      2.210
REMARK  9 active torsions:
REMARK  status: ('A' for Active; 'I' for Inactive)
REMARK    1  A    between atoms: N_5  and  C_6 
REMARK    2  A    between atoms: C_6  and  C_7 
REMARK    3  A    between atoms: C_7  and  O_8 
REMARK    4  A    between atoms: C_7  and  C_9 
REMARK    5  A    between atoms: C_9  and  O_10 
REMARK    6  A    between atoms: O_10  and  C_11 
REMARK    7  A    between atoms: N_23  and  C_24 
REMARK    8  A    between atoms: C_24  and  C_25 
REMARK    9  A    between atoms: C_25  and  N_26 
ROOT
HETATM    1  C   UNL     1      23.275  50.561  47.922  1.00  0.00     0.002 A 
HETATM    2  C   UNL     1      22.260  49.604  47.844  1.00  0.00     0.032 A 
HETATM    3  C   UNL     1      22.541  48.346  48.338  1.00  0.00     0.079 A 
HETATM    4  C   UNL     1      23.793  48.025  48.919  1.00  0.00     0.079 A 
HETATM    5  N   UNL     1      23.753  46.692  49.331  1.00  0.00    -0.179 N 
HETATM    6  C   UNL     1      22.461  46.188  49.021  1.00  0.00     0.681 A 
HETATM    7  N   UNL     1      22.034  44.942  49.315  1.00  0.00    -0.234 N 
HETATM    8  H   UNL     1      21.090  44.618  49.158  1.00  0.00     0.174 HD
HETATM    9  H   UNL     1      22.673  44.269  49.730  1.00  0.00     0.174 HD
HETATM   10  N   UNL     1      21.693  47.176  48.388  1.00  0.00    -0.180 N 
HETATM   11  C   UNL     1      24.792  48.970  48.998  1.00  0.00     0.032 A 
HETATM   12  C   UNL     1      24.524  50.245  48.490  1.00  0.00     0.002 A 
ENDROOT
BRANCH   5  13
HETATM   13  C   UNL     1      24.775  46.115  50.190  1.00  0.00     0.181 C 
BRANCH  13  14
HETATM   14  C   UNL     1      25.827  45.285  49.423  1.00  0.00     0.161 C 
BRANCH  14  15
HETATM   15  O   UNL     1      25.153  44.176  48.824  1.00  0.00    -0.392 OA
HETATM   16  H   UNL     1      24.201  44.269  49.027  1.00  0.00     0.210 HD
ENDBRANCH  14  15
BRANCH  14  17
HETATM   17  C   UNL     1      26.920  44.751  50.355  1.00  0.00     0.209 C 
BRANCH  17  18
HETATM   18  O   UNL     1      26.385  44.554  51.665  1.00  0.00    -0.347 OA
BRANCH  18  19
HETATM   19  C   UNL     1      27.324  44.355  52.648  1.00  0.00     0.090 A 
HETATM   20  C   UNL     1      27.363  44.961  53.915  1.00  0.00     0.069 A 
HETATM   21 CL   UNL     1      26.207  46.137  54.450  1.00  0.00    -0.081 Cl
HETATM   22  C   UNL     1      28.396  44.653  54.808  1.00  0.00     0.050 A 
HETATM   23  C   UNL     1      29.398  43.762  54.432  1.00  0.00     0.035 A 
HETATM   24 CL   UNL     1      30.659  43.385  55.537  1.00  0.00    -0.084 Cl
HETATM   25  C   UNL     1      29.390  43.186  53.166  1.00  0.00     0.026 A 
HETATM   26  C   UNL     1      28.359  43.489  52.273  1.00  0.00     0.040 A 
ENDBRANCH  18  19
ENDBRANCH  17  18
ENDBRANCH  14  17
ENDBRANCH  13  14
ENDBRANCH   5  13
BRANCH  10  27
HETATM   27  C   UNL     1      20.270  47.147  48.017  1.00  0.00     0.175 C 
BRANCH  27  28
HETATM   28  C   UNL     1      19.331  47.467  49.200  1.00  0.00     0.256 C 
BRANCH  28  29
HETATM   29  N   UNL     1      18.596  48.787  49.085  1.00  0.00    -0.066 N 
HETATM   30  H   UNL     1      17.612  48.577  49.314  1.00  0.00     0.280 HD
HETATM   31  C   UNL     1      19.018  49.860  50.092  1.00  0.00     0.261 C 
HETATM   32  C   UNL     1      18.116  51.092  49.946  1.00  0.00     0.195 C 
HETATM   33  O   UNL     1      18.167  51.588  48.605  1.00  0.00    -0.388 OA
HETATM   34  C   UNL     1      17.672  50.633  47.661  1.00  0.00     0.195 C 
HETATM   35  C   UNL     1      18.547  49.374  47.668  1.00  0.00     0.261 C 
ENDBRANCH  28  29
ENDBRANCH  27  28
ENDBRANCH  10  27
TORSDOF 9
ENDMDL
MODEL 8
REMARK VINA RESULT:      -8.0      3.909      9.368
REMARK  9 active torsions:
REMARK  status: ('A' for Active; 'I' for Inactive)
REMARK    1  A    between atoms: N_5  and  C_6 
REMARK    2  A    between atoms: C_6  and  C_7 
REMARK    3  A    between atoms: C_7  and  O_8 
REMARK    4  A    between atoms: C_7  and  C_9 
REMARK    5  A    between atoms: C_9  and  O_10 
REMARK    6  A    between atoms: O_10  and  C_11 
REMARK    7  A    between atoms: N_23  and  C_24 
REMARK    8  A    between atoms: C_24  and  C_25 
REMARK    9  A    between atoms: C_25  and  N_26 
ROOT
HETATM    1  C   UNL     1      27.780  49.232  49.158  1.00  0.00     0.002 A 
HETATM    2  C   UNL     1      27.243  48.016  49.591  1.00  0.00     0.032 A 
HETATM    3  C   UNL     1      25.884  47.836  49.431  1.00  0.00     0.079 A 
HETATM    4  C   UNL     1      25.055  48.822  48.840  1.00  0.00     0.079 A 
HETATM    5  N   UNL     1      23.749  48.332  48.810  1.00  0.00    -0.179 N 
HETATM    6  C   UNL     1      23.769  47.026  49.370  1.00  0.00     0.681 A 
HETATM    7  N   UNL     1      22.694  46.217  49.467  1.00  0.00    -0.234 N 
HETATM    8  H   UNL     1      22.734  45.263  49.797  1.00  0.00     0.174 HD
HETATM    9  H   UNL     1      21.776  46.555  49.190  1.00  0.00     0.174 HD
HETATM   10  N   UNL     1      25.068  46.695  49.783  1.00  0.00    -0.180 N 
HETATM   11  C   UNL     1      25.587  50.018  48.411  1.00  0.00     0.032 A 
HETATM   12  C   UNL     1      26.961  50.219  48.578  1.00  0.00     0.002 A 
ENDROOT
BRANCH   5  13
HETATM   13  C   UNL     1      22.694  48.980  48.045  1.00  0.00     0.181 C 
BRANCH  13  14
HETATM   14  C   UNL     1      21.685  49.753  48.920  1.00  0.00     0.161 C 
BRANCH  14  15
HETATM   15  O   UNL     1      22.315  50.025  50.173  1.00  0.00    -0.392 OA
HETATM   16  H   UNL     1      22.349  49.185  50.672  1.00  0.00     0.210 HD
ENDBRANCH  14  15
BRANCH  14  17
HETATM   17  C   UNL     1      20.413  48.937  49.176  1.00  0.00     0.209 C 
BRANCH  17  18
HETATM   18  O   UNL     1      19.633  49.563  50.196  1.00  0.00    -0.347 OA
BRANCH  18  19
HETATM   19  C   UNL     1      18.552  50.277  49.740  1.00  0.00     0.090 A 
HETATM   20  C   UNL     1      17.419  49.768  49.082  1.00  0.00     0.069 A 
HETATM   21 CL   UNL     1      17.212  48.092  48.690  1.00  0.00    -0.081 Cl
HETATM   22  C   UNL     1      16.398  50.633  48.675  1.00  0.00     0.050 A 
HETATM   23  C   UNL     1      16.514  52.002  48.900  1.00  0.00     0.035 A 
HETATM   24 CL   UNL     1      15.252  53.056  48.401  1.00  0.00    -0.084 Cl
HETATM   25  C   UNL     1      17.648  52.521  49.515  1.00  0.00     0.026 A 
HETATM   26  C   UNL     1      18.669  51.660  49.926  1.00  0.00     0.040 A 
ENDBRANCH  18  19
ENDBRANCH  17  18
ENDBRANCH  14  17
ENDBRANCH  13  14
ENDBRANCH   5  13
BRANCH  10  27
HETATM   27  C   UNL     1      25.582  45.411  50.284  1.00  0.00     0.175 C 
BRANCH  27  28
HETATM   28  C   UNL     1      25.283  45.184  51.781  1.00  0.00     0.256 C 
BRANCH  28  29
HETATM   29  N   UNL     1      26.427  45.527  52.714  1.00  0.00    -0.066 N 
HETATM   30  H   UNL     1      27.144  45.971  52.120  1.00  0.00     0.280 HD
HETATM   31  C   UNL     1      26.103  46.565  53.791  1.00  0.00     0.261 C 
HETATM   32  C   UNL     1      27.373  46.907  54.579  1.00  0.00     0.195 C 
HETATM   33  O   UNL     1      27.937  45.723  55.150  1.00  0.00    -0.388 OA
HETATM   34  C   UNL     1      28.345  44.786  54.149  1.00  0.00     0.195 C 
HETATM   35  C   UNL     1      27.134  44.315  53.335  1.00  0.00     0.261 C 
ENDBRANCH  28  29
ENDBRANCH  27  28
ENDBRANCH  10  27
TORSDOF 9
ENDMDL
MODEL 9
REMARK VINA RESULT:      -7.9      3.289      4.760
REMARK  9 active torsions:
REMARK  status: ('A' for Active; 'I' for Inactive)
REMARK    1  A    between atoms: N_5  and  C_6 
REMARK    2  A    between atoms: C_6  and  C_7 
REMARK    3  A    between atoms: C_7  and  O_8 
REMARK    4  A    between atoms: C_7  and  C_9 
REMARK    5  A    between atoms: C_9  and  O_10 
REMARK    6  A    between atoms: O_10  and  C_11 
REMARK    7  A    between atoms: N_23  and  C_24 
REMARK    8  A    between atoms: C_24  and  C_25 
REMARK    9  A    between atoms: C_25  and  N_26 
ROOT
HETATM    1  C   UNL     1      25.664  46.100  51.439  1.00  0.00     0.002 A 
HETATM    2  C   UNL     1      24.619  45.333  50.917  1.00  0.00     0.032 A 
HETATM    3  C   UNL     1      24.952  44.120  50.347  1.00  0.00     0.079 A 
HETATM    4  C   UNL     1      26.288  43.649  50.300  1.00  0.00     0.079 A 
HETATM    5  N   UNL     1      26.287  42.398  49.682  1.00  0.00    -0.179 N 
HETATM    6  C   UNL     1      24.940  42.082  49.359  1.00  0.00     0.681 A 
HETATM    7  N   UNL     1      24.539  40.926  48.790  1.00  0.00    -0.234 N 
HETATM    8  H   UNL     1      23.572  40.680  48.634  1.00  0.00     0.174 HD
HETATM    9  H   UNL     1      25.227  40.236  48.500  1.00  0.00     0.174 HD
HETATM   10  N   UNL     1      24.090  43.132  49.738  1.00  0.00    -0.180 N 
HETATM   11  C   UNL     1      27.316  44.405  50.818  1.00  0.00     0.032 A 
HETATM   12  C   UNL     1      26.994  45.642  51.387  1.00  0.00     0.002 A 
ENDROOT
BRANCH   5  13
HETATM   13  C   UNL     1      27.450  41.524  49.697  1.00  0.00     0.181 C 
BRANCH  13  14
HETATM   14  C   UNL     1      27.516  40.609  50.939  1.00  0.00     0.161 C 
BRANCH  14  15
HETATM   15  O   UNL     1      26.190  40.481  51.455  1.00  0.00    -0.392 OA
HETATM   16  H   UNL     1      25.744  39.776  50.945  1.00  0.00     0.210 HD
ENDBRANCH  14  15
BRANCH  14  17
HETATM   17  C   UNL     1      28.415  41.197  52.032  1.00  0.00     0.209 C 
BRANCH  17  18
HETATM   18  O   UNL     1      27.619  41.608  53.144  1.00  0.00    -0.347 OA
BRANCH  18  19
HETATM   19  C   UNL     1      28.147  42.639  53.882  1.00  0.00     0.090 A 
HETATM   20  C   UNL     1      27.445  43.710  54.462  1.00  0.00     0.069 A 
HETATM   21 CL   UNL     1      25.733  43.933  54.299  1.00  0.00    -0.081 Cl
HETATM   22  C   UNL     1      28.134  44.689  55.186  1.00  0.00     0.050 A 
HETATM   23  C   UNL     1      29.519  44.615  55.314  1.00  0.00     0.035 A 
HETATM   24 CL   UNL     1      30.355  45.819  56.210  1.00  0.00    -0.084 Cl
HETATM   25  C   UNL     1      30.227  43.581  54.712  1.00  0.00     0.026 A 
HETATM   26  C   UNL     1      29.543  42.600  53.991  1.00  0.00     0.040 A 
ENDBRANCH  18  19
ENDBRANCH  17  18
ENDBRANCH  14  17
ENDBRANCH  13  14
ENDBRANCH   5  13
BRANCH  10  27
HETATM   27  C   UNL     1      22.621  43.185  49.723  1.00  0.00     0.175 C 
BRANCH  27  28
HETATM   28  C   UNL     1      22.056  43.946  48.505  1.00  0.00     0.256 C 
BRANCH  28  29
HETATM   29  N   UNL     1      21.551  45.342  48.810  1.00  0.00    -0.066 N 
HETATM   30  H   UNL     1      21.614  45.442  49.836  1.00  0.00     0.280 HD
HETATM   31  C   UNL     1      22.403  46.483  48.247  1.00  0.00     0.261 C 
HETATM   32  C   UNL     1      21.851  47.829  48.731  1.00  0.00     0.195 C 
HETATM   33  O   UNL     1      20.479  47.969  48.352  1.00  0.00    -0.388 OA
HETATM   34  C   UNL     1      19.650  46.972  48.959  1.00  0.00     0.195 C 
HETATM   35  C   UNL     1      20.068  45.574  48.489  1.00  0.00     0.261 C 
ENDBRANCH  28  29
ENDBRANCH  27  28
ENDBRANCH  10  27
TORSDOF 9
ENDMDL
MODEL 10
REMARK VINA RESULT:      -7.8      4.177      9.458
REMARK  9 active torsions:
REMARK  status: ('A' for Active; 'I' for Inactive)
REMARK    1  A    between atoms: N_5  and  C_6 
REMARK    2  A    between atoms: C_6  and  C_7 
REMARK    3  A    between atoms: C_7  and  O_8 
REMARK    4  A    between atoms: C_7  and  C_9 
REMARK    5  A    between atoms: C_9  and  O_10 
REMARK    6  A    between atoms: O_10  and  C_11 
REMARK    7  A    between atoms: N_23  and  C_24 
REMARK    8  A    between atoms: C_24  and  C_25 
REMARK    9  A    between atoms: C_25  and  N_26 
ROOT
HETATM    1  C   UNL     1      29.286  45.579  55.430  1.00  0.00     0.002 A 
HETATM    2  C   UNL     1      28.896  44.386  54.816  1.00  0.00     0.032 A 
HETATM    3  C   UNL     1      27.758  44.424  54.034  1.00  0.00     0.079 A 
HETATM    4  C   UNL     1      27.016  45.615  53.838  1.00  0.00     0.079 A 
HETATM    5  N   UNL     1      25.944  45.326  52.992  1.00  0.00    -0.179 N 
HETATM    6  C   UNL     1      26.032  43.950  52.647  1.00  0.00     0.681 A 
HETATM    7  N   UNL     1      25.190  43.316  51.804  1.00  0.00    -0.234 N 
HETATM    8  H   UNL     1      25.305  42.358  51.506  1.00  0.00     0.174 HD
HETATM    9  H   UNL     1      24.387  43.809  51.420  1.00  0.00     0.174 HD
HETATM   10  N   UNL     1      27.129  43.357  53.288  1.00  0.00    -0.180 N 
HETATM   11  C   UNL     1      27.404  46.790  54.442  1.00  0.00     0.032 A 
HETATM   12  C   UNL     1      28.548  46.763  55.247  1.00  0.00     0.002 A 
ENDROOT
BRANCH   5  13
HETATM   13  C   UNL     1      25.132  46.369  52.384  1.00  0.00     0.181 C 
BRANCH  13  14
HETATM   14  C   UNL     1      25.511  46.668  50.918  1.00  0.00     0.161 C 
BRANCH  14  15
HETATM   15  O   UNL     1      26.231  47.902  50.899  1.00  0.00    -0.392 OA
HETATM   16  H   UNL     1      25.775  48.497  50.270  1.00  0.00     0.210 HD
ENDBRANCH  14  15
BRANCH  14  17
HETATM   17  C   UNL     1      24.271  46.808  50.028  1.00  0.00     0.209 C 
BRANCH  17  18
HETATM   18  O   UNL     1      24.476  47.849  49.072  1.00  0.00    -0.347 OA
BRANCH  18  19
HETATM   19  C   UNL     1      23.407  48.693  48.898  1.00  0.00     0.090 A 
HETATM   20  C   UNL     1      22.088  48.332  48.571  1.00  0.00     0.069 A 
HETATM   21 CL   UNL     1      21.587  46.697  48.285  1.00  0.00    -0.081 Cl
HETATM   22  C   UNL     1      21.107  49.319  48.426  1.00  0.00     0.050 A 
HETATM   23  C   UNL     1      21.442  50.662  48.581  1.00  0.00     0.035 A 
HETATM   24 CL   UNL     1      20.229  51.866  48.406  1.00  0.00    -0.084 Cl
HETATM   25  C   UNL     1      22.751  51.033  48.867  1.00  0.00     0.026 A 
HETATM   26  C   UNL     1      23.733  50.050  49.016  1.00  0.00     0.040 A 
ENDBRANCH  18  19
ENDBRANCH  17  18
ENDBRANCH  14  17
ENDBRANCH  13  14
ENDBRANCH   5  13
BRANCH  10  27
HETATM   27  C   UNL     1      27.681  42.004  53.119  1.00  0.00     0.175 C 
BRANCH  27  28
HETATM   28  C   UNL     1      28.460  41.830  51.798  1.00  0.00     0.256 C 
BRANCH  28  29
HETATM   29  N   UNL     1      27.742  41.013  50.743  1.00  0.00    -0.066 N 
HETATM   30  H   UNL     1      26.853  40.720  51.177  1.00  0.00     0.280 HD
HETATM   31  C   UNL     1      27.335  41.784  49.484  1.00  0.00     0.261 C 
HETATM   32  C   UNL     1      26.515  40.874  48.562  1.00  0.00     0.195 C 
HETATM   33  O   UNL     1      27.260  39.698  48.234  1.00  0.00    -0.388 OA
HETATM   34  C   UNL     1      27.555  38.909  49.391  1.00  0.00     0.195 C 
HETATM   35  C   UNL     1      28.439  39.699  50.364  1.00  0.00     0.261 C 
ENDBRANCH  28  29
ENDBRANCH  27  28
ENDBRANCH  10  27
TORSDOF 9
ENDMDL
