MODEL 1
REMARK VINA RESULT:     -10.6      0.000      0.000
REMARK  8 active torsions:
REMARK  status: ('A' for Active; 'I' for Inactive)
REMARK    1  A    between atoms: C_2  and  O_3 
REMARK    2  A    between atoms: O_3  and  C_4 
REMARK    3  A    between atoms: C_4  and  C_5 
REMARK    4  A    between atoms: C_6  and  N_7 
REMARK       I    between atoms: N_7  and  C_8 
REMARK    5  A    between atoms: C_8  and  C_9 
REMARK    6  A    between atoms: C_9  and  S_10 
REMARK    7  A    between atoms: S_10  and  C_11 
REMARK    8  A    between atoms: N_18  and  C_19 
ROOT
HETATM    1  C   UNL     1      25.252  46.658  52.913  1.00  0.00     0.185 C 
ENDROOT
BRANCH   1   2
HETATM    2  C   UNL     1      25.992  45.783  53.912  1.00  0.00     0.232 C 
HETATM    3  N   UNL     1      27.368  45.957  53.862  1.00  0.00    -0.320 N 
HETATM    4  H   UNL     1      27.759  46.512  53.101  1.00  0.00     0.169 HD
HETATM    5  O   UNL     1      25.367  45.052  54.675  1.00  0.00    -0.272 OA
BRANCH   3   6
HETATM    6  C   UNL     1      28.310  45.465  54.759  1.00  0.00     0.094 A 
HETATM    7  C   UNL     1      29.086  44.319  54.594  1.00  0.00     0.080 A 
HETATM    8  C   UNL     1      29.976  44.133  55.728  1.00  0.00    -0.026 A 
HETATM    9  C   UNL     1      29.859  45.170  56.634  1.00  0.00    -0.008 A 
HETATM   10  C   UNL     1      30.987  43.035  55.934  1.00  0.00     0.041 C 
HETATM   11  S   UNL     1      28.662  46.284  56.202  1.00  0.00    -0.075 SA
HETATM   12  C   UNL     1      30.668  45.334  57.883  1.00  0.00     0.047 C 
HETATM   13  C   UNL     1      31.935  44.474  57.810  1.00  0.00     0.005 C 
HETATM   14  C   UNL     1      31.607  43.051  57.340  1.00  0.00     0.005 C 
BRANCH   7  15
HETATM   15  C   UNL     1      28.981  43.489  53.388  1.00  0.00     0.296 C 
HETATM   16  O   UNL     1      29.890  43.397  52.569  1.00  0.00    -0.259 OA
BRANCH  15  17
HETATM   17  O   UNL     1      27.792  42.834  53.289  1.00  0.00    -0.318 OA
BRANCH  17  18
HETATM   18  C   UNL     1      27.229  42.754  51.973  1.00  0.00     0.174 C 
HETATM   19  C   UNL     1      27.307  41.308  51.523  1.00  0.00     0.034 C 
ENDBRANCH  17  18
ENDBRANCH  15  17
ENDBRANCH   7  15
ENDBRANCH   3   6
ENDBRANCH   1   2
BRANCH   1  20
HETATM   20  S   UNL     1      25.152  45.841  51.293  1.00  0.00    -0.083 SA
BRANCH  20  21
HETATM   21  C   UNL     1      25.262  47.243  50.285  1.00  0.00     0.171 A 
HETATM   22  N   UNL     1      24.204  47.840  49.830  1.00  0.00    -0.204 NA
HETATM   23  C   UNL     1      24.495  48.900  49.024  1.00  0.00     0.171 A 
HETATM   24  C   UNL     1      25.756  49.306  48.649  1.00  0.00     0.099 A 
HETATM   25  N   UNL     1      23.607  49.768  48.392  1.00  0.00    -0.215 N 
HETATM   26  C   UNL     1      26.903  48.631  49.182  1.00  0.00     0.263 A 
HETATM   27  C   UNL     1      25.572  50.344  47.740  1.00  0.00     0.160 A 
HETATM   28  O   UNL     1      28.061  48.919  48.909  1.00  0.00    -0.267 OA
HETATM   29  N   UNL     1      26.562  47.601  50.029  1.00  0.00    -0.301 N 
HETATM   30  H   UNL     1      27.313  47.069  50.442  1.00  0.00     0.171 HD
HETATM   31  N   UNL     1      24.279  50.606  47.537  1.00  0.00    -0.177 NA
BRANCH  25  32
HETATM   32  C   UNL     1      22.196  49.895  48.546  1.00  0.00     0.060 A 
HETATM   33  C   UNL     1      21.357  48.771  48.605  1.00  0.00     0.034 A 
HETATM   34  C   UNL     1      19.982  48.933  48.799  1.00  0.00     0.044 A 
HETATM   35  C   UNL     1      19.447  50.209  48.924  1.00  0.00     0.116 A 
HETATM   36  F   UNL     1      18.127  50.358  49.096  1.00  0.00    -0.206 F 
HETATM   37  C   UNL     1      20.260  51.333  48.864  1.00  0.00     0.044 A 
HETATM   38  C   UNL     1      21.636  51.179  48.684  1.00  0.00     0.034 A 
ENDBRANCH  25  32
ENDBRANCH  20  21
ENDBRANCH   1  20
TORSDOF 8
ENDMDL
MODEL 2
REMARK VINA RESULT:     -10.3      3.186      5.100
REMARK  8 active torsions:
REMARK  status: ('A' for Active; 'I' for Inactive)
REMARK    1  A    between atoms: C_2  and  O_3 
REMARK    2  A    between atoms: O_3  and  C_4 
REMARK    3  A    between atoms: C_4  and  C_5 
REMARK    4  A    between atoms: C_6  and  N_7 
REMARK       I    between atoms: N_7  and  C_8 
REMARK    5  A    between atoms: C_8  and  C_9 
REMARK    6  A    between atoms: C_9  and  S_10 
REMARK    7  A    between atoms: S_10  and  C_11 
REMARK    8  A    between atoms: N_18  and  C_19 
ROOT
HETATM    1  C   UNL     1      24.703  43.128  49.023  1.00  0.00     0.185 C 
ENDROOT
BRANCH   1   2
HETATM    2  C   UNL     1      25.853  43.720  49.823  1.00  0.00     0.232 C 
HETATM    3  N   UNL     1      25.889  43.259  51.131  1.00  0.00    -0.320 N 
HETATM    4  H   UNL     1      25.101  42.710  51.475  1.00  0.00     0.169 HD
HETATM    5  O   UNL     1      26.646  44.490  49.288  1.00  0.00    -0.272 OA
BRANCH   3   6
HETATM    6  C   UNL     1      26.908  43.446  52.060  1.00  0.00     0.094 A 
HETATM    7  C   UNL     1      26.831  44.203  53.227  1.00  0.00     0.080 A 
HETATM    8  C   UNL     1      28.085  44.147  53.960  1.00  0.00    -0.026 A 
HETATM    9  C   UNL     1      28.995  43.313  53.337  1.00  0.00    -0.008 A 
HETATM   10  C   UNL     1      28.413  44.805  55.275  1.00  0.00     0.041 C 
HETATM   11  S   UNL     1      28.414  42.688  51.877  1.00  0.00    -0.075 SA
HETATM   12  C   UNL     1      30.360  42.974  53.846  1.00  0.00     0.047 C 
HETATM   13  C   UNL     1      30.461  43.294  55.343  1.00  0.00     0.005 C 
HETATM   14  C   UNL     1      29.900  44.687  55.647  1.00  0.00     0.005 C 
BRANCH   7  15
HETATM   15  C   UNL     1      25.597  44.900  53.609  1.00  0.00     0.296 C 
HETATM   16  O   UNL     1      24.860  44.496  54.504  1.00  0.00    -0.259 OA
BRANCH  15  17
HETATM   17  O   UNL     1      25.374  46.031  52.885  1.00  0.00    -0.318 OA
BRANCH  17  18
HETATM   18  C   UNL     1      26.308  47.099  53.089  1.00  0.00     0.174 C 
HETATM   19  C   UNL     1      26.052  47.683  54.465  1.00  0.00     0.034 C 
ENDBRANCH  17  18
ENDBRANCH  15  17
ENDBRANCH   7  15
ENDBRANCH   3   6
ENDBRANCH   1   2
BRANCH   1  20
HETATM   20  S   UNL     1      23.146  43.242  49.953  1.00  0.00    -0.083 SA
BRANCH  20  21
HETATM   21  C   UNL     1      22.598  44.771  49.359  1.00  0.00     0.171 A 
HETATM   22  N   UNL     1      23.376  45.808  49.327  1.00  0.00    -0.204 NA
HETATM   23  C   UNL     1      22.753  46.929  48.865  1.00  0.00     0.171 A 
HETATM   24  C   UNL     1      21.426  47.026  48.510  1.00  0.00     0.099 A 
HETATM   25  N   UNL     1      23.295  48.199  48.680  1.00  0.00    -0.215 N 
HETATM   26  C   UNL     1      20.599  45.856  48.544  1.00  0.00     0.263 A 
HETATM   27  C   UNL     1      21.205  48.367  48.211  1.00  0.00     0.160 A 
HETATM   28  O   UNL     1      19.411  45.842  48.247  1.00  0.00    -0.267 OA
HETATM   29  N   UNL     1      21.283  44.739  48.970  1.00  0.00    -0.301 N 
HETATM   30  H   UNL     1      20.769  43.874  49.029  1.00  0.00     0.171 HD
HETATM   31  N   UNL     1      22.312  49.100  48.354  1.00  0.00    -0.177 NA
BRANCH  25  32
HETATM   32  C   UNL     1      24.653  48.628  48.755  1.00  0.00     0.060 A 
HETATM   33  C   UNL     1      25.105  49.764  48.068  1.00  0.00     0.034 A 
HETATM   34  C   UNL     1      26.434  50.179  48.198  1.00  0.00     0.044 A 
HETATM   35  C   UNL     1      27.308  49.457  49.002  1.00  0.00     0.116 A 
HETATM   36  F   UNL     1      28.582  49.852  49.113  1.00  0.00    -0.206 F 
HETATM   37  C   UNL     1      26.879  48.328  49.688  1.00  0.00     0.044 A 
HETATM   38  C   UNL     1      25.550  47.916  49.572  1.00  0.00     0.034 A 
ENDBRANCH  25  32
ENDBRANCH  20  21
ENDBRANCH   1  20
TORSDOF 8
ENDMDL
MODEL 3
REMARK VINA RESULT:     -10.0      3.576     10.625
REMARK  8 active torsions:
REMARK  status: ('A' for Active; 'I' for Inactive)
REMARK    1  A    between atoms: C_2  and  O_3 
REMARK    2  A    between atoms: O_3  and  C_4 
REMARK    3  A    between atoms: C_4  and  C_5 
REMARK    4  A    between atoms: C_6  and  N_7 
REMARK       I    between atoms: N_7  and  C_8 
REMARK    5  A    between atoms: C_8  and  C_9 
REMARK    6  A    between atoms: C_9  and  S_10 
REMARK    7  A    between atoms: S_10  and  C_11 
REMARK    8  A    between atoms: N_18  and  C_19 
ROOT
HETATM    1  C   UNL     1      25.049  45.210  49.345  1.00  0.00     0.185 C 
ENDROOT
BRANCH   1   2
HETATM    2  C   UNL     1      24.243  46.443  49.726  1.00  0.00     0.232 C 
HETATM    3  N   UNL     1      23.427  46.889  48.697  1.00  0.00    -0.320 N 
HETATM    4  H   UNL     1      23.537  46.470  47.773  1.00  0.00     0.169 HD
HETATM    5  O   UNL     1      24.333  46.915  50.856  1.00  0.00    -0.272 OA
BRANCH   3   6
HETATM    6  C   UNL     1      22.432  47.858  48.774  1.00  0.00     0.094 A 
HETATM    7  C   UNL     1      22.587  49.220  48.526  1.00  0.00     0.080 A 
HETATM    8  C   UNL     1      21.322  49.919  48.682  1.00  0.00    -0.026 A 
HETATM    9  C   UNL     1      20.295  49.040  48.973  1.00  0.00    -0.008 A 
HETATM   10  C   UNL     1      21.051  51.388  48.486  1.00  0.00     0.041 C 
HETATM   11  S   UNL     1      20.830  47.445  49.150  1.00  0.00    -0.075 SA
HETATM   12  C   UNL     1      18.853  49.405  49.137  1.00  0.00     0.047 C 
HETATM   13  C   UNL     1      18.579  50.776  48.506  1.00  0.00     0.005 C 
HETATM   14  C   UNL     1      19.638  51.799  48.932  1.00  0.00     0.005 C 
BRANCH   7  15
HETATM   15  C   UNL     1      23.882  49.785  48.129  1.00  0.00     0.296 C 
HETATM   16  O   UNL     1      24.029  50.447  47.106  1.00  0.00    -0.259 OA
BRANCH  15  17
HETATM   17  O   UNL     1      24.880  49.511  49.013  1.00  0.00    -0.318 OA
BRANCH  17  18
HETATM   18  C   UNL     1      26.215  49.694  48.525  1.00  0.00     0.174 C 
HETATM   19  C   UNL     1      27.149  48.897  49.416  1.00  0.00     0.034 C 
ENDBRANCH  17  18
ENDBRANCH  15  17
ENDBRANCH   7  15
ENDBRANCH   3   6
ENDBRANCH   1   2
BRANCH   1  20
HETATM   20  S   UNL     1      26.819  45.475  49.660  1.00  0.00    -0.083 SA
BRANCH  20  21
HETATM   21  C   UNL     1      27.110  44.110  50.682  1.00  0.00     0.171 A 
HETATM   22  N   UNL     1      27.805  44.211  51.772  1.00  0.00    -0.204 NA
HETATM   23  C   UNL     1      27.959  43.021  52.420  1.00  0.00     0.171 A 
HETATM   24  C   UNL     1      27.497  41.800  51.982  1.00  0.00     0.099 A 
HETATM   25  N   UNL     1      28.622  42.775  53.620  1.00  0.00    -0.215 N 
HETATM   26  C   UNL     1      26.720  41.727  50.780  1.00  0.00     0.263 A 
HETATM   27  C   UNL     1      27.976  40.860  52.891  1.00  0.00     0.160 A 
HETATM   28  O   UNL     1      26.267  40.690  50.313  1.00  0.00    -0.267 OA
HETATM   29  N   UNL     1      26.550  42.959  50.188  1.00  0.00    -0.301 N 
HETATM   30  H   UNL     1      26.020  42.994  49.331  1.00  0.00     0.171 HD
HETATM   31  N   UNL     1      28.698  41.426  53.861  1.00  0.00    -0.177 NA
BRANCH  25  32
HETATM   32  C   UNL     1      29.160  43.696  54.566  1.00  0.00     0.060 A 
HETATM   33  C   UNL     1      28.446  44.834  54.975  1.00  0.00     0.034 A 
HETATM   34  C   UNL     1      28.988  45.693  55.936  1.00  0.00     0.044 A 
HETATM   35  C   UNL     1      30.238  45.422  56.478  1.00  0.00     0.116 A 
HETATM   36  F   UNL     1      30.757  46.255  57.389  1.00  0.00    -0.206 F 
HETATM   37  C   UNL     1      30.961  44.304  56.084  1.00  0.00     0.044 A 
HETATM   38  C   UNL     1      30.421  43.435  55.134  1.00  0.00     0.034 A 
ENDBRANCH  25  32
ENDBRANCH  20  21
ENDBRANCH   1  20
TORSDOF 8
ENDMDL
MODEL 4
REMARK VINA RESULT:      -9.9      2.250      4.718
REMARK  8 active torsions:
REMARK  status: ('A' for Active; 'I' for Inactive)
REMARK    1  A    between atoms: C_2  and  O_3 
REMARK    2  A    between atoms: O_3  and  C_4 
REMARK    3  A    between atoms: C_4  and  C_5 
REMARK    4  A    between atoms: C_6  and  N_7 
REMARK       I    between atoms: N_7  and  C_8 
REMARK    5  A    between atoms: C_8  and  C_9 
REMARK    6  A    between atoms: C_9  and  S_10 
REMARK    7  A    between atoms: S_10  and  C_11 
REMARK    8  A    between atoms: N_18  and  C_19 
ROOT
HETATM    1  C   UNL     1      24.890  44.892  51.023  1.00  0.00     0.185 C 
ENDROOT
BRANCH   1   2
HETATM    2  C   UNL     1      26.035  44.077  50.441  1.00  0.00     0.232 C 
HETATM    3  N   UNL     1      26.099  42.793  50.963  1.00  0.00    -0.320 N 
HETATM    4  H   UNL     1      25.503  42.562  51.758  1.00  0.00     0.169 HD
HETATM    5  O   UNL     1      26.761  44.560  49.577  1.00  0.00    -0.272 OA
BRANCH   3   6
HETATM    6  C   UNL     1      26.891  41.742  50.514  1.00  0.00     0.094 A 
HETATM    7  C   UNL     1      27.841  41.047  51.260  1.00  0.00     0.080 A 
HETATM    8  C   UNL     1      28.455  39.998  50.462  1.00  0.00    -0.026 A 
HETATM    9  C   UNL     1      27.892  39.930  49.202  1.00  0.00    -0.008 A 
HETATM   10  C   UNL     1      29.508  39.010  50.894  1.00  0.00     0.041 C 
HETATM   11  S   UNL     1      26.735  41.135  48.937  1.00  0.00    -0.075 SA
HETATM   12  C   UNL     1      28.237  38.930  48.143  1.00  0.00     0.047 C 
HETATM   13  C   UNL     1      28.951  37.725  48.767  1.00  0.00     0.005 C 
HETATM   14  C   UNL     1      30.059  38.178  49.725  1.00  0.00     0.005 C 
BRANCH   7  15
HETATM   15  C   UNL     1      28.098  41.372  52.668  1.00  0.00     0.296 C 
HETATM   16  O   UNL     1      28.007  40.539  53.565  1.00  0.00    -0.259 OA
BRANCH  15  17
HETATM   17  O   UNL     1      28.456  42.671  52.862  1.00  0.00    -0.318 OA
BRANCH  17  18
HETATM   18  C   UNL     1      29.863  42.943  52.834  1.00  0.00     0.174 C 
HETATM   19  C   UNL     1      30.332  43.110  54.266  1.00  0.00     0.034 C 
ENDBRANCH  17  18
ENDBRANCH  15  17
ENDBRANCH   7  15
ENDBRANCH   3   6
ENDBRANCH   1   2
BRANCH   1  20
HETATM   20  S   UNL     1      25.524  46.298  51.983  1.00  0.00    -0.083 SA
BRANCH  20  21
HETATM   21  C   UNL     1      25.485  47.501  50.741  1.00  0.00     0.171 A 
HETATM   22  N   UNL     1      24.366  47.971  50.283  1.00  0.00    -0.204 NA
HETATM   23  C   UNL     1      24.540  48.881  49.281  1.00  0.00     0.171 A 
HETATM   24  C   UNL     1      25.745  49.256  48.732  1.00  0.00     0.099 A 
HETATM   25  N   UNL     1      23.563  49.592  48.588  1.00  0.00    -0.215 N 
HETATM   26  C   UNL     1      26.963  48.726  49.273  1.00  0.00     0.263 A 
HETATM   27  C   UNL     1      25.438  50.109  47.676  1.00  0.00     0.160 A 
HETATM   28  O   UNL     1      28.080  49.000  48.854  1.00  0.00    -0.267 OA
HETATM   29  N   UNL     1      26.741  47.852  50.313  1.00  0.00    -0.301 N 
HETATM   30  H   UNL     1      27.547  47.428  50.746  1.00  0.00     0.171 HD
HETATM   31  N   UNL     1      24.122  50.286  47.544  1.00  0.00    -0.177 NA
BRANCH  25  32
HETATM   32  C   UNL     1      22.163  49.696  48.840  1.00  0.00     0.060 A 
HETATM   33  C   UNL     1      21.274  48.665  48.499  1.00  0.00     0.034 A 
HETATM   34  C   UNL     1      19.914  48.784  48.799  1.00  0.00     0.044 A 
HETATM   35  C   UNL     1      19.444  49.931  49.428  1.00  0.00     0.116 A 
HETATM   36  F   UNL     1      18.138  50.045  49.702  1.00  0.00    -0.206 F 
HETATM   37  C   UNL     1      20.307  50.964  49.770  1.00  0.00     0.044 A 
HETATM   38  C   UNL     1      21.669  50.845  49.484  1.00  0.00     0.034 A 
ENDBRANCH  25  32
ENDBRANCH  20  21
ENDBRANCH   1  20
TORSDOF 8
ENDMDL
MODEL 5
REMARK VINA RESULT:      -9.7      3.808      9.852
REMARK  8 active torsions:
REMARK  status: ('A' for Active; 'I' for Inactive)
REMARK    1  A    between atoms: C_2  and  O_3 
REMARK    2  A    between atoms: O_3  and  C_4 
REMARK    3  A    between atoms: C_4  and  C_5 
REMARK    4  A    between atoms: C_6  and  N_7 
REMARK       I    between atoms: N_7  and  C_8 
REMARK    5  A    between atoms: C_8  and  C_9 
REMARK    6  A    between atoms: C_9  and  S_10 
REMARK    7  A    between atoms: S_10  and  C_11 
REMARK    8  A    between atoms: N_18  and  C_19 
ROOT
HETATM    1  C   UNL     1      23.457  44.514  48.289  1.00  0.00     0.185 C 
ENDROOT
BRANCH   1   2
HETATM    2  C   UNL     1      22.549  45.645  47.831  1.00  0.00     0.232 C 
HETATM    3  N   UNL     1      22.030  46.378  48.888  1.00  0.00    -0.320 N 
HETATM    4  H   UNL     1      22.169  46.028  49.836  1.00  0.00     0.169 HD
HETATM    5  O   UNL     1      22.372  45.849  46.633  1.00  0.00    -0.272 OA
BRANCH   3   6
HETATM    6  C   UNL     1      21.333  47.579  48.815  1.00  0.00     0.094 A 
HETATM    7  C   UNL     1      21.891  48.852  48.718  1.00  0.00     0.080 A 
HETATM    8  C   UNL     1      20.851  49.866  48.639  1.00  0.00    -0.026 A 
HETATM    9  C   UNL     1      19.593  49.294  48.618  1.00  0.00    -0.008 A 
HETATM   10  C   UNL     1      21.027  51.356  48.505  1.00  0.00     0.041 C 
HETATM   11  S   UNL     1      19.637  47.611  48.784  1.00  0.00    -0.075 SA
HETATM   12  C   UNL     1      18.300  50.033  48.479  1.00  0.00     0.047 C 
HETATM   13  C   UNL     1      18.551  51.437  47.914  1.00  0.00     0.005 C 
HETATM   14  C   UNL     1      19.705  52.127  48.650  1.00  0.00     0.005 C 
BRANCH   7  15
HETATM   15  C   UNL     1      23.344  49.051  48.673  1.00  0.00     0.296 C 
HETATM   16  O   UNL     1      23.918  49.508  47.688  1.00  0.00    -0.259 OA
BRANCH  15  17
HETATM   17  O   UNL     1      23.971  48.693  49.826  1.00  0.00    -0.318 OA
BRANCH  17  18
HETATM   18  C   UNL     1      24.963  47.666  49.707  1.00  0.00     0.174 C 
HETATM   19  C   UNL     1      26.325  48.331  49.720  1.00  0.00     0.034 C 
ENDBRANCH  17  18
ENDBRANCH  15  17
ENDBRANCH   7  15
ENDBRANCH   3   6
ENDBRANCH   1   2
BRANCH   1  20
HETATM   20  S   UNL     1      22.812  43.744  49.803  1.00  0.00    -0.083 SA
BRANCH  20  21
HETATM   21  C   UNL     1      24.316  43.304  50.534  1.00  0.00     0.171 A 
HETATM   22  N   UNL     1      24.961  44.120  51.310  1.00  0.00    -0.204 NA
HETATM   23  C   UNL     1      26.144  43.609  51.757  1.00  0.00     0.171 A 
HETATM   24  C   UNL     1      26.677  42.388  51.411  1.00  0.00     0.099 A 
HETATM   25  N   UNL     1      27.065  44.202  52.618  1.00  0.00    -0.215 N 
HETATM   26  C   UNL     1      25.930  41.506  50.562  1.00  0.00     0.263 A 
HETATM   27  C   UNL     1      27.934  42.334  52.006  1.00  0.00     0.160 A 
HETATM   28  O   UNL     1      26.320  40.403  50.200  1.00  0.00    -0.267 OA
HETATM   29  N   UNL     1      24.723  42.044  50.176  1.00  0.00    -0.301 N 
HETATM   30  H   UNL     1      24.138  41.488  49.570  1.00  0.00     0.171 HD
HETATM   31  N   UNL     1      28.205  43.441  52.701  1.00  0.00    -0.177 NA
BRANCH  25  32
HETATM   32  C   UNL     1      26.953  45.398  53.385  1.00  0.00     0.060 A 
HETATM   33  C   UNL     1      25.978  46.366  53.102  1.00  0.00     0.034 A 
HETATM   34  C   UNL     1      25.871  47.508  53.902  1.00  0.00     0.044 A 
HETATM   35  C   UNL     1      26.739  47.685  54.973  1.00  0.00     0.116 A 
HETATM   36  F   UNL     1      26.640  48.786  55.728  1.00  0.00    -0.206 F 
HETATM   37  C   UNL     1      27.713  46.740  55.267  1.00  0.00     0.044 A 
HETATM   38  C   UNL     1      27.817  45.591  54.479  1.00  0.00     0.034 A 
ENDBRANCH  25  32
ENDBRANCH  20  21
ENDBRANCH   1  20
TORSDOF 8
ENDMDL
MODEL 6
REMARK VINA RESULT:      -9.7      4.154     11.097
REMARK  8 active torsions:
REMARK  status: ('A' for Active; 'I' for Inactive)
REMARK    1  A    between atoms: C_2  and  O_3 
REMARK    2  A    between atoms: O_3  and  C_4 
REMARK    3  A    between atoms: C_4  and  C_5 
REMARK    4  A    between atoms: C_6  and  N_7 
REMARK       I    between atoms: N_7  and  C_8 
REMARK    5  A    between atoms: C_8  and  C_9 
REMARK    6  A    between atoms: C_9  and  S_10 
REMARK    7  A    between atoms: S_10  and  C_11 
REMARK    8  A    between atoms: N_18  and  C_19 
ROOT
HETATM    1  C   UNL     1      24.526  47.508  50.262  1.00  0.00     0.185 C 
ENDROOT
BRANCH   1   2
HETATM    2  C   UNL     1      23.772  48.420  49.306  1.00  0.00     0.232 C 
HETATM    3  N   UNL     1      22.398  48.374  49.491  1.00  0.00    -0.320 N 
HETATM    4  H   UNL     1      22.016  47.662  50.113  1.00  0.00     0.169 HD
HETATM    5  O   UNL     1      24.388  49.121  48.507  1.00  0.00    -0.272 OA
BRANCH   3   6
HETATM    6  C   UNL     1      21.446  49.216  48.926  1.00  0.00     0.094 A 
HETATM    7  C   UNL     1      20.617  48.916  47.847  1.00  0.00     0.080 A 
HETATM    8  C   UNL     1      19.733  50.032  47.552  1.00  0.00    -0.026 A 
HETATM    9  C   UNL     1      19.908  51.064  48.455  1.00  0.00    -0.008 A 
HETATM   10  C   UNL     1      18.675  50.111  46.482  1.00  0.00     0.041 C 
HETATM   11  S   UNL     1      21.149  50.760  49.563  1.00  0.00    -0.075 SA
HETATM   12  C   UNL     1      19.123  52.338  48.489  1.00  0.00     0.047 C 
HETATM   13  C   UNL     1      17.817  52.176  47.701  1.00  0.00     0.005 C 
HETATM   14  C   UNL     1      18.074  51.518  46.340  1.00  0.00     0.005 C 
BRANCH   7  15
HETATM   15  C   UNL     1      20.669  47.610  47.179  1.00  0.00     0.296 C 
HETATM   16  O   UNL     1      21.710  47.141  46.728  1.00  0.00    -0.259 OA
BRANCH  15  17
HETATM   17  O   UNL     1      19.462  46.984  47.131  1.00  0.00    -0.318 OA
BRANCH  17  18
HETATM   18  C   UNL     1      18.954  46.507  48.383  1.00  0.00     0.174 C 
HETATM   19  C   UNL     1      17.454  46.729  48.389  1.00  0.00     0.034 C 
ENDBRANCH  17  18
ENDBRANCH  15  17
ENDBRANCH   7  15
ENDBRANCH   3   6
ENDBRANCH   1   2
BRANCH   1  20
HETATM   20  S   UNL     1      26.232  47.249  49.693  1.00  0.00    -0.083 SA
BRANCH  20  21
HETATM   21  C   UNL     1      26.358  45.553  50.011  1.00  0.00     0.171 A 
HETATM   22  N   UNL     1      27.156  45.089  50.922  1.00  0.00    -0.204 NA
HETATM   23  C   UNL     1      27.145  43.727  50.997  1.00  0.00     0.171 A 
HETATM   24  C   UNL     1      26.430  42.880  50.180  1.00  0.00     0.099 A 
HETATM   25  N   UNL     1      27.857  42.909  51.871  1.00  0.00    -0.215 N 
HETATM   26  C   UNL     1      25.548  43.429  49.192  1.00  0.00     0.263 A 
HETATM   27  C   UNL     1      26.808  41.590  50.539  1.00  0.00     0.160 A 
HETATM   28  O   UNL     1      24.873  42.759  48.422  1.00  0.00    -0.267 OA
HETATM   29  N   UNL     1      25.555  44.806  49.187  1.00  0.00    -0.301 N 
HETATM   30  H   UNL     1      24.965  45.272  48.515  1.00  0.00     0.171 HD
HETATM   31  N   UNL     1      27.705  41.589  51.528  1.00  0.00    -0.177 NA
BRANCH  25  32
HETATM   32  C   UNL     1      28.638  43.259  53.012  1.00  0.00     0.060 A 
HETATM   33  C   UNL     1      28.175  44.178  53.967  1.00  0.00     0.034 A 
HETATM   34  C   UNL     1      28.950  44.466  55.095  1.00  0.00     0.044 A 
HETATM   35  C   UNL     1      30.183  43.848  55.262  1.00  0.00     0.116 A 
HETATM   36  F   UNL     1      30.926  44.138  56.337  1.00  0.00    -0.206 F 
HETATM   37  C   UNL     1      30.660  42.939  54.326  1.00  0.00     0.044 A 
HETATM   38  C   UNL     1      29.885  42.637  53.204  1.00  0.00     0.034 A 
ENDBRANCH  25  32
ENDBRANCH  20  21
ENDBRANCH   1  20
TORSDOF 8
ENDMDL
MODEL 7
REMARK VINA RESULT:      -9.6      2.767      4.355
REMARK  8 active torsions:
REMARK  status: ('A' for Active; 'I' for Inactive)
REMARK    1  A    between atoms: C_2  and  O_3 
REMARK    2  A    between atoms: O_3  and  C_4 
REMARK    3  A    between atoms: C_4  and  C_5 
REMARK    4  A    between atoms: C_6  and  N_7 
REMARK       I    between atoms: N_7  and  C_8 
REMARK    5  A    between atoms: C_8  and  C_9 
REMARK    6  A    between atoms: C_9  and  S_10 
REMARK    7  A    between atoms: S_10  and  C_11 
REMARK    8  A    between atoms: N_18  and  C_19 
ROOT
HETATM    1  C   UNL     1      26.763  42.494  51.020  1.00  0.00     0.185 C 
ENDROOT
BRANCH   1   2
HETATM    2  C   UNL     1      27.572  42.447  52.307  1.00  0.00     0.232 C 
HETATM    3  N   UNL     1      28.229  43.640  52.571  1.00  0.00    -0.320 N 
HETATM    4  H   UNL     1      28.239  44.360  51.848  1.00  0.00     0.169 HD
HETATM    5  O   UNL     1      27.566  41.436  53.004  1.00  0.00    -0.272 OA
BRANCH   3   6
HETATM    6  C   UNL     1      28.885  43.995  53.744  1.00  0.00     0.094 A 
HETATM    7  C   UNL     1      28.475  44.964  54.658  1.00  0.00     0.080 A 
HETATM    8  C   UNL     1      29.401  45.042  55.777  1.00  0.00    -0.026 A 
HETATM    9  C   UNL     1      30.403  44.095  55.666  1.00  0.00    -0.008 A 
HETATM   10  C   UNL     1      29.313  45.939  56.983  1.00  0.00     0.041 C 
HETATM   11  S   UNL     1      30.305  43.204  54.232  1.00  0.00    -0.075 SA
HETATM   12  C   UNL     1      31.487  43.851  56.668  1.00  0.00     0.047 C 
HETATM   13  C   UNL     1      31.101  44.453  58.024  1.00  0.00     0.005 C 
HETATM   14  C   UNL     1      30.575  45.884  57.860  1.00  0.00     0.005 C 
BRANCH   7  15
HETATM   15  C   UNL     1      27.240  45.732  54.459  1.00  0.00     0.296 C 
HETATM   16  O   UNL     1      26.174  45.202  54.162  1.00  0.00    -0.259 OA
BRANCH  15  17
HETATM   17  O   UNL     1      27.403  47.069  54.651  1.00  0.00    -0.318 OA
BRANCH  17  18
HETATM   18  C   UNL     1      26.201  47.826  54.838  1.00  0.00     0.174 C 
HETATM   19  C   UNL     1      26.427  48.779  55.996  1.00  0.00     0.034 C 
ENDBRANCH  17  18
ENDBRANCH  15  17
ENDBRANCH   7  15
ENDBRANCH   3   6
ENDBRANCH   1   2
BRANCH   1  20
HETATM   20  S   UNL     1      26.905  44.124  50.229  1.00  0.00    -0.083 SA
BRANCH  20  21
HETATM   21  C   UNL     1      25.276  44.287  49.672  1.00  0.00     0.171 A 
HETATM   22  N   UNL     1      24.726  45.450  49.504  1.00  0.00    -0.204 NA
HETATM   23  C   UNL     1      23.426  45.372  49.099  1.00  0.00     0.171 A 
HETATM   24  C   UNL     1      22.703  44.214  48.927  1.00  0.00     0.099 A 
HETATM   25  N   UNL     1      22.554  46.419  48.805  1.00  0.00    -0.215 N 
HETATM   26  C   UNL     1      23.346  42.946  49.108  1.00  0.00     0.263 A 
HETATM   27  C   UNL     1      21.405  44.613  48.622  1.00  0.00     0.160 A 
HETATM   28  O   UNL     1      22.788  41.864  48.977  1.00  0.00    -0.267 OA
HETATM   29  N   UNL     1      24.669  43.073  49.468  1.00  0.00    -0.301 N 
HETATM   30  H   UNL     1      25.193  42.225  49.622  1.00  0.00     0.171 HD
HETATM   31  N   UNL     1      21.285  45.943  48.591  1.00  0.00    -0.177 NA
BRANCH  25  32
HETATM   32  C   UNL     1      22.819  47.814  48.681  1.00  0.00     0.060 A 
HETATM   33  C   UNL     1      24.126  48.322  48.712  1.00  0.00     0.034 A 
HETATM   34  C   UNL     1      24.350  49.692  48.545  1.00  0.00     0.044 A 
HETATM   35  C   UNL     1      23.274  50.550  48.358  1.00  0.00     0.116 A 
HETATM   36  F   UNL     1      23.493  51.863  48.212  1.00  0.00    -0.206 F 
HETATM   37  C   UNL     1      21.972  50.067  48.328  1.00  0.00     0.044 A 
HETATM   38  C   UNL     1      21.742  48.699  48.482  1.00  0.00     0.034 A 
ENDBRANCH  25  32
ENDBRANCH  20  21
ENDBRANCH   1  20
TORSDOF 8
ENDMDL
MODEL 8
REMARK VINA RESULT:      -9.5      2.331      2.883
REMARK  8 active torsions:
REMARK  status: ('A' for Active; 'I' for Inactive)
REMARK    1  A    between atoms: C_2  and  O_3 
REMARK    2  A    between atoms: O_3  and  C_4 
REMARK    3  A    between atoms: C_4  and  C_5 
REMARK    4  A    between atoms: C_6  and  N_7 
REMARK       I    between atoms: N_7  and  C_8 
REMARK    5  A    between atoms: C_8  and  C_9 
REMARK    6  A    between atoms: C_9  and  S_10 
REMARK    7  A    between atoms: S_10  and  C_11 
REMARK    8  A    between atoms: N_18  and  C_19 
ROOT
HETATM    1  C   UNL     1      24.742  44.515  51.460  1.00  0.00     0.185 C 
ENDROOT
BRANCH   1   2
HETATM    2  C   UNL     1      25.398  44.362  52.824  1.00  0.00     0.232 C 
HETATM    3  N   UNL     1      26.773  44.540  52.781  1.00  0.00    -0.320 N 
HETATM    4  H   UNL     1      27.226  44.606  51.870  1.00  0.00     0.169 HD
HETATM    5  O   UNL     1      24.712  44.140  53.818  1.00  0.00    -0.272 OA
BRANCH   3   6
HETATM    6  C   UNL     1      27.638  44.659  53.864  1.00  0.00     0.094 A 
HETATM    7  C   UNL     1      28.782  43.897  54.093  1.00  0.00     0.080 A 
HETATM    8  C   UNL     1      29.448  44.322  55.314  1.00  0.00    -0.026 A 
HETATM    9  C   UNL     1      28.805  45.405  55.885  1.00  0.00    -0.008 A 
HETATM   10  C   UNL     1      30.720  43.775  55.906  1.00  0.00     0.041 C 
HETATM   11  S   UNL     1      27.401  45.846  55.053  1.00  0.00    -0.075 SA
HETATM   12  C   UNL     1      29.252  46.137  57.111  1.00  0.00     0.047 C 
HETATM   13  C   UNL     1      30.729  45.840  57.397  1.00  0.00     0.005 C 
HETATM   14  C   UNL     1      31.015  44.337  57.307  1.00  0.00     0.005 C 
BRANCH   7  15
HETATM   15  C   UNL     1      29.205  42.849  53.157  1.00  0.00     0.296 C 
HETATM   16  O   UNL     1      30.310  42.849  52.621  1.00  0.00    -0.259 OA
BRANCH  15  17
HETATM   17  O   UNL     1      28.261  41.888  52.963  1.00  0.00    -0.318 OA
BRANCH  17  18
HETATM   18  C   UNL     1      28.284  41.236  51.688  1.00  0.00     0.174 C 
HETATM   19  C   UNL     1      26.878  41.276  51.121  1.00  0.00     0.034 C 
ENDBRANCH  17  18
ENDBRANCH  15  17
ENDBRANCH   7  15
ENDBRANCH   3   6
ENDBRANCH   1   2
BRANCH   1  20
HETATM   20  S   UNL     1      24.930  46.214  50.844  1.00  0.00    -0.083 SA
BRANCH  20  21
HETATM   21  C   UNL     1      23.897  46.106  49.460  1.00  0.00     0.171 A 
HETATM   22  N   UNL     1      23.026  47.027  49.187  1.00  0.00    -0.204 NA
HETATM   23  C   UNL     1      22.280  46.744  48.081  1.00  0.00     0.171 A 
HETATM   24  C   UNL     1      22.358  45.595  47.328  1.00  0.00     0.099 A 
HETATM   25  N   UNL     1      21.280  47.520  47.497  1.00  0.00    -0.215 N 
HETATM   26  C   UNL     1      23.342  44.604  47.651  1.00  0.00     0.263 A 
HETATM   27  C   UNL     1      21.344  45.687  46.378  1.00  0.00     0.160 A 
HETATM   28  O   UNL     1      23.488  43.553  47.041  1.00  0.00    -0.267 OA
HETATM   29  N   UNL     1      24.104  44.954  48.743  1.00  0.00    -0.301 N 
HETATM   30  H   UNL     1      24.817  44.307  49.041  1.00  0.00     0.171 HD
HETATM   31  N   UNL     1      20.653  46.823  46.495  1.00  0.00    -0.177 NA
BRANCH  25  32
HETATM   32  C   UNL     1      20.889  48.862  47.781  1.00  0.00     0.060 A 
HETATM   33  C   UNL     1      21.835  49.869  48.024  1.00  0.00     0.034 A 
HETATM   34  C   UNL     1      21.416  51.183  48.257  1.00  0.00     0.044 A 
HETATM   35  C   UNL     1      20.059  51.485  48.258  1.00  0.00     0.116 A 
HETATM   36  F   UNL     1      19.663  52.742  48.494  1.00  0.00    -0.206 F 
HETATM   37  C   UNL     1      19.108  50.501  48.023  1.00  0.00     0.044 A 
HETATM   38  C   UNL     1      19.520  49.190  47.777  1.00  0.00     0.034 A 
ENDBRANCH  25  32
ENDBRANCH  20  21
ENDBRANCH   1  20
TORSDOF 8
ENDMDL
MODEL 9
REMARK VINA RESULT:      -9.5      1.777      2.251
REMARK  8 active torsions:
REMARK  status: ('A' for Active; 'I' for Inactive)
REMARK    1  A    between atoms: C_2  and  O_3 
REMARK    2  A    between atoms: O_3  and  C_4 
REMARK    3  A    between atoms: C_4  and  C_5 
REMARK    4  A    between atoms: C_6  and  N_7 
REMARK       I    between atoms: N_7  and  C_8 
REMARK    5  A    between atoms: C_8  and  C_9 
REMARK    6  A    between atoms: C_9  and  S_10 
REMARK    7  A    between atoms: S_10  and  C_11 
REMARK    8  A    between atoms: N_18  and  C_19 
ROOT
HETATM    1  C   UNL     1      24.338  44.979  51.239  1.00  0.00     0.185 C 
ENDROOT
BRANCH   1   2
HETATM    2  C   UNL     1      25.555  45.368  52.065  1.00  0.00     0.232 C 
HETATM    3  N   UNL     1      25.878  44.419  53.024  1.00  0.00    -0.320 N 
HETATM    4  H   UNL     1      25.223  43.654  53.190  1.00  0.00     0.169 HD
HETATM    5  O   UNL     1      26.157  46.410  51.825  1.00  0.00    -0.272 OA
BRANCH   3   6
HETATM    6  C   UNL     1      27.028  44.370  53.804  1.00  0.00     0.094 A 
HETATM    7  C   UNL     1      28.007  43.379  53.768  1.00  0.00     0.080 A 
HETATM    8  C   UNL     1      29.075  43.676  54.709  1.00  0.00    -0.026 A 
HETATM    9  C   UNL     1      28.866  44.889  55.339  1.00  0.00    -0.008 A 
HETATM   10  C   UNL     1      30.325  42.875  54.966  1.00  0.00     0.041 C 
HETATM   11  S   UNL     1      27.400  45.610  54.901  1.00  0.00    -0.075 SA
HETATM   12  C   UNL     1      29.794  45.536  56.319  1.00  0.00     0.047 C 
HETATM   13  C   UNL     1      31.196  44.924  56.202  1.00  0.00     0.005 C 
HETATM   14  C   UNL     1      31.128  43.393  56.170  1.00  0.00     0.005 C 
BRANCH   7  15
HETATM   15  C   UNL     1      27.911  42.239  52.849  1.00  0.00     0.296 C 
HETATM   16  O   UNL     1      27.987  41.075  53.230  1.00  0.00    -0.259 OA
BRANCH  15  17
HETATM   17  O   UNL     1      27.718  42.609  51.554  1.00  0.00    -0.318 OA
BRANCH  17  18
HETATM   18  C   UNL     1      27.287  41.572  50.664  1.00  0.00     0.174 C 
HETATM   19  C   UNL     1      25.772  41.603  50.613  1.00  0.00     0.034 C 
ENDBRANCH  17  18
ENDBRANCH  15  17
ENDBRANCH   7  15
ENDBRANCH   3   6
ENDBRANCH   1   2
BRANCH   1  20
HETATM   20  S   UNL     1      24.696  45.119  49.463  1.00  0.00    -0.083 SA
BRANCH  20  21
HETATM   21  C   UNL     1      24.200  46.758  49.224  1.00  0.00     0.171 A 
HETATM   22  N   UNL     1      22.954  47.075  49.051  1.00  0.00    -0.204 NA
HETATM   23  C   UNL     1      22.766  48.409  48.840  1.00  0.00     0.171 A 
HETATM   24  C   UNL     1      23.759  49.359  48.751  1.00  0.00     0.099 A 
HETATM   25  N   UNL     1      21.565  49.087  48.643  1.00  0.00    -0.215 N 
HETATM   26  C   UNL     1      25.124  48.976  48.962  1.00  0.00     0.263 A 
HETATM   27  C   UNL     1      23.122  50.551  48.419  1.00  0.00     0.160 A 
HETATM   28  O   UNL     1      26.073  49.746  48.904  1.00  0.00    -0.267 OA
HETATM   29  N   UNL     1      25.260  47.630  49.220  1.00  0.00    -0.301 N 
HETATM   30  H   UNL     1      26.191  47.277  49.373  1.00  0.00     0.171 HD
HETATM   31  N   UNL     1      21.801  50.396  48.303  1.00  0.00    -0.177 NA
BRANCH  25  32
HETATM   32  C   UNL     1      20.225  48.620  48.776  1.00  0.00     0.060 A 
HETATM   33  C   UNL     1      19.596  47.885  47.759  1.00  0.00     0.034 A 
HETATM   34  C   UNL     1      18.295  47.407  47.941  1.00  0.00     0.044 A 
HETATM   35  C   UNL     1      17.623  47.669  49.128  1.00  0.00     0.116 A 
HETATM   36  F   UNL     1      16.372  47.219  49.292  1.00  0.00    -0.206 F 
HETATM   37  C   UNL     1      18.226  48.397  50.145  1.00  0.00     0.044 A 
HETATM   38  C   UNL     1      19.530  48.867  49.975  1.00  0.00     0.034 A 
ENDBRANCH  25  32
ENDBRANCH  20  21
ENDBRANCH   1  20
TORSDOF 8
ENDMDL
MODEL 10
REMARK VINA RESULT:      -9.4      3.524      5.588
REMARK  8 active torsions:
REMARK  status: ('A' for Active; 'I' for Inactive)
REMARK    1  A    between atoms: C_2  and  O_3 
REMARK    2  A    between atoms: O_3  and  C_4 
REMARK    3  A    between atoms: C_4  and  C_5 
REMARK    4  A    between atoms: C_6  and  N_7 
REMARK       I    between atoms: N_7  and  C_8 
REMARK    5  A    between atoms: C_8  and  C_9 
REMARK    6  A    between atoms: C_9  and  S_10 
REMARK    7  A    between atoms: S_10  and  C_11 
REMARK    8  A    between atoms: N_18  and  C_19 
ROOT
HETATM    1  C   UNL     1      22.017  44.707  48.184  1.00  0.00     0.185 C 
ENDROOT
BRANCH   1   2
HETATM    2  C   UNL     1      22.671  44.136  49.433  1.00  0.00     0.232 C 
HETATM    3  N   UNL     1      24.039  44.366  49.476  1.00  0.00    -0.320 N 
HETATM    4  H   UNL     1      24.493  44.745  48.645  1.00  0.00     0.169 HD
HETATM    5  O   UNL     1      21.989  43.575  50.286  1.00  0.00    -0.272 OA
BRANCH   3   6
HETATM    6  C   UNL     1      24.893  44.152  50.552  1.00  0.00     0.094 A 
HETATM    7  C   UNL     1      25.834  43.132  50.667  1.00  0.00     0.080 A 
HETATM    8  C   UNL     1      26.561  43.240  51.922  1.00  0.00    -0.026 A 
HETATM    9  C   UNL     1      26.168  44.358  52.634  1.00  0.00    -0.008 A 
HETATM   10  C   UNL     1      27.670  42.353  52.423  1.00  0.00     0.041 C 
HETATM   11  S   UNL     1      24.909  45.203  51.884  1.00  0.00    -0.075 SA
HETATM   12  C   UNL     1      26.749  44.813  53.936  1.00  0.00     0.047 C 
HETATM   13  C   UNL     1      28.119  44.160  54.161  1.00  0.00     0.005 C 
HETATM   14  C   UNL     1      28.063  42.654  53.878  1.00  0.00     0.005 C 
BRANCH   7  15
HETATM   15  C   UNL     1      26.027  42.142  49.600  1.00  0.00     0.296 C 
HETATM   16  O   UNL     1      25.174  41.307  49.313  1.00  0.00    -0.259 OA
BRANCH  15  17
HETATM   17  O   UNL     1      27.226  42.260  48.968  1.00  0.00    -0.318 OA
BRANCH  17  18
HETATM   18  C   UNL     1      27.738  41.063  48.369  1.00  0.00     0.174 C 
HETATM   19  C   UNL     1      28.395  40.241  49.462  1.00  0.00     0.034 C 
ENDBRANCH  17  18
ENDBRANCH  15  17
ENDBRANCH   7  15
ENDBRANCH   3   6
ENDBRANCH   1   2
BRANCH   1  20
HETATM   20  S   UNL     1      20.318  45.247  48.538  1.00  0.00    -0.083 SA
BRANCH  20  21
HETATM   21  C   UNL     1      20.579  46.957  48.524  1.00  0.00     0.171 A 
HETATM   22  N   UNL     1      21.759  47.468  48.696  1.00  0.00    -0.204 NA
HETATM   23  C   UNL     1      21.756  48.832  48.692  1.00  0.00     0.171 A 
HETATM   24  C   UNL     1      20.644  49.635  48.579  1.00  0.00     0.099 A 
HETATM   25  N   UNL     1      22.843  49.693  48.826  1.00  0.00    -0.215 N 
HETATM   26  C   UNL     1      19.358  49.037  48.375  1.00  0.00     0.263 A 
HETATM   27  C   UNL     1      21.096  50.942  48.737  1.00  0.00     0.160 A 
HETATM   28  O   UNL     1      18.314  49.666  48.263  1.00  0.00    -0.267 OA
HETATM   29  N   UNL     1      19.416  47.662  48.337  1.00  0.00    -0.301 N 
HETATM   30  H   UNL     1      18.551  47.162  48.204  1.00  0.00     0.171 HD
HETATM   31  N   UNL     1      22.416  50.993  48.934  1.00  0.00    -0.177 NA
BRANCH  25  32
HETATM   32  C   UNL     1      24.238  49.402  48.830  1.00  0.00     0.060 A 
HETATM   33  C   UNL     1      25.152  50.165  48.088  1.00  0.00     0.034 A 
HETATM   34  C   UNL     1      26.519  49.877  48.149  1.00  0.00     0.044 A 
HETATM   35  C   UNL     1      26.968  48.827  48.940  1.00  0.00     0.116 A 
HETATM   36  F   UNL     1      28.277  48.547  48.985  1.00  0.00    -0.206 F 
HETATM   37  C   UNL     1      26.079  48.057  49.679  1.00  0.00     0.044 A 
HETATM   38  C   UNL     1      24.714  48.348  49.633  1.00  0.00     0.034 A 
ENDBRANCH  25  32
ENDBRANCH  20  21
ENDBRANCH   1  20
TORSDOF 8
ENDMDL
