MODEL 1
REMARK VINA RESULT:      -8.7      0.000      0.000
REMARK  2 active torsions:
REMARK  status: ('A' for Active; 'I' for Inactive)
REMARK    1  A    between atoms: C_11  and  N_12 
REMARK    2  A    between atoms: N_12  and  C_13 
ROOT
HETATM    1  C   UNL     1      16.947  52.288  49.942  1.00  0.00     0.010 C 
HETATM    2  C   UNL     1      17.421  52.443  48.493  1.00  0.00    -0.014 C 
HETATM    3  C   UNL     1      16.840  51.342  47.581  1.00  0.00     0.051 C 
HETATM    4  C   UNL     1      17.619  50.066  47.711  1.00  0.00    -0.008 A 
HETATM    5  C   UNL     1      18.886  49.936  48.254  1.00  0.00    -0.028 A 
HETATM    6  C   UNL     1      19.326  48.547  48.267  1.00  0.00     0.053 A 
HETATM    7  C   UNL     1      18.370  47.740  47.657  1.00  0.00     0.114 A 
HETATM    8  N   UNL     1      18.435  46.414  47.462  1.00  0.00    -0.234 NA
HETATM    9  C   UNL     1      19.560  45.889  47.938  1.00  0.00     0.236 A 
HETATM   10  N   UNL     1      20.552  46.530  48.566  1.00  0.00    -0.223 NA
HETATM   11  C   UNL     1      20.474  47.870  48.765  1.00  0.00     0.143 A 
HETATM   12  S   UNL     1      16.992  48.597  47.140  1.00  0.00    -0.073 SA
HETATM   13  C   UNL     1      19.618  51.134  48.791  1.00  0.00     0.041 C 
HETATM   14  C   UNL     1      18.959  52.465  48.393  1.00  0.00     0.009 C 
ENDROOT
BRANCH  11  15
HETATM   15  N   UNL     1      21.510  48.542  49.431  1.00  0.00    -0.340 N 
HETATM   16  H   UNL     1      21.375  48.612  50.425  1.00  0.00     0.167 HD
BRANCH  15  17
HETATM   17  C   UNL     1      22.779  48.988  49.015  1.00  0.00     0.036 A 
HETATM   18  C   UNL     1      23.913  48.326  49.524  1.00  0.00     0.069 A 
HETATM   19  C   UNL     1      25.167  48.758  49.143  1.00  0.00     0.107 A 
HETATM   20  C   UNL     1      25.339  49.820  48.292  1.00  0.00     0.105 A 
HETATM   21  O   UNL     1      26.349  48.213  49.540  1.00  0.00    -0.323 OA
HETATM   22  O   UNL     1      26.649  50.079  48.040  1.00  0.00    -0.323 OA
HETATM   23  C   UNL     1      24.265  50.509  47.782  1.00  0.00     0.042 A 
HETATM   24  C   UNL     1      27.284  49.057  48.834  1.00  0.00     0.352 A 
HETATM   25  C   UNL     1      22.980  50.090  48.156  1.00  0.00     0.032 A 
ENDBRANCH  15  17
ENDBRANCH  11  15
TORSDOF 2
ENDMDL
MODEL 2
REMARK VINA RESULT:      -8.7      8.949     11.900
REMARK  2 active torsions:
REMARK  status: ('A' for Active; 'I' for Inactive)
REMARK    1  A    between atoms: C_11  and  N_12 
REMARK    2  A    between atoms: N_12  and  C_13 
ROOT
HETATM    1  C   UNL     1      30.764  43.295  57.429  1.00  0.00     0.010 C 
HETATM    2  C   UNL     1      31.287  44.128  56.254  1.00  0.00    -0.014 C 
HETATM    3  C   UNL     1      30.591  45.503  56.174  1.00  0.00     0.051 C 
HETATM    4  C   UNL     1      29.250  45.392  55.512  1.00  0.00    -0.008 A 
HETATM    5  C   UNL     1      28.807  44.332  54.739  1.00  0.00    -0.028 A 
HETATM    6  C   UNL     1      27.435  44.529  54.289  1.00  0.00     0.053 A 
HETATM    7  C   UNL     1      26.973  45.774  54.706  1.00  0.00     0.114 A 
HETATM    8  N   UNL     1      25.770  46.314  54.461  1.00  0.00    -0.234 NA
HETATM    9  C   UNL     1      24.991  45.509  53.745  1.00  0.00     0.236 A 
HETATM   10  N   UNL     1      25.286  44.283  53.298  1.00  0.00    -0.223 NA
HETATM   11  C   UNL     1      26.504  43.742  53.557  1.00  0.00     0.143 A 
HETATM   12  S   UNL     1      28.109  46.641  55.632  1.00  0.00    -0.073 SA
HETATM   13  C   UNL     1      29.688  43.139  54.494  1.00  0.00     0.041 C 
HETATM   14  C   UNL     1      31.148  43.378  54.914  1.00  0.00     0.009 C 
ENDROOT
BRANCH  11  15
HETATM   15  N   UNL     1      26.811  42.453  53.094  1.00  0.00    -0.340 N 
HETATM   16  H   UNL     1      26.659  41.731  53.777  1.00  0.00     0.167 HD
BRANCH  15  17
HETATM   17  C   UNL     1      27.127  41.948  51.818  1.00  0.00     0.036 A 
HETATM   18  C   UNL     1      27.898  40.772  51.745  1.00  0.00     0.069 A 
HETATM   19  C   UNL     1      28.234  40.268  50.505  1.00  0.00     0.107 A 
HETATM   20  C   UNL     1      27.846  40.888  49.344  1.00  0.00     0.105 A 
HETATM   21  O   UNL     1      28.959  39.140  50.276  1.00  0.00    -0.323 OA
HETATM   22  O   UNL     1      28.274  40.230  48.234  1.00  0.00    -0.323 OA
HETATM   23  C   UNL     1      27.108  42.047  49.363  1.00  0.00     0.042 A 
HETATM   24  C   UNL     1      28.978  39.123  48.832  1.00  0.00     0.352 A 
HETATM   25  C   UNL     1      26.756  42.579  50.611  1.00  0.00     0.032 A 
ENDBRANCH  15  17
ENDBRANCH  11  15
TORSDOF 2
ENDMDL
MODEL 3
REMARK VINA RESULT:      -8.7      8.470     11.405
REMARK  2 active torsions:
REMARK  status: ('A' for Active; 'I' for Inactive)
REMARK    1  A    between atoms: C_11  and  N_12 
REMARK    2  A    between atoms: N_12  and  C_13 
ROOT
HETATM    1  C   UNL     1      28.165  40.741  48.340  1.00  0.00     0.010 C 
HETATM    2  C   UNL     1      27.539  39.918  49.471  1.00  0.00    -0.014 C 
HETATM    3  C   UNL     1      26.079  40.337  49.741  1.00  0.00     0.051 C 
HETATM    4  C   UNL     1      26.019  41.571  50.591  1.00  0.00    -0.008 A 
HETATM    5  C   UNL     1      27.053  42.086  51.355  1.00  0.00    -0.028 A 
HETATM    6  C   UNL     1      26.667  43.323  52.020  1.00  0.00     0.053 A 
HETATM    7  C   UNL     1      25.330  43.607  51.757  1.00  0.00     0.114 A 
HETATM    8  N   UNL     1      24.619  44.648  52.215  1.00  0.00    -0.234 NA
HETATM    9  C   UNL     1      25.341  45.452  52.990  1.00  0.00     0.236 A 
HETATM   10  N   UNL     1      26.634  45.323  53.310  1.00  0.00    -0.223 NA
HETATM   11  C   UNL     1      27.347  44.271  52.836  1.00  0.00     0.143 A 
HETATM   12  S   UNL     1      24.589  42.474  50.725  1.00  0.00    -0.073 SA
HETATM   13  C   UNL     1      28.395  41.408  51.388  1.00  0.00     0.041 C 
HETATM   14  C   UNL     1      28.369  40.002  50.767  1.00  0.00     0.009 C 
ENDROOT
BRANCH  11  15
HETATM   15  N   UNL     1      28.705  44.139  53.164  1.00  0.00    -0.340 N 
HETATM   16  H   UNL     1      29.319  44.153  52.367  1.00  0.00     0.167 HD
BRANCH  15  17
HETATM   17  C   UNL     1      29.396  44.161  54.392  1.00  0.00     0.036 A 
HETATM   18  C   UNL     1      29.146  45.231  55.271  1.00  0.00     0.069 A 
HETATM   19  C   UNL     1      29.824  45.282  56.473  1.00  0.00     0.107 A 
HETATM   20  C   UNL     1      30.742  44.326  56.826  1.00  0.00     0.105 A 
HETATM   21  O   UNL     1      29.680  46.242  57.426  1.00  0.00    -0.323 OA
HETATM   22  O   UNL     1      31.292  44.557  58.047  1.00  0.00    -0.323 OA
HETATM   23  C   UNL     1      31.033  43.271  55.994  1.00  0.00     0.042 A 
HETATM   24  C   UNL     1      30.614  45.773  58.422  1.00  0.00     0.352 A 
HETATM   25  C   UNL     1      30.357  43.199  54.768  1.00  0.00     0.032 A 
ENDBRANCH  15  17
ENDBRANCH  11  15
TORSDOF 2
ENDMDL
MODEL 4
REMARK VINA RESULT:      -8.3      6.023      9.063
REMARK  2 active torsions:
REMARK  status: ('A' for Active; 'I' for Inactive)
REMARK    1  A    between atoms: C_11  and  N_12 
REMARK    2  A    between atoms: N_12  and  C_13 
ROOT
HETATM    1  C   UNL     1      28.416  47.876  54.467  1.00  0.00     0.010 C 
HETATM    2  C   UNL     1      27.606  46.898  55.324  1.00  0.00    -0.014 C 
HETATM    3  C   UNL     1      28.295  45.521  55.425  1.00  0.00     0.051 C 
HETATM    4  C   UNL     1      28.025  44.691  54.205  1.00  0.00    -0.008 A 
HETATM    5  C   UNL     1      27.025  44.913  53.273  1.00  0.00    -0.028 A 
HETATM    6  C   UNL     1      27.076  43.943  52.187  1.00  0.00     0.053 A 
HETATM    7  C   UNL     1      28.081  43.012  52.429  1.00  0.00     0.114 A 
HETATM    8  N   UNL     1      28.410  41.959  51.665  1.00  0.00    -0.234 NA
HETATM    9  C   UNL     1      27.654  41.871  50.574  1.00  0.00     0.236 A 
HETATM   10  N   UNL     1      26.675  42.701  50.198  1.00  0.00    -0.223 NA
HETATM   11  C   UNL     1      26.354  43.767  50.973  1.00  0.00     0.143 A 
HETATM   12  S   UNL     1      28.951  43.313  53.861  1.00  0.00    -0.073 SA
HETATM   13  C   UNL     1      26.081  46.075  53.420  1.00  0.00     0.041 C 
HETATM   14  C   UNL     1      26.164  46.740  54.804  1.00  0.00     0.009 C 
ENDROOT
BRANCH  11  15
HETATM   15  N   UNL     1      25.332  44.642  50.575  1.00  0.00    -0.340 N 
HETATM   16  H   UNL     1      24.407  44.305  50.781  1.00  0.00     0.167 HD
BRANCH  15  17
HETATM   17  C   UNL     1      25.343  45.968  50.101  1.00  0.00     0.036 A 
HETATM   18  C   UNL     1      26.590  46.563  49.830  1.00  0.00     0.069 A 
HETATM   19  C   UNL     1      26.625  47.867  49.380  1.00  0.00     0.107 A 
HETATM   20  C   UNL     1      25.481  48.602  49.201  1.00  0.00     0.105 A 
HETATM   21  O   UNL     1      27.748  48.568  49.065  1.00  0.00    -0.323 OA
HETATM   22  O   UNL     1      25.733  49.858  48.749  1.00  0.00    -0.323 OA
HETATM   23  C   UNL     1      24.241  48.072  49.469  1.00  0.00     0.042 A 
HETATM   24  C   UNL     1      27.172  49.830  48.665  1.00  0.00     0.352 A 
HETATM   25  C   UNL     1      24.180  46.749  49.928  1.00  0.00     0.032 A 
ENDBRANCH  15  17
ENDBRANCH  11  15
TORSDOF 2
ENDMDL
MODEL 5
REMARK VINA RESULT:      -8.1     22.982     24.246
REMARK  2 active torsions:
REMARK  status: ('A' for Active; 'I' for Inactive)
REMARK    1  A    between atoms: C_11  and  N_12 
REMARK    2  A    between atoms: N_12  and  C_13 
ROOT
HETATM    1  C   UNL     1      39.453  48.546  65.101  1.00  0.00     0.010 C 
HETATM    2  C   UNL     1      38.068  49.192  64.979  1.00  0.00    -0.014 C 
HETATM    3  C   UNL     1      37.382  49.335  66.354  1.00  0.00     0.051 C 
HETATM    4  C   UNL     1      36.753  48.041  66.781  1.00  0.00    -0.008 A 
HETATM    5  C   UNL     1      36.471  46.962  65.960  1.00  0.00    -0.028 A 
HETATM    6  C   UNL     1      35.904  45.849  66.711  1.00  0.00     0.053 A 
HETATM    7  C   UNL     1      35.736  46.212  68.044  1.00  0.00     0.114 A 
HETATM    8  N   UNL     1      35.220  45.460  69.028  1.00  0.00    -0.234 NA
HETATM    9  C   UNL     1      34.865  44.251  68.606  1.00  0.00     0.236 A 
HETATM   10  N   UNL     1      34.988  43.755  67.370  1.00  0.00    -0.223 NA
HETATM   11  C   UNL     1      35.517  44.520  66.383  1.00  0.00     0.143 A 
HETATM   12  S   UNL     1      36.276  47.789  68.389  1.00  0.00    -0.073 SA
HETATM   13  C   UNL     1      36.797  47.006  64.494  1.00  0.00     0.041 C 
HETATM   14  C   UNL     1      37.159  48.418  64.004  1.00  0.00     0.009 C 
ENDROOT
BRANCH  11  15
HETATM   15  N   UNL     1      35.654  43.998  65.087  1.00  0.00    -0.340 N 
HETATM   16  H   UNL     1      34.975  44.351  64.434  1.00  0.00     0.167 HD
BRANCH  15  17
HETATM   17  C   UNL     1      36.650  43.212  64.476  1.00  0.00     0.036 A 
HETATM   18  C   UNL     1      36.942  41.957  65.044  1.00  0.00     0.069 A 
HETATM   19  C   UNL     1      37.926  41.176  64.472  1.00  0.00     0.107 A 
HETATM   20  C   UNL     1      38.633  41.595  63.374  1.00  0.00     0.105 A 
HETATM   21  O   UNL     1      38.309  39.943  64.899  1.00  0.00    -0.323 OA
HETATM   22  O   UNL     1      39.551  40.679  62.965  1.00  0.00    -0.323 OA
HETATM   23  C   UNL     1      38.398  42.819  62.794  1.00  0.00     0.042 A 
HETATM   24  C   UNL     1      39.339  39.634  63.936  1.00  0.00     0.352 A 
HETATM   25  C   UNL     1      37.403  43.630  63.359  1.00  0.00     0.032 A 
ENDBRANCH  15  17
ENDBRANCH  11  15
TORSDOF 2
ENDMDL
MODEL 6
REMARK VINA RESULT:      -8.1      5.975      9.455
REMARK  2 active torsions:
REMARK  status: ('A' for Active; 'I' for Inactive)
REMARK    1  A    between atoms: C_11  and  N_12 
REMARK    2  A    between atoms: N_12  and  C_13 
ROOT
HETATM    1  C   UNL     1      26.296  40.361  50.957  1.00  0.00     0.010 C 
HETATM    2  C   UNL     1      27.658  40.993  50.651  1.00  0.00    -0.014 C 
HETATM    3  C   UNL     1      28.384  41.435  51.939  1.00  0.00     0.051 C 
HETATM    4  C   UNL     1      27.867  42.758  52.423  1.00  0.00    -0.008 A 
HETATM    5  C   UNL     1      27.128  43.665  51.683  1.00  0.00    -0.028 A 
HETATM    6  C   UNL     1      26.749  44.826  52.477  1.00  0.00     0.053 A 
HETATM    7  C   UNL     1      27.303  44.732  53.751  1.00  0.00     0.114 A 
HETATM    8  N   UNL     1      27.193  45.621  54.749  1.00  0.00    -0.234 NA
HETATM    9  C   UNL     1      26.454  46.673  54.408  1.00  0.00     0.236 A 
HETATM   10  N   UNL     1      25.841  46.889  53.239  1.00  0.00    -0.223 NA
HETATM   11  C   UNL     1      25.952  45.980  52.238  1.00  0.00     0.143 A 
HETATM   12  S   UNL     1      28.190  43.300  53.997  1.00  0.00    -0.073 SA
HETATM   13  C   UNL     1      26.762  43.374  50.254  1.00  0.00     0.041 C 
HETATM   14  C   UNL     1      27.532  42.177  49.672  1.00  0.00     0.009 C 
ENDROOT
BRANCH  11  15
HETATM   15  N   UNL     1      25.303  46.202  51.014  1.00  0.00    -0.340 N 
HETATM   16  H   UNL     1      24.692  45.453  50.737  1.00  0.00     0.167 HD
BRANCH  15  17
HETATM   17  C   UNL     1      25.202  47.332  50.179  1.00  0.00     0.036 A 
HETATM   18  C   UNL     1      23.927  47.692  49.704  1.00  0.00     0.069 A 
HETATM   19  C   UNL     1      23.806  48.786  48.871  1.00  0.00     0.107 A 
HETATM   20  C   UNL     1      24.897  49.523  48.485  1.00  0.00     0.105 A 
HETATM   21  O   UNL     1      22.645  49.259  48.345  1.00  0.00    -0.323 OA
HETATM   22  O   UNL     1      24.563  50.558  47.669  1.00  0.00    -0.323 OA
HETATM   23  C   UNL     1      26.164  49.202  48.907  1.00  0.00     0.042 A 
HETATM   24  C   UNL     1      23.134  50.385  47.585  1.00  0.00     0.352 A 
HETATM   25  C   UNL     1      26.311  48.094  49.753  1.00  0.00     0.032 A 
ENDBRANCH  15  17
ENDBRANCH  11  15
TORSDOF 2
ENDMDL
MODEL 7
REMARK VINA RESULT:      -8.1      3.729      5.260
REMARK  2 active torsions:
REMARK  status: ('A' for Active; 'I' for Inactive)
REMARK    1  A    between atoms: C_11  and  N_12 
REMARK    2  A    between atoms: N_12  and  C_13 
ROOT
HETATM    1  C   UNL     1      22.036  50.919  49.793  1.00  0.00     0.010 C 
HETATM    2  C   UNL     1      22.410  50.628  48.335  1.00  0.00    -0.014 C 
HETATM    3  C   UNL     1      21.442  49.615  47.689  1.00  0.00     0.051 C 
HETATM    4  C   UNL     1      21.797  48.209  48.072  1.00  0.00    -0.008 A 
HETATM    5  C   UNL     1      23.003  47.789  48.608  1.00  0.00    -0.028 A 
HETATM    6  C   UNL     1      22.992  46.363  48.906  1.00  0.00     0.053 A 
HETATM    7  C   UNL     1      21.785  45.801  48.500  1.00  0.00     0.114 A 
HETATM    8  N   UNL     1      21.422  44.513  48.590  1.00  0.00    -0.234 NA
HETATM    9  C   UNL     1      22.365  43.760  49.146  1.00  0.00     0.236 A 
HETATM   10  N   UNL     1      23.556  44.160  49.605  1.00  0.00    -0.223 NA
HETATM   11  C   UNL     1      23.913  45.466  49.516  1.00  0.00     0.143 A 
HETATM   12  S   UNL     1      20.701  46.935  47.838  1.00  0.00    -0.073 SA
HETATM   13  C   UNL     1      24.113  48.770  48.864  1.00  0.00     0.041 C 
HETATM   14  C   UNL     1      23.865  50.138  48.205  1.00  0.00     0.009 C 
ENDROOT
BRANCH  11  15
HETATM   15  N   UNL     1      25.159  45.887  50.005  1.00  0.00    -0.340 N 
HETATM   16  H   UNL     1      25.728  46.351  49.318  1.00  0.00     0.167 HD
BRANCH  15  17
HETATM   17  C   UNL     1      25.704  45.945  51.302  1.00  0.00     0.036 A 
HETATM   18  C   UNL     1      25.377  47.051  52.109  1.00  0.00     0.069 A 
HETATM   19  C   UNL     1      25.914  47.136  53.378  1.00  0.00     0.107 A 
HETATM   20  C   UNL     1      26.766  46.179  53.868  1.00  0.00     0.105 A 
HETATM   21  O   UNL     1      25.680  48.133  54.274  1.00  0.00    -0.323 OA
HETATM   22  O   UNL     1      27.177  46.447  55.135  1.00  0.00    -0.323 OA
HETATM   23  C   UNL     1      27.130  45.090  53.113  1.00  0.00     0.042 A 
HETATM   24  C   UNL     1      26.484  47.687  55.387  1.00  0.00     0.352 A 
HETATM   25  C   UNL     1      26.598  44.982  51.820  1.00  0.00     0.032 A 
ENDBRANCH  15  17
ENDBRANCH  11  15
TORSDOF 2
ENDMDL
MODEL 8
REMARK VINA RESULT:      -7.9     11.843     12.862
REMARK  2 active torsions:
REMARK  status: ('A' for Active; 'I' for Inactive)
REMARK    1  A    between atoms: C_11  and  N_12 
REMARK    2  A    between atoms: N_12  and  C_13 
ROOT
HETATM    1  C   UNL     1      28.599  53.005  40.557  1.00  0.00     0.010 C 
HETATM    2  C   UNL     1      28.913  52.830  39.067  1.00  0.00    -0.014 C 
HETATM    3  C   UNL     1      27.977  51.799  38.403  1.00  0.00     0.051 C 
HETATM    4  C   UNL     1      28.438  50.397  38.676  1.00  0.00    -0.008 A 
HETATM    5  C   UNL     1      29.694  50.025  39.124  1.00  0.00    -0.028 A 
HETATM    6  C   UNL     1      29.787  48.585  39.329  1.00  0.00     0.053 A 
HETATM    7  C   UNL     1      28.598  47.973  38.945  1.00  0.00     0.114 A 
HETATM    8  N   UNL     1      28.319  46.661  38.968  1.00  0.00    -0.234 NA
HETATM    9  C   UNL     1      29.335  45.937  39.427  1.00  0.00     0.236 A 
HETATM   10  N   UNL     1      30.522  46.384  39.854  1.00  0.00    -0.223 NA
HETATM   11  C   UNL     1      30.792  47.713  39.834  1.00  0.00     0.143 A 
HETATM   12  S   UNL     1      27.412  49.072  38.412  1.00  0.00    -0.073 SA
HETATM   13  C   UNL     1      30.753  51.058  39.391  1.00  0.00     0.041 C 
HETATM   14  C   UNL     1      30.387  52.445  38.835  1.00  0.00     0.009 C 
ENDROOT
BRANCH  11  15
HETATM   15  N   UNL     1      32.033  48.184  40.289  1.00  0.00    -0.340 N 
HETATM   16  H   UNL     1      32.809  47.899  39.716  1.00  0.00     0.167 HD
BRANCH  15  17
HETATM   17  C   UNL     1      32.394  49.112  41.285  1.00  0.00     0.036 A 
HETATM   18  C   UNL     1      33.679  49.684  41.221  1.00  0.00     0.069 A 
HETATM   19  C   UNL     1      34.061  50.583  42.196  1.00  0.00     0.107 A 
HETATM   20  C   UNL     1      33.227  50.924  43.231  1.00  0.00     0.105 A 
HETATM   21  O   UNL     1      35.259  51.224  42.260  1.00  0.00    -0.323 OA
HETATM   22  O   UNL     1      33.790  51.825  44.078  1.00  0.00    -0.323 OA
HETATM   23  C   UNL     1      31.971  50.379  43.347  1.00  0.00     0.042 A 
HETATM   24  C   UNL     1      35.078  52.011  43.457  1.00  0.00     0.352 A 
HETATM   25  C   UNL     1      31.561  49.463  42.369  1.00  0.00     0.032 A 
ENDBRANCH  15  17
ENDBRANCH  11  15
TORSDOF 2
ENDMDL
MODEL 9
REMARK VINA RESULT:      -7.9      8.131     10.848
REMARK  2 active torsions:
REMARK  status: ('A' for Active; 'I' for Inactive)
REMARK    1  A    between atoms: C_11  and  N_12 
REMARK    2  A    between atoms: N_12  and  C_13 
ROOT
HETATM    1  C   UNL     1      25.990  46.843  50.566  1.00  0.00     0.010 C 
HETATM    2  C   UNL     1      25.171  46.703  51.854  1.00  0.00    -0.014 C 
HETATM    3  C   UNL     1      25.979  47.134  53.095  1.00  0.00     0.051 C 
HETATM    4  C   UNL     1      26.899  46.039  53.548  1.00  0.00    -0.008 A 
HETATM    5  C   UNL     1      26.816  44.704  53.189  1.00  0.00    -0.028 A 
HETATM    6  C   UNL     1      27.897  43.921  53.773  1.00  0.00     0.053 A 
HETATM    7  C   UNL     1      28.678  44.728  54.595  1.00  0.00     0.114 A 
HETATM    8  N   UNL     1      29.745  44.356  55.317  1.00  0.00    -0.234 NA
HETATM    9  C   UNL     1      30.027  43.065  55.171  1.00  0.00     0.236 A 
HETATM   10  N   UNL     1      29.387  42.176  54.403  1.00  0.00    -0.223 NA
HETATM   11  C   UNL     1      28.313  42.564  53.670  1.00  0.00     0.143 A 
HETATM   12  S   UNL     1      28.170  46.353  54.626  1.00  0.00    -0.073 SA
HETATM   13  C   UNL     1      25.736  44.224  52.260  1.00  0.00     0.041 C 
HETATM   14  C   UNL     1      24.632  45.270  52.036  1.00  0.00     0.009 C 
ENDROOT
BRANCH  11  15
HETATM   15  N   UNL     1      27.646  41.635  52.858  1.00  0.00    -0.340 N 
HETATM   16  H   UNL     1      26.716  41.415  53.173  1.00  0.00     0.167 HD
BRANCH  15  17
HETATM   17  C   UNL     1      27.948  41.077  51.600  1.00  0.00     0.036 A 
HETATM   18  C   UNL     1      27.499  41.755  50.451  1.00  0.00     0.069 A 
HETATM   19  C   UNL     1      27.769  41.218  49.209  1.00  0.00     0.107 A 
HETATM   20  C   UNL     1      28.453  40.037  49.065  1.00  0.00     0.105 A 
HETATM   21  O   UNL     1      27.412  41.762  48.014  1.00  0.00    -0.323 OA
HETATM   22  O   UNL     1      28.618  39.686  47.762  1.00  0.00    -0.323 OA
HETATM   23  C   UNL     1      28.896  39.329  50.156  1.00  0.00     0.042 A 
HETATM   24  C   UNL     1      27.956  40.784  47.101  1.00  0.00     0.352 A 
HETATM   25  C   UNL     1      28.633  39.855  51.429  1.00  0.00     0.032 A 
ENDBRANCH  15  17
ENDBRANCH  11  15
TORSDOF 2
ENDMDL
MODEL 10
REMARK VINA RESULT:      -7.7     23.358     26.115
REMARK  2 active torsions:
REMARK  status: ('A' for Active; 'I' for Inactive)
REMARK    1  A    between atoms: C_11  and  N_12 
REMARK    2  A    between atoms: N_12  and  C_13 
ROOT
HETATM    1  C   UNL     1      43.448  45.305  66.349  1.00  0.00     0.010 C 
HETATM    2  C   UNL     1      43.321  46.302  65.191  1.00  0.00    -0.014 C 
HETATM    3  C   UNL     1      42.129  47.260  65.391  1.00  0.00     0.051 C 
HETATM    4  C   UNL     1      40.838  46.610  64.988  1.00  0.00    -0.008 A 
HETATM    5  C   UNL     1      40.707  45.475  64.204  1.00  0.00    -0.028 A 
HETATM    6  C   UNL     1      39.311  45.089  64.046  1.00  0.00     0.053 A 
HETATM    7  C   UNL     1      38.487  46.019  64.673  1.00  0.00     0.114 A 
HETATM    8  N   UNL     1      37.147  46.010  64.719  1.00  0.00    -0.234 NA
HETATM    9  C   UNL     1      36.626  44.965  64.083  1.00  0.00     0.236 A 
HETATM   10  N   UNL     1      37.288  43.983  63.460  1.00  0.00    -0.223 NA
HETATM   11  C   UNL     1      38.644  43.997  63.424  1.00  0.00     0.143 A 
HETATM   12  S   UNL     1      39.345  47.265  65.454  1.00  0.00    -0.073 SA
HETATM   13  C   UNL     1      41.921  44.766  63.671  1.00  0.00     0.041 C 
HETATM   14  C   UNL     1      43.211  45.586  63.830  1.00  0.00     0.009 C 
ENDROOT
BRANCH  11  15
HETATM   15  N   UNL     1      39.340  42.964  62.777  1.00  0.00    -0.340 N 
HETATM   16  H   UNL     1      39.802  43.253  61.932  1.00  0.00     0.167 HD
BRANCH  15  17
HETATM   17  C   UNL     1      39.662  41.647  63.159  1.00  0.00     0.036 A 
HETATM   18  C   UNL     1      40.450  41.467  64.312  1.00  0.00     0.069 A 
HETATM   19  C   UNL     1      40.792  40.186  64.695  1.00  0.00     0.107 A 
HETATM   20  C   UNL     1      40.395  39.086  63.977  1.00  0.00     0.105 A 
HETATM   21  O   UNL     1      41.534  39.855  65.786  1.00  0.00    -0.323 OA
HETATM   22  O   UNL     1      40.832  37.921  64.524  1.00  0.00    -0.323 OA
HETATM   23  C   UNL     1      39.641  39.211  62.835  1.00  0.00     0.042 A 
HETATM   24  C   UNL     1      41.553  38.416  65.671  1.00  0.00     0.352 A 
HETATM   25  C   UNL     1      39.281  40.503  62.426  1.00  0.00     0.032 A 
ENDBRANCH  15  17
ENDBRANCH  11  15
TORSDOF 2
ENDMDL
