MODEL 1
REMARK VINA RESULT:      -9.1      0.000      0.000
REMARK  4 active torsions:
REMARK  status: ('A' for Active; 'I' for Inactive)
REMARK    1  A    between atoms: C_8  and  N_9 
REMARK       I    between atoms: N_9  and  C_10 
REMARK       I    between atoms: C_10  and  N_11 
REMARK    2  A    between atoms: N_11  and  C_12 
REMARK    3  A    between atoms: C_15  and  O_16 
REMARK    4  A    between atoms: O_16  and  C_17 
ROOT
HETATM    1  C   UNL     1      25.501  45.146  51.271  1.00  0.00     0.054 A 
HETATM    2  C   UNL     1      25.055  44.790  52.541  1.00  0.00     0.149 A 
HETATM    3  N   UNL     1      25.799  44.100  53.445  1.00  0.00    -0.235 NA
HETATM    4  C   UNL     1      27.049  43.752  53.074  1.00  0.00     0.169 A 
HETATM    5  C   UNL     1      27.592  44.071  51.840  1.00  0.00     0.060 A 
HETATM    6  C   UNL     1      26.804  44.777  50.929  1.00  0.00     0.035 A 
ENDROOT
BRANCH   1   7
HETATM    7  N   UNL     1      24.741  45.839  50.303  1.00  0.00    -0.307 N 
HETATM    8  C   UNL     1      24.816  47.191  50.004  1.00  0.00     0.325 C 
HETATM    9  N   UNL     1      23.900  47.525  49.024  1.00  0.00    -0.305 N 
HETATM   10  O   UNL     1      25.589  47.971  50.539  1.00  0.00    -0.247 OA
HETATM   11  H   UNL     1      23.551  46.778  48.446  1.00  0.00     0.171 HD
HETATM   12  H   UNL     1      23.997  45.319  49.863  1.00  0.00     0.170 HD
BRANCH   9  13
HETATM   13  C   UNL     1      23.568  48.805  48.604  1.00  0.00     0.086 A 
HETATM   14  C   UNL     1      22.271  49.280  48.669  1.00  0.00     0.052 A 
HETATM   15  C   UNL     1      20.999  48.669  49.123  1.00  0.00     0.072 C 
HETATM   16  N   UNL     1      22.315  50.556  48.184  1.00  0.00    -0.280 N 
HETATM   17  H   UNL     1      21.550  51.212  48.071  1.00  0.00     0.189 HD
HETATM   18  N   UNL     1      23.539  50.960  47.837  1.00  0.00    -0.177 NA
HETATM   19  C   UNL     1      24.325  49.902  48.093  1.00  0.00     0.079 A 
HETATM   20  C   UNL     1      25.783  50.046  47.853  1.00  0.00     0.075 C 
ENDBRANCH   9  13
ENDBRANCH   1   7
BRANCH   4  21
HETATM   21  O   UNL     1      27.869  43.028  53.935  1.00  0.00    -0.292 OA
BRANCH  21  22
HETATM   22  C   UNL     1      28.729  43.757  54.719  1.00  0.00     0.080 A 
HETATM   23  C   UNL     1      29.910  43.157  55.147  1.00  0.00     0.079 A 
HETATM   24  C   UNL     1      30.808  43.903  55.901  1.00  0.00     0.119 A 
HETATM   25  F   UNL     1      31.944  43.334  56.326  1.00  0.00    -0.206 F 
HETATM   26  C   UNL     1      30.552  45.235  56.217  1.00  0.00     0.042 A 
HETATM   27  C   UNL     1      29.377  45.837  55.767  1.00  0.00     0.006 A 
HETATM   28  C   UNL     1      28.467  45.100  55.008  1.00  0.00     0.037 A 
ENDBRANCH  21  22
ENDBRANCH   4  21
TORSDOF 4
ENDMDL
MODEL 2
REMARK VINA RESULT:      -9.1      0.443      1.686
REMARK  4 active torsions:
REMARK  status: ('A' for Active; 'I' for Inactive)
REMARK    1  A    between atoms: C_8  and  N_9 
REMARK       I    between atoms: N_9  and  C_10 
REMARK       I    between atoms: C_10  and  N_11 
REMARK    2  A    between atoms: N_11  and  C_12 
REMARK    3  A    between atoms: C_15  and  O_16 
REMARK    4  A    between atoms: O_16  and  C_17 
ROOT
HETATM    1  C   UNL     1      25.467  45.117  50.954  1.00  0.00     0.054 A 
HETATM    2  C   UNL     1      25.000  44.667  52.186  1.00  0.00     0.149 A 
HETATM    3  N   UNL     1      25.737  43.934  53.061  1.00  0.00    -0.235 NA
HETATM    4  C   UNL     1      27.002  43.636  52.699  1.00  0.00     0.169 A 
HETATM    5  C   UNL     1      27.567  44.049  51.503  1.00  0.00     0.060 A 
HETATM    6  C   UNL     1      26.786  44.798  50.621  1.00  0.00     0.035 A 
ENDROOT
BRANCH   1   7
HETATM    7  N   UNL     1      24.715  45.857  50.017  1.00  0.00    -0.307 N 
HETATM    8  C   UNL     1      24.497  47.227  50.026  1.00  0.00     0.325 C 
HETATM    9  N   UNL     1      23.687  47.600  48.970  1.00  0.00    -0.305 N 
HETATM   10  O   UNL     1      24.962  47.991  50.859  1.00  0.00    -0.247 OA
HETATM   11  H   UNL     1      23.626  46.965  48.190  1.00  0.00     0.171 HD
HETATM   12  H   UNL     1      24.200  45.323  49.335  1.00  0.00     0.170 HD
BRANCH   9  13
HETATM   13  C   UNL     1      23.116  48.847  48.766  1.00  0.00     0.086 A 
HETATM   14  C   UNL     1      23.855  49.920  48.300  1.00  0.00     0.052 A 
HETATM   15  C   UNL     1      25.284  50.072  47.936  1.00  0.00     0.072 C 
HETATM   16  N   UNL     1      22.984  50.967  48.219  1.00  0.00    -0.280 N 
HETATM   17  H   UNL     1      23.171  51.920  47.926  1.00  0.00     0.189 HD
HETATM   18  N   UNL     1      21.732  50.657  48.564  1.00  0.00    -0.177 NA
HETATM   19  C   UNL     1      21.790  49.358  48.897  1.00  0.00     0.079 A 
HETATM   20  C   UNL     1      20.526  48.685  49.291  1.00  0.00     0.075 C 
ENDBRANCH   9  13
ENDBRANCH   1   7
BRANCH   4  21
HETATM   21  O   UNL     1      27.818  42.874  53.530  1.00  0.00    -0.292 OA
BRANCH  21  22
HETATM   22  C   UNL     1      28.627  43.565  54.397  1.00  0.00     0.080 A 
HETATM   23  C   UNL     1      29.796  42.955  54.846  1.00  0.00     0.079 A 
HETATM   24  C   UNL     1      30.646  43.666  55.685  1.00  0.00     0.119 A 
HETATM   25  F   UNL     1      31.769  43.087  56.130  1.00  0.00    -0.206 F 
HETATM   26  C   UNL     1      30.354  44.973  56.066  1.00  0.00     0.042 A 
HETATM   27  C   UNL     1      29.193  45.586  55.596  1.00  0.00     0.006 A 
HETATM   28  C   UNL     1      28.331  44.884  54.751  1.00  0.00     0.037 A 
ENDBRANCH  21  22
ENDBRANCH   4  21
TORSDOF 4
ENDMDL
MODEL 3
REMARK VINA RESULT:      -8.8      1.087      1.648
REMARK  4 active torsions:
REMARK  status: ('A' for Active; 'I' for Inactive)
REMARK    1  A    between atoms: C_8  and  N_9 
REMARK       I    between atoms: N_9  and  C_10 
REMARK       I    between atoms: C_10  and  N_11 
REMARK    2  A    between atoms: N_11  and  C_12 
REMARK    3  A    between atoms: C_15  and  O_16 
REMARK    4  A    between atoms: O_16  and  C_17 
ROOT
HETATM    1  C   UNL     1      25.355  45.017  50.999  1.00  0.00     0.054 A 
HETATM    2  C   UNL     1      26.642  44.528  50.791  1.00  0.00     0.149 A 
HETATM    3  N   UNL     1      27.345  43.816  51.709  1.00  0.00    -0.235 NA
HETATM    4  C   UNL     1      26.740  43.570  52.890  1.00  0.00     0.169 A 
HETATM    5  C   UNL     1      25.457  43.998  53.190  1.00  0.00     0.060 A 
HETATM    6  C   UNL     1      24.759  44.732  52.230  1.00  0.00     0.035 A 
ENDROOT
BRANCH   1   7
HETATM    7  N   UNL     1      24.612  45.781  50.072  1.00  0.00    -0.307 N 
HETATM    8  C   UNL     1      24.661  47.158  49.906  1.00  0.00     0.325 C 
HETATM    9  N   UNL     1      23.773  47.562  48.926  1.00  0.00    -0.305 N 
HETATM   10  O   UNL     1      25.392  47.901  50.544  1.00  0.00    -0.247 OA
HETATM   11  H   UNL     1      23.467  46.866  48.267  1.00  0.00     0.171 HD
HETATM   12  H   UNL     1      23.901  45.289  49.555  1.00  0.00     0.170 HD
BRANCH   9  13
HETATM   13  C   UNL     1      23.422  48.868  48.618  1.00  0.00     0.086 A 
HETATM   14  C   UNL     1      22.126  49.328  48.763  1.00  0.00     0.052 A 
HETATM   15  C   UNL     1      20.873  48.676  49.212  1.00  0.00     0.072 C 
HETATM   16  N   UNL     1      22.148  50.637  48.376  1.00  0.00    -0.280 N 
HETATM   17  H   UNL     1      21.377  51.295  48.339  1.00  0.00     0.189 HD
HETATM   18  N   UNL     1      23.358  51.075  48.021  1.00  0.00    -0.177 NA
HETATM   19  C   UNL     1      24.156  50.006  48.168  1.00  0.00     0.079 A 
HETATM   20  C   UNL     1      25.605  50.178  47.891  1.00  0.00     0.075 C 
ENDBRANCH   9  13
ENDBRANCH   1   7
BRANCH   4  21
HETATM   21  O   UNL     1      27.399  42.863  53.892  1.00  0.00    -0.292 OA
BRANCH  21  22
HETATM   22  C   UNL     1      28.454  43.498  54.498  1.00  0.00     0.080 A 
HETATM   23  C   UNL     1      28.248  44.766  55.037  1.00  0.00     0.079 A 
HETATM   24  C   UNL     1      29.298  45.395  55.695  1.00  0.00     0.119 A 
HETATM   25  F   UNL     1      29.114  46.618  56.210  1.00  0.00    -0.206 F 
HETATM   26  C   UNL     1      30.536  44.774  55.836  1.00  0.00     0.042 A 
HETATM   27  C   UNL     1      30.730  43.495  55.313  1.00  0.00     0.006 A 
HETATM   28  C   UNL     1      29.684  42.851  54.651  1.00  0.00     0.037 A 
ENDBRANCH  21  22
ENDBRANCH   4  21
TORSDOF 4
ENDMDL
MODEL 4
REMARK VINA RESULT:      -8.6      4.242      9.610
REMARK  4 active torsions:
REMARK  status: ('A' for Active; 'I' for Inactive)
REMARK    1  A    between atoms: C_8  and  N_9 
REMARK       I    between atoms: N_9  and  C_10 
REMARK       I    between atoms: C_10  and  N_11 
REMARK    2  A    between atoms: N_11  and  C_12 
REMARK    3  A    between atoms: C_15  and  O_16 
REMARK    4  A    between atoms: O_16  and  C_17 
ROOT
HETATM    1  C   UNL     1      25.632  46.754  50.397  1.00  0.00     0.054 A 
HETATM    2  C   UNL     1      24.305  46.812  49.979  1.00  0.00     0.149 A 
HETATM    3  N   UNL     1      23.780  47.827  49.245  1.00  0.00    -0.235 NA
HETATM    4  C   UNL     1      24.612  48.831  48.903  1.00  0.00     0.169 A 
HETATM    5  C   UNL     1      25.952  48.861  49.254  1.00  0.00     0.060 A 
HETATM    6  C   UNL     1      26.465  47.807  50.012  1.00  0.00     0.035 A 
ENDROOT
BRANCH   1   7
HETATM    7  N   UNL     1      26.197  45.725  51.181  1.00  0.00    -0.307 N 
HETATM    8  C   UNL     1      26.872  44.605  50.717  1.00  0.00     0.325 C 
HETATM    9  N   UNL     1      27.259  43.797  51.771  1.00  0.00    -0.305 N 
HETATM   10  O   UNL     1      27.091  44.374  49.538  1.00  0.00    -0.247 OA
HETATM   11  H   UNL     1      27.310  44.223  52.682  1.00  0.00     0.171 HD
HETATM   12  H   UNL     1      25.997  45.754  52.169  1.00  0.00     0.170 HD
BRANCH   9  13
HETATM   13  C   UNL     1      27.791  42.520  51.681  1.00  0.00     0.086 A 
HETATM   14  C   UNL     1      29.006  42.194  52.254  1.00  0.00     0.052 A 
HETATM   15  C   UNL     1      29.998  42.984  53.022  1.00  0.00     0.072 C 
HETATM   16  N   UNL     1      29.211  40.874  51.973  1.00  0.00    -0.280 N 
HETATM   17  H   UNL     1      30.003  40.293  52.225  1.00  0.00     0.189 HD
HETATM   18  N   UNL     1      28.214  40.306  51.291  1.00  0.00    -0.177 NA
HETATM   19  C   UNL     1      27.329  41.297  51.106  1.00  0.00     0.079 A 
HETATM   20  C   UNL     1      26.060  40.974  50.406  1.00  0.00     0.075 C 
ENDBRANCH   9  13
ENDBRANCH   1   7
BRANCH   4  21
HETATM   21  O   UNL     1      24.149  49.918  48.167  1.00  0.00    -0.292 OA
BRANCH  21  22
HETATM   22  C   UNL     1      22.861  50.324  48.416  1.00  0.00     0.080 A 
HETATM   23  C   UNL     1      21.920  50.219  47.395  1.00  0.00     0.079 A 
HETATM   24  C   UNL     1      20.604  50.582  47.654  1.00  0.00     0.119 A 
HETATM   25  F   UNL     1      19.692  50.493  46.677  1.00  0.00    -0.206 F 
HETATM   26  C   UNL     1      20.214  51.028  48.914  1.00  0.00     0.042 A 
HETATM   27  C   UNL     1      21.156  51.110  49.939  1.00  0.00     0.006 A 
HETATM   28  C   UNL     1      22.482  50.748  49.693  1.00  0.00     0.037 A 
ENDBRANCH  21  22
ENDBRANCH   4  21
TORSDOF 4
ENDMDL
MODEL 5
REMARK VINA RESULT:      -8.6      1.706      2.820
REMARK  4 active torsions:
REMARK  status: ('A' for Active; 'I' for Inactive)
REMARK    1  A    between atoms: C_8  and  N_9 
REMARK       I    between atoms: N_9  and  C_10 
REMARK       I    between atoms: C_10  and  N_11 
REMARK    2  A    between atoms: N_11  and  C_12 
REMARK    3  A    between atoms: C_15  and  O_16 
REMARK    4  A    between atoms: O_16  and  C_17 
ROOT
HETATM    1  C   UNL     1      24.892  45.033  49.869  1.00  0.00     0.054 A 
HETATM    2  C   UNL     1      26.268  44.939  49.673  1.00  0.00     0.149 A 
HETATM    3  N   UNL     1      27.079  44.086  50.351  1.00  0.00    -0.235 NA
HETATM    4  C   UNL     1      26.497  43.280  51.263  1.00  0.00     0.169 A 
HETATM    5  C   UNL     1      25.135  43.283  51.522  1.00  0.00     0.060 A 
HETATM    6  C   UNL     1      24.326  44.173  50.814  1.00  0.00     0.035 A 
ENDROOT
BRANCH   1   7
HETATM    7  N   UNL     1      24.031  45.928  49.198  1.00  0.00    -0.307 N 
HETATM    8  C   UNL     1      23.791  47.253  49.531  1.00  0.00     0.325 C 
HETATM    9  N   UNL     1      22.866  47.813  48.669  1.00  0.00    -0.305 N 
HETATM   10  O   UNL     1      24.329  47.836  50.460  1.00  0.00    -0.247 OA
HETATM   11  H   UNL     1      22.733  47.360  47.779  1.00  0.00     0.171 HD
HETATM   12  H   UNL     1      23.455  45.534  48.470  1.00  0.00     0.170 HD
BRANCH   9  13
HETATM   13  C   UNL     1      22.255  49.050  48.803  1.00  0.00     0.086 A 
HETATM   14  C   UNL     1      22.895  50.222  48.444  1.00  0.00     0.052 A 
HETATM   15  C   UNL     1      24.244  50.503  47.896  1.00  0.00     0.072 C 
HETATM   16  N   UNL     1      22.010  51.228  48.705  1.00  0.00    -0.280 N 
HETATM   17  H   UNL     1      22.136  52.226  48.577  1.00  0.00     0.189 HD
HETATM   18  N   UNL     1      20.834  50.804  49.176  1.00  0.00    -0.177 NA
HETATM   19  C   UNL     1      20.961  49.470  49.238  1.00  0.00     0.079 A 
HETATM   20  C   UNL     1      19.787  48.680  49.688  1.00  0.00     0.075 C 
ENDBRANCH   9  13
ENDBRANCH   1   7
BRANCH   4  21
HETATM   21  O   UNL     1      27.259  42.389  52.013  1.00  0.00    -0.292 OA
BRANCH  21  22
HETATM   22  C   UNL     1      28.134  42.941  52.917  1.00  0.00     0.080 A 
HETATM   23  C   UNL     1      27.647  43.871  53.832  1.00  0.00     0.079 A 
HETATM   24  C   UNL     1      28.515  44.397  54.781  1.00  0.00     0.119 A 
HETATM   25  F   UNL     1      28.060  45.300  55.661  1.00  0.00    -0.206 F 
HETATM   26  C   UNL     1      29.847  43.998  54.840  1.00  0.00     0.042 A 
HETATM   27  C   UNL     1      30.323  43.050  53.934  1.00  0.00     0.006 A 
HETATM   28  C   UNL     1      29.463  42.512  52.976  1.00  0.00     0.037 A 
ENDBRANCH  21  22
ENDBRANCH   4  21
TORSDOF 4
ENDMDL
MODEL 6
REMARK VINA RESULT:      -8.3      5.406      7.189
REMARK  4 active torsions:
REMARK  status: ('A' for Active; 'I' for Inactive)
REMARK    1  A    between atoms: C_8  and  N_9 
REMARK       I    between atoms: N_9  and  C_10 
REMARK       I    between atoms: C_10  and  N_11 
REMARK    2  A    between atoms: N_11  and  C_12 
REMARK    3  A    between atoms: C_15  and  O_16 
REMARK    4  A    between atoms: O_16  and  C_17 
ROOT
HETATM    1  C   UNL     1      27.271  42.361  52.731  1.00  0.00     0.054 A 
HETATM    2  C   UNL     1      28.191  42.150  53.756  1.00  0.00     0.149 A 
HETATM    3  N   UNL     1      28.805  43.144  54.447  1.00  0.00    -0.235 NA
HETATM    4  C   UNL     1      28.488  44.412  54.111  1.00  0.00     0.169 A 
HETATM    5  C   UNL     1      27.575  44.729  53.118  1.00  0.00     0.060 A 
HETATM    6  C   UNL     1      26.961  43.687  52.421  1.00  0.00     0.035 A 
ENDROOT
BRANCH   1   7
HETATM    7  N   UNL     1      26.638  41.347  51.980  1.00  0.00    -0.307 N 
HETATM    8  C   UNL     1      27.190  40.627  50.930  1.00  0.00     0.325 C 
HETATM    9  N   UNL     1      26.268  39.737  50.412  1.00  0.00    -0.305 N 
HETATM   10  O   UNL     1      28.335  40.768  50.527  1.00  0.00    -0.247 OA
HETATM   11  H   UNL     1      25.491  39.483  51.000  1.00  0.00     0.171 HD
HETATM   12  H   UNL     1      25.656  41.207  52.156  1.00  0.00     0.170 HD
BRANCH   9  13
HETATM   13  C   UNL     1      26.405  38.987  49.253  1.00  0.00     0.086 A 
HETATM   14  C   UNL     1      26.062  39.493  48.012  1.00  0.00     0.052 A 
HETATM   15  C   UNL     1      25.505  40.797  47.579  1.00  0.00     0.072 C 
HETATM   16  N   UNL     1      26.326  38.498  47.116  1.00  0.00    -0.280 N 
HETATM   17  H   UNL     1      26.189  38.505  46.111  1.00  0.00     0.189 HD
HETATM   18  N   UNL     1      26.842  37.397  47.667  1.00  0.00    -0.177 NA
HETATM   19  C   UNL     1      26.905  37.679  48.978  1.00  0.00     0.079 A 
HETATM   20  C   UNL     1      27.489  36.655  49.881  1.00  0.00     0.075 C 
ENDBRANCH   9  13
ENDBRANCH   1   7
BRANCH   4  21
HETATM   21  O   UNL     1      29.086  45.489  54.758  1.00  0.00    -0.292 OA
BRANCH  21  22
HETATM   22  C   UNL     1      29.723  45.216  55.943  1.00  0.00     0.080 A 
HETATM   23  C   UNL     1      30.766  44.292  55.941  1.00  0.00     0.079 A 
HETATM   24  C   UNL     1      31.448  44.045  57.126  1.00  0.00     0.119 A 
HETATM   25  F   UNL     1      32.447  43.153  57.138  1.00  0.00    -0.206 F 
HETATM   26  C   UNL     1      31.117  44.715  58.301  1.00  0.00     0.042 A 
HETATM   27  C   UNL     1      30.086  45.655  58.292  1.00  0.00     0.006 A 
HETATM   28  C   UNL     1      29.393  45.914  57.108  1.00  0.00     0.037 A 
ENDBRANCH  21  22
ENDBRANCH   4  21
TORSDOF 4
ENDMDL
MODEL 7
REMARK VINA RESULT:      -8.2      3.939      9.469
REMARK  4 active torsions:
REMARK  status: ('A' for Active; 'I' for Inactive)
REMARK    1  A    between atoms: C_8  and  N_9 
REMARK       I    between atoms: N_9  and  C_10 
REMARK       I    between atoms: C_10  and  N_11 
REMARK    2  A    between atoms: N_11  and  C_12 
REMARK    3  A    between atoms: C_15  and  O_16 
REMARK    4  A    between atoms: O_16  and  C_17 
ROOT
HETATM    1  C   UNL     1      24.278  45.671  50.295  1.00  0.00     0.054 A 
HETATM    2  C   UNL     1      23.407  45.352  49.256  1.00  0.00     0.149 A 
HETATM    3  N   UNL     1      22.858  46.266  48.414  1.00  0.00    -0.235 NA
HETATM    4  C   UNL     1      23.193  47.558  48.607  1.00  0.00     0.169 A 
HETATM    5  C   UNL     1      24.063  47.978  49.601  1.00  0.00     0.060 A 
HETATM    6  C   UNL     1      24.609  47.019  50.455  1.00  0.00     0.035 A 
ENDROOT
BRANCH   1   7
HETATM    7  N   UNL     1      24.842  44.745  51.200  1.00  0.00    -0.307 N 
HETATM    8  C   UNL     1      26.045  44.071  51.053  1.00  0.00     0.325 C 
HETATM    9  N   UNL     1      26.262  43.221  52.123  1.00  0.00    -0.305 N 
HETATM   10  O   UNL     1      26.802  44.215  50.105  1.00  0.00    -0.247 OA
HETATM   11  H   UNL     1      25.753  43.411  52.971  1.00  0.00     0.171 HD
HETATM   12  H   UNL     1      24.261  44.470  51.978  1.00  0.00     0.170 HD
BRANCH   9  13
HETATM   13  C   UNL     1      27.261  42.266  52.229  1.00  0.00     0.086 A 
HETATM   14  C   UNL     1      27.200  41.067  51.542  1.00  0.00     0.052 A 
HETATM   15  C   UNL     1      26.194  40.489  50.619  1.00  0.00     0.072 C 
HETATM   16  N   UNL     1      28.334  40.385  51.877  1.00  0.00    -0.280 N 
HETATM   17  H   UNL     1      28.626  39.463  51.572  1.00  0.00     0.189 HD
HETATM   18  N   UNL     1      29.143  41.054  52.701  1.00  0.00    -0.177 NA
HETATM   19  C   UNL     1      28.506  42.214  52.925  1.00  0.00     0.079 A 
HETATM   20  C   UNL     1      29.179  43.222  53.784  1.00  0.00     0.075 C 
ENDBRANCH   9  13
ENDBRANCH   1   7
BRANCH   4  21
HETATM   21  O   UNL     1      22.660  48.558  47.798  1.00  0.00    -0.292 OA
BRANCH  21  22
HETATM   22  C   UNL     1      21.688  49.348  48.361  1.00  0.00     0.080 A 
HETATM   23  C   UNL     1      20.755  48.753  49.208  1.00  0.00     0.079 A 
HETATM   24  C   UNL     1      19.797  49.553  49.819  1.00  0.00     0.119 A 
HETATM   25  F   UNL     1      18.890  48.992  50.629  1.00  0.00    -0.206 F 
HETATM   26  C   UNL     1      19.768  50.929  49.611  1.00  0.00     0.042 A 
HETATM   27  C   UNL     1      20.717  51.522  48.778  1.00  0.00     0.006 A 
HETATM   28  C   UNL     1      21.686  50.731  48.159  1.00  0.00     0.037 A 
ENDBRANCH  21  22
ENDBRANCH   4  21
TORSDOF 4
ENDMDL
MODEL 8
REMARK VINA RESULT:      -8.0      2.373      3.282
REMARK  4 active torsions:
REMARK  status: ('A' for Active; 'I' for Inactive)
REMARK    1  A    between atoms: C_8  and  N_9 
REMARK       I    between atoms: N_9  and  C_10 
REMARK       I    between atoms: C_10  and  N_11 
REMARK    2  A    between atoms: N_11  and  C_12 
REMARK    3  A    between atoms: C_15  and  O_16 
REMARK    4  A    between atoms: O_16  and  C_17 
ROOT
HETATM    1  C   UNL     1      25.483  45.601  52.862  1.00  0.00     0.054 A 
HETATM    2  C   UNL     1      26.144  46.824  52.940  1.00  0.00     0.149 A 
HETATM    3  N   UNL     1      27.045  47.145  53.904  1.00  0.00    -0.235 NA
HETATM    4  C   UNL     1      27.310  46.204  54.834  1.00  0.00     0.169 A 
HETATM    5  C   UNL     1      26.718  44.951  54.837  1.00  0.00     0.060 A 
HETATM    6  C   UNL     1      25.793  44.650  53.837  1.00  0.00     0.035 A 
ENDROOT
BRANCH   1   7
HETATM    7  N   UNL     1      24.524  45.252  51.887  1.00  0.00    -0.307 N 
HETATM    8  C   UNL     1      24.469  45.708  50.577  1.00  0.00     0.325 C 
HETATM    9  N   UNL     1      23.374  45.178  49.921  1.00  0.00    -0.305 N 
HETATM   10  O   UNL     1      25.283  46.474  50.083  1.00  0.00    -0.247 OA
HETATM   11  H   UNL     1      22.968  44.341  50.306  1.00  0.00     0.171 HD
HETATM   12  H   UNL     1      23.743  44.700  52.205  1.00  0.00     0.170 HD
BRANCH   9  13
HETATM   13  C   UNL     1      22.903  45.546  48.670  1.00  0.00     0.086 A 
HETATM   14  C   UNL     1      22.828  44.643  47.625  1.00  0.00     0.052 A 
HETATM   15  C   UNL     1      23.185  43.209  47.509  1.00  0.00     0.072 C 
HETATM   16  N   UNL     1      22.324  45.340  46.564  1.00  0.00    -0.280 N 
HETATM   17  H   UNL     1      22.140  45.007  45.624  1.00  0.00     0.189 HD
HETATM   18  N   UNL     1      22.036  46.613  46.842  1.00  0.00    -0.177 NA
HETATM   19  C   UNL     1      22.378  46.759  48.131  1.00  0.00     0.079 A 
HETATM   20  C   UNL     1      22.134  48.078  48.770  1.00  0.00     0.075 C 
ENDBRANCH   9  13
ENDBRANCH   1   7
BRANCH   4  21
HETATM   21  O   UNL     1      28.208  46.459  55.867  1.00  0.00    -0.292 OA
BRANCH  21  22
HETATM   22  C   UNL     1      29.223  45.550  56.035  1.00  0.00     0.080 A 
HETATM   23  C   UNL     1      29.949  45.575  57.224  1.00  0.00     0.079 A 
HETATM   24  C   UNL     1      30.946  44.627  57.422  1.00  0.00     0.119 A 
HETATM   25  F   UNL     1      31.656  44.646  58.558  1.00  0.00    -0.206 F 
HETATM   26  C   UNL     1      31.215  43.653  56.464  1.00  0.00     0.042 A 
HETATM   27  C   UNL     1      30.470  43.621  55.285  1.00  0.00     0.006 A 
HETATM   28  C   UNL     1      29.465  44.565  55.073  1.00  0.00     0.037 A 
ENDBRANCH  21  22
ENDBRANCH   4  21
TORSDOF 4
ENDMDL
MODEL 9
REMARK VINA RESULT:      -7.9      4.388      9.643
REMARK  4 active torsions:
REMARK  status: ('A' for Active; 'I' for Inactive)
REMARK    1  A    between atoms: C_8  and  N_9 
REMARK       I    between atoms: N_9  and  C_10 
REMARK       I    between atoms: C_10  and  N_11 
REMARK    2  A    between atoms: N_11  and  C_12 
REMARK    3  A    between atoms: C_15  and  O_16 
REMARK    4  A    between atoms: O_16  and  C_17 
ROOT
HETATM    1  C   UNL     1      24.061  46.451  49.459  1.00  0.00     0.054 A 
HETATM    2  C   UNL     1      23.059  45.699  48.851  1.00  0.00     0.149 A 
HETATM    3  N   UNL     1      21.930  46.227  48.309  1.00  0.00    -0.235 NA
HETATM    4  C   UNL     1      21.791  47.567  48.368  1.00  0.00     0.169 A 
HETATM    5  C   UNL     1      22.736  48.406  48.936  1.00  0.00     0.060 A 
HETATM    6  C   UNL     1      23.884  47.837  49.489  1.00  0.00     0.035 A 
ENDROOT
BRANCH   1   7
HETATM    7  N   UNL     1      25.229  45.926  50.052  1.00  0.00    -0.307 N 
HETATM    8  C   UNL     1      25.304  45.193  51.227  1.00  0.00     0.325 C 
HETATM    9  N   UNL     1      26.617  44.871  51.518  1.00  0.00    -0.305 N 
HETATM   10  O   UNL     1      24.337  44.880  51.905  1.00  0.00    -0.247 OA
HETATM   11  H   UNL     1      27.277  44.899  50.759  1.00  0.00     0.171 HD
HETATM   12  H   UNL     1      26.105  46.202  49.635  1.00  0.00     0.170 HD
BRANCH   9  13
HETATM   13  C   UNL     1      27.088  44.306  52.694  1.00  0.00     0.086 A 
HETATM   14  C   UNL     1      27.198  45.039  53.862  1.00  0.00     0.052 A 
HETATM   15  C   UNL     1      26.908  46.455  54.190  1.00  0.00     0.072 C 
HETATM   16  N   UNL     1      27.685  44.176  54.801  1.00  0.00    -0.280 N 
HETATM   17  H   UNL     1      27.903  44.363  55.774  1.00  0.00     0.189 HD
HETATM   18  N   UNL     1      27.872  42.934  54.348  1.00  0.00    -0.177 NA
HETATM   19  C   UNL     1      27.506  42.991  53.058  1.00  0.00     0.079 A 
HETATM   20  C   UNL     1      27.554  41.735  52.267  1.00  0.00     0.075 C 
ENDBRANCH   9  13
ENDBRANCH   1   7
BRANCH   4  21
HETATM   21  O   UNL     1      20.655  48.186  47.852  1.00  0.00    -0.292 OA
BRANCH  21  22
HETATM   22  C   UNL     1      20.135  49.223  48.587  1.00  0.00     0.080 A 
HETATM   23  C   UNL     1      20.206  50.512  48.063  1.00  0.00     0.079 A 
HETATM   24  C   UNL     1      19.638  51.559  48.778  1.00  0.00     0.119 A 
HETATM   25  F   UNL     1      19.707  52.805  48.287  1.00  0.00    -0.206 F 
HETATM   26  C   UNL     1      18.992  51.338  49.990  1.00  0.00     0.042 A 
HETATM   27  C   UNL     1      18.906  50.042  50.500  1.00  0.00     0.006 A 
HETATM   28  C   UNL     1      19.470  48.980  49.792  1.00  0.00     0.037 A 
ENDBRANCH  21  22
ENDBRANCH   4  21
TORSDOF 4
ENDMDL
MODEL 10
REMARK VINA RESULT:      -7.8      4.052      9.522
REMARK  4 active torsions:
REMARK  status: ('A' for Active; 'I' for Inactive)
REMARK    1  A    between atoms: C_8  and  N_9 
REMARK       I    between atoms: N_9  and  C_10 
REMARK       I    between atoms: C_10  and  N_11 
REMARK    2  A    between atoms: N_11  and  C_12 
REMARK    3  A    between atoms: C_15  and  O_16 
REMARK    4  A    between atoms: O_16  and  C_17 
ROOT
HETATM    1  C   UNL     1      25.644  47.253  49.499  1.00  0.00     0.054 A 
HETATM    2  C   UNL     1      24.274  47.258  49.253  1.00  0.00     0.149 A 
HETATM    3  N   UNL     1      23.576  48.348  48.841  1.00  0.00    -0.235 NA
HETATM    4  C   UNL     1      24.272  49.489  48.658  1.00  0.00     0.169 A 
HETATM    5  C   UNL     1      25.639  49.586  48.859  1.00  0.00     0.060 A 
HETATM    6  C   UNL     1      26.331  48.451  49.286  1.00  0.00     0.035 A 
ENDROOT
BRANCH   1   7
HETATM    7  N   UNL     1      26.389  46.143  49.952  1.00  0.00    -0.307 N 
HETATM    8  C   UNL     1      26.199  45.446  51.137  1.00  0.00     0.325 C 
HETATM    9  N   UNL     1      27.135  44.436  51.263  1.00  0.00    -0.305 N 
HETATM   10  O   UNL     1      25.323  45.699  51.950  1.00  0.00    -0.247 OA
HETATM   11  H   UNL     1      27.589  44.121  50.421  1.00  0.00     0.171 HD
HETATM   12  H   UNL     1      27.204  45.900  49.411  1.00  0.00     0.170 HD
BRANCH   9  13
HETATM   13  C   UNL     1      27.363  43.657  52.388  1.00  0.00     0.086 A 
HETATM   14  C   UNL     1      27.297  42.277  52.346  1.00  0.00     0.052 A 
HETATM   15  C   UNL     1      26.992  41.319  51.256  1.00  0.00     0.072 C 
HETATM   16  N   UNL     1      27.576  41.849  53.612  1.00  0.00    -0.280 N 
HETATM   17  H   UNL     1      27.608  40.898  53.961  1.00  0.00     0.189 HD
HETATM   18  N   UNL     1      27.848  42.837  54.468  1.00  0.00    -0.177 NA
HETATM   19  C   UNL     1      27.729  43.955  53.736  1.00  0.00     0.079 A 
HETATM   20  C   UNL     1      28.019  45.253  54.397  1.00  0.00     0.075 C 
ENDBRANCH   9  13
ENDBRANCH   1   7
BRANCH   4  21
HETATM   21  O   UNL     1      23.629  50.656  48.254  1.00  0.00    -0.292 OA
BRANCH  21  22
HETATM   22  C   UNL     1      22.318  50.798  48.638  1.00  0.00     0.080 A 
HETATM   23  C   UNL     1      21.327  50.718  47.662  1.00  0.00     0.079 A 
HETATM   24  C   UNL     1      19.995  50.812  48.049  1.00  0.00     0.119 A 
HETATM   25  F   UNL     1      19.033  50.745  47.119  1.00  0.00    -0.206 F 
HETATM   26  C   UNL     1      19.642  50.967  49.386  1.00  0.00     0.042 A 
HETATM   27  C   UNL     1      20.639  51.025  50.361  1.00  0.00     0.006 A 
HETATM   28  C   UNL     1      21.980  50.930  49.988  1.00  0.00     0.037 A 
ENDBRANCH  21  22
ENDBRANCH   4  21
TORSDOF 4
ENDMDL
