MODEL 1
REMARK VINA RESULT:      -9.1      0.000      0.000
REMARK  7 active torsions:
REMARK  status: ('A' for Active; 'I' for Inactive)
REMARK    1  A    between atoms: C_7  and  C_8 
REMARK    2  A    between atoms: C_8  and  C_9 
REMARK    3  A    between atoms: C_9  and  C_10 
REMARK    4  A    between atoms: C_10  and  O_11 
REMARK    5  A    between atoms: C_13  and  C_14 
REMARK    6  A    between atoms: C_21  and  C_22 
REMARK       I    between atoms: C_22  and  N_23 
REMARK    7  A    between atoms: N_23  and  C_24 
ROOT
HETATM    1  C   UNL     1      23.888  44.394  51.686  1.00  0.00     0.070 C 
HETATM    2  C   UNL     1      25.204  43.675  51.515  1.00  0.00     0.037 C 
HETATM    3  N   UNL     1      25.119  42.285  51.417  1.00  0.00    -0.192 N 
HETATM    4  C   UNL     1      26.145  41.533  50.968  1.00  0.00     0.726 A 
HETATM    5  N   UNL     1      27.388  42.092  50.891  1.00  0.00    -0.083 N 
HETATM    6  N   UNL     1      28.277  41.259  50.315  1.00  0.00    -0.140 NA
HETATM    7  C   UNL     1      27.501  40.187  50.093  1.00  0.00     0.166 A 
HETATM    8  N   UNL     1      26.189  40.314  50.494  1.00  0.00    -0.046 NA
HETATM    9  C   UNL     1      27.691  43.462  51.299  1.00  0.00     0.202 C 
HETATM   10  C   UNL     1      26.415  44.291  51.435  1.00  0.00     0.062 C 
HETATM   11  H   UNL     1      24.183  41.895  51.325  1.00  0.00     0.184 HD
ENDROOT
BRANCH  10  12
HETATM   12  C   UNL     1      26.514  45.773  51.233  1.00  0.00     0.256 C 
HETATM   13  N   UNL     1      26.561  46.176  49.916  1.00  0.00    -0.323 N 
HETATM   14  H   UNL     1      26.659  45.473  49.197  1.00  0.00     0.169 HD
HETATM   15  O   UNL     1      26.477  46.514  52.209  1.00  0.00    -0.267 OA
BRANCH  13  16
HETATM   16  C   UNL     1      26.472  47.499  49.425  1.00  0.00     0.035 A 
HETATM   17  C   UNL     1      27.572  48.316  49.159  1.00  0.00     0.029 A 
HETATM   18  C   UNL     1      27.390  49.626  48.702  1.00  0.00     0.002 A 
HETATM   19  C   UNL     1      26.107  50.133  48.516  1.00  0.00     0.000 A 
HETATM   20  C   UNL     1      25.002  49.328  48.777  1.00  0.00     0.002 A 
HETATM   21  C   UNL     1      25.184  48.016  49.222  1.00  0.00     0.029 A 
ENDBRANCH  13  16
ENDBRANCH  10  12
BRANCH   9  22
HETATM   22  C   UNL     1      28.531  43.419  52.580  1.00  0.00    -0.028 A 
HETATM   23  C   UNL     1      27.999  43.929  53.778  1.00  0.00     0.011 A 
HETATM   24  C   UNL     1      28.746  43.904  54.958  1.00  0.00     0.019 A 
HETATM   25  C   UNL     1      30.034  43.374  54.952  1.00  0.00     0.011 A 
HETATM   26 BR   UNL     1      31.044  43.340  56.549  1.00  0.00    -0.051 Br
HETATM   27  C   UNL     1      30.585  42.877  53.775  1.00  0.00     0.019 A 
HETATM   28  C   UNL     1      29.842  42.906  52.593  1.00  0.00     0.011 A 
ENDBRANCH   9  22
BRANCH   7  29
HETATM   29  C   UNL     1      28.006  38.971  49.409  1.00  0.00     0.085 C 
BRANCH  29  30
HETATM   30  C   UNL     1      29.496  38.724  49.644  1.00  0.00     0.034 C 
BRANCH  30  31
HETATM   31  C   UNL     1      29.771  37.730  50.768  1.00  0.00     0.164 C 
BRANCH  31  32
HETATM   32  O   UNL     1      28.795  36.693  50.740  1.00  0.00    -0.401 OA
HETATM   33  H   UNL     1      28.550  36.545  49.811  1.00  0.00     0.209 HD
ENDBRANCH  31  32
ENDBRANCH  30  31
ENDBRANCH  29  30
ENDBRANCH   7  29
TORSDOF 7
ENDMDL
MODEL 2
REMARK VINA RESULT:      -8.6      3.454      6.302
REMARK  7 active torsions:
REMARK  status: ('A' for Active; 'I' for Inactive)
REMARK    1  A    between atoms: C_7  and  C_8 
REMARK    2  A    between atoms: C_8  and  C_9 
REMARK    3  A    between atoms: C_9  and  C_10 
REMARK    4  A    between atoms: C_10  and  O_11 
REMARK    5  A    between atoms: C_13  and  C_14 
REMARK    6  A    between atoms: C_21  and  C_22 
REMARK       I    between atoms: C_22  and  N_23 
REMARK    7  A    between atoms: N_23  and  C_24 
ROOT
HETATM    1  C   UNL     1      28.872  41.078  52.210  1.00  0.00     0.070 C 
HETATM    2  C   UNL     1      27.656  41.790  51.670  1.00  0.00     0.037 C 
HETATM    3  N   UNL     1      27.142  41.278  50.476  1.00  0.00    -0.192 N 
HETATM    4  C   UNL     1      25.910  41.599  50.030  1.00  0.00     0.726 A 
HETATM    5  N   UNL     1      25.265  42.667  50.582  1.00  0.00    -0.083 N 
HETATM    6  N   UNL     1      24.005  42.786  50.119  1.00  0.00    -0.140 NA
HETATM    7  C   UNL     1      23.964  41.761  49.253  1.00  0.00     0.166 A 
HETATM    8  N   UNL     1      25.120  41.018  49.162  1.00  0.00    -0.046 NA
HETATM    9  C   UNL     1      25.843  43.519  51.620  1.00  0.00     0.202 C 
HETATM   10  C   UNL     1      27.049  42.848  52.274  1.00  0.00     0.062 C 
HETATM   11  H   UNL     1      27.537  40.396  50.156  1.00  0.00     0.184 HD
ENDROOT
BRANCH  10  12
HETATM   12  C   UNL     1      27.383  43.223  53.686  1.00  0.00     0.256 C 
HETATM   13  N   UNL     1      28.570  43.906  53.839  1.00  0.00    -0.323 N 
HETATM   14  H   UNL     1      29.186  43.993  53.043  1.00  0.00     0.169 HD
HETATM   15  O   UNL     1      26.580  42.972  54.578  1.00  0.00    -0.267 OA
BRANCH  13  16
HETATM   16  C   UNL     1      29.046  44.539  55.011  1.00  0.00     0.035 A 
HETATM   17  C   UNL     1      28.409  45.610  55.641  1.00  0.00     0.029 A 
HETATM   18  C   UNL     1      28.966  46.196  56.782  1.00  0.00     0.002 A 
HETATM   19  C   UNL     1      30.169  45.723  57.298  1.00  0.00     0.000 A 
HETATM   20  C   UNL     1      30.813  44.656  56.680  1.00  0.00     0.002 A 
HETATM   21  C   UNL     1      30.251  44.062  55.546  1.00  0.00     0.029 A 
ENDBRANCH  13  16
ENDBRANCH  10  12
BRANCH   9  22
HETATM   22  C   UNL     1      26.161  44.888  51.011  1.00  0.00    -0.028 A 
HETATM   23  C   UNL     1      27.173  45.000  50.041  1.00  0.00     0.011 A 
HETATM   24  C   UNL     1      27.484  46.237  49.472  1.00  0.00     0.019 A 
HETATM   25  C   UNL     1      26.791  47.377  49.872  1.00  0.00     0.011 A 
HETATM   26 BR   UNL     1      27.211  49.051  49.103  1.00  0.00    -0.051 Br
HETATM   27  C   UNL     1      25.795  47.293  50.841  1.00  0.00     0.019 A 
HETATM   28  C   UNL     1      25.487  46.057  51.414  1.00  0.00     0.011 A 
ENDBRANCH   9  22
BRANCH   7  29
HETATM   29  C   UNL     1      22.738  41.416  48.492  1.00  0.00     0.085 C 
BRANCH  29  30
HETATM   30  C   UNL     1      23.010  40.514  47.290  1.00  0.00     0.034 C 
BRANCH  30  31
HETATM   31  C   UNL     1      21.817  39.643  46.909  1.00  0.00     0.164 C 
BRANCH  31  32
HETATM   32  O   UNL     1      20.974  39.463  48.043  1.00  0.00    -0.401 OA
HETATM   33  H   UNL     1      20.054  39.476  47.729  1.00  0.00     0.209 HD
ENDBRANCH  31  32
ENDBRANCH  30  31
ENDBRANCH  29  30
ENDBRANCH   7  29
TORSDOF 7
ENDMDL
MODEL 3
REMARK VINA RESULT:      -8.3      4.676      7.481
REMARK  7 active torsions:
REMARK  status: ('A' for Active; 'I' for Inactive)
REMARK    1  A    between atoms: C_7  and  C_8 
REMARK    2  A    between atoms: C_8  and  C_9 
REMARK    3  A    between atoms: C_9  and  C_10 
REMARK    4  A    between atoms: C_10  and  O_11 
REMARK    5  A    between atoms: C_13  and  C_14 
REMARK    6  A    between atoms: C_21  and  C_22 
REMARK       I    between atoms: C_22  and  N_23 
REMARK    7  A    between atoms: N_23  and  C_24 
ROOT
HETATM    1  C   UNL     1      24.957  50.061  47.894  1.00  0.00     0.070 C 
HETATM    2  C   UNL     1      24.823  48.875  48.817  1.00  0.00     0.037 C 
HETATM    3  N   UNL     1      25.999  48.478  49.458  1.00  0.00    -0.192 N 
HETATM    4  C   UNL     1      25.992  47.647  50.521  1.00  0.00     0.726 A 
HETATM    5  N   UNL     1      24.858  46.940  50.798  1.00  0.00    -0.083 N 
HETATM    6  N   UNL     1      24.967  46.252  51.951  1.00  0.00    -0.140 NA
HETATM    7  C   UNL     1      26.221  46.567  52.308  1.00  0.00     0.166 A 
HETATM    8  N   UNL     1      26.887  47.411  51.447  1.00  0.00    -0.046 NA
HETATM    9  C   UNL     1      23.643  47.001  49.988  1.00  0.00     0.202 C 
HETATM   10  C   UNL     1      23.659  48.216  49.061  1.00  0.00     0.062 C 
HETATM   11  H   UNL     1      26.799  49.101  49.360  1.00  0.00     0.184 HD
ENDROOT
BRANCH  10  12
HETATM   12  C   UNL     1      22.342  48.793  48.637  1.00  0.00     0.256 C 
HETATM   13  N   UNL     1      21.736  49.604  49.573  1.00  0.00    -0.323 N 
HETATM   14  H   UNL     1      22.132  49.652  50.501  1.00  0.00     0.169 HD
HETATM   15  O   UNL     1      21.932  48.576  47.502  1.00  0.00    -0.267 OA
BRANCH  13  16
HETATM   16  C   UNL     1      20.598  50.420  49.385  1.00  0.00     0.035 A 
HETATM   17  C   UNL     1      20.559  51.538  48.549  1.00  0.00     0.029 A 
HETATM   18  C   UNL     1      19.396  52.308  48.445  1.00  0.00     0.002 A 
HETATM   19  C   UNL     1      18.264  51.972  49.182  1.00  0.00     0.000 A 
HETATM   20  C   UNL     1      18.289  50.860  50.018  1.00  0.00     0.002 A 
HETATM   21  C   UNL     1      19.447  50.083  50.113  1.00  0.00     0.029 A 
ENDBRANCH  13  16
ENDBRANCH  10  12
BRANCH   9  22
HETATM   22  C   UNL     1      23.480  45.669  49.247  1.00  0.00    -0.028 A 
HETATM   23  C   UNL     1      24.595  44.832  49.068  1.00  0.00     0.011 A 
HETATM   24  C   UNL     1      24.473  43.615  48.395  1.00  0.00     0.019 A 
HETATM   25  C   UNL     1      23.236  43.224  47.887  1.00  0.00     0.011 A 
HETATM   26 BR   UNL     1      23.071  41.577  46.975  1.00  0.00    -0.051 Br
HETATM   27  C   UNL     1      22.122  44.044  48.039  1.00  0.00     0.019 A 
HETATM   28  C   UNL     1      22.244  45.264  48.708  1.00  0.00     0.011 A 
ENDBRANCH   9  22
BRANCH   7  29
HETATM   29  C   UNL     1      26.828  46.088  53.575  1.00  0.00     0.085 C 
BRANCH  29  30
HETATM   30  C   UNL     1      26.956  44.567  53.642  1.00  0.00     0.034 C 
BRANCH  30  31
HETATM   31  C   UNL     1      25.960  43.921  54.601  1.00  0.00     0.164 C 
BRANCH  31  32
HETATM   32  O   UNL     1      24.690  43.807  53.967  1.00  0.00    -0.401 OA
HETATM   33  H   UNL     1      24.607  44.546  53.342  1.00  0.00     0.209 HD
ENDBRANCH  31  32
ENDBRANCH  30  31
ENDBRANCH  29  30
ENDBRANCH   7  29
TORSDOF 7
ENDMDL
MODEL 4
REMARK VINA RESULT:      -7.8     11.366     15.172
REMARK  7 active torsions:
REMARK  status: ('A' for Active; 'I' for Inactive)
REMARK    1  A    between atoms: C_7  and  C_8 
REMARK    2  A    between atoms: C_8  and  C_9 
REMARK    3  A    between atoms: C_9  and  C_10 
REMARK    4  A    between atoms: C_10  and  O_11 
REMARK    5  A    between atoms: C_13  and  C_14 
REMARK    6  A    between atoms: C_21  and  C_22 
REMARK       I    between atoms: C_22  and  N_23 
REMARK    7  A    between atoms: N_23  and  C_24 
ROOT
HETATM    1  C   UNL     1      14.838  51.329  44.870  1.00  0.00     0.070 C 
HETATM    2  C   UNL     1      15.183  51.550  46.323  1.00  0.00     0.037 C 
HETATM    3  N   UNL     1      15.000  52.853  46.791  1.00  0.00    -0.192 N 
HETATM    4  C   UNL     1      14.973  53.145  48.108  1.00  0.00     0.726 A 
HETATM    5  N   UNL     1      15.429  52.216  48.999  1.00  0.00    -0.083 N 
HETATM    6  N   UNL     1      15.226  52.605  50.274  1.00  0.00    -0.140 NA
HETATM    7  C   UNL     1      14.665  53.808  50.078  1.00  0.00     0.166 A 
HETATM    8  N   UNL     1      14.506  54.179  48.761  1.00  0.00    -0.046 NA
HETATM    9  C   UNL     1      15.982  50.920  48.612  1.00  0.00     0.202 C 
HETATM   10  C   UNL     1      15.625  50.578  47.167  1.00  0.00     0.062 C 
HETATM   11  H   UNL     1      14.522  53.495  46.163  1.00  0.00     0.184 HD
ENDROOT
BRANCH  10  12
HETATM   12  C   UNL     1      15.543  49.131  46.786  1.00  0.00     0.256 C 
HETATM   13  N   UNL     1      16.721  48.585  46.325  1.00  0.00    -0.323 N 
HETATM   14  H   UNL     1      17.504  49.199  46.150  1.00  0.00     0.169 HD
HETATM   15  O   UNL     1      14.493  48.524  46.965  1.00  0.00    -0.267 OA
BRANCH  13  16
HETATM   16  C   UNL     1      16.987  47.220  46.071  1.00  0.00     0.035 A 
HETATM   17  C   UNL     1      16.675  46.565  44.878  1.00  0.00     0.029 A 
HETATM   18  C   UNL     1      16.948  45.202  44.723  1.00  0.00     0.002 A 
HETATM   19  C   UNL     1      17.527  44.480  45.763  1.00  0.00     0.000 A 
HETATM   20  C   UNL     1      17.844  45.121  46.956  1.00  0.00     0.002 A 
HETATM   21  C   UNL     1      17.583  46.486  47.107  1.00  0.00     0.029 A 
ENDBRANCH  13  16
ENDBRANCH  10  12
BRANCH   9  22
HETATM   22  C   UNL     1      17.490  50.929  48.885  1.00  0.00    -0.028 A 
HETATM   23  C   UNL     1      18.062  49.905  49.661  1.00  0.00     0.011 A 
HETATM   24  C   UNL     1      19.433  49.892  49.925  1.00  0.00     0.019 A 
HETATM   25  C   UNL     1      20.246  50.905  49.422  1.00  0.00     0.011 A 
HETATM   26 BR   UNL     1      22.101  50.887  49.781  1.00  0.00    -0.051 Br
HETATM   27  C   UNL     1      19.699  51.935  48.664  1.00  0.00     0.019 A 
HETATM   28  C   UNL     1      18.327  51.953  48.402  1.00  0.00     0.011 A 
ENDBRANCH   9  22
BRANCH   7  29
HETATM   29  C   UNL     1      14.193  54.654  51.202  1.00  0.00     0.085 C 
BRANCH  29  30
HETATM   30  C   UNL     1      15.039  55.909  51.407  1.00  0.00     0.034 C 
BRANCH  30  31
HETATM   31  C   UNL     1      15.242  56.266  52.876  1.00  0.00     0.164 C 
BRANCH  31  32
HETATM   32  O   UNL     1      15.197  55.082  53.666  1.00  0.00    -0.401 OA
HETATM   33  H   UNL     1      14.569  54.471  53.246  1.00  0.00     0.209 HD
ENDBRANCH  31  32
ENDBRANCH  30  31
ENDBRANCH  29  30
ENDBRANCH   7  29
TORSDOF 7
ENDMDL
MODEL 5
REMARK VINA RESULT:      -7.5     16.433     20.189
REMARK  7 active torsions:
REMARK  status: ('A' for Active; 'I' for Inactive)
REMARK    1  A    between atoms: C_7  and  C_8 
REMARK    2  A    between atoms: C_8  and  C_9 
REMARK    3  A    between atoms: C_9  and  C_10 
REMARK    4  A    between atoms: C_10  and  O_11 
REMARK    5  A    between atoms: C_13  and  C_14 
REMARK    6  A    between atoms: C_21  and  C_22 
REMARK       I    between atoms: C_22  and  N_23 
REMARK    7  A    between atoms: N_23  and  C_24 
ROOT
HETATM    1  C   UNL     1      39.660  39.502  62.450  1.00  0.00     0.070 C 
HETATM    2  C   UNL     1      39.520  40.794  63.217  1.00  0.00     0.037 C 
HETATM    3  N   UNL     1      38.632  41.723  62.670  1.00  0.00    -0.192 N 
HETATM    4  C   UNL     1      38.172  42.778  63.375  1.00  0.00     0.726 A 
HETATM    5  N   UNL     1      38.805  43.123  64.533  1.00  0.00    -0.083 N 
HETATM    6  N   UNL     1      38.160  44.114  65.179  1.00  0.00    -0.140 NA
HETATM    7  C   UNL     1      37.149  44.346  64.328  1.00  0.00     0.166 A 
HETATM    8  N   UNL     1      37.131  43.553  63.201  1.00  0.00    -0.046 NA
HETATM    9  C   UNL     1      39.985  42.435  65.053  1.00  0.00     0.202 C 
HETATM   10  C   UNL     1      40.173  41.078  64.377  1.00  0.00     0.062 C 
HETATM   11  H   UNL     1      38.058  41.396  61.895  1.00  0.00     0.184 HD
ENDROOT
BRANCH  10  12
HETATM   12  C   UNL     1      40.886  40.004  65.142  1.00  0.00     0.256 C 
HETATM   13  N   UNL     1      40.072  39.204  65.914  1.00  0.00    -0.323 N 
HETATM   14  H   UNL     1      39.100  39.460  66.021  1.00  0.00     0.169 HD
HETATM   15  O   UNL     1      42.094  39.862  64.988  1.00  0.00    -0.267 OA
BRANCH  13  16
HETATM   16  C   UNL     1      40.435  38.015  66.588  1.00  0.00     0.035 A 
HETATM   17  C   UNL     1      40.845  37.960  67.921  1.00  0.00     0.029 A 
HETATM   18  C   UNL     1      41.215  36.742  68.501  1.00  0.00     0.002 A 
HETATM   19  C   UNL     1      41.187  35.570  67.750  1.00  0.00     0.000 A 
HETATM   20  C   UNL     1      40.780  35.612  66.420  1.00  0.00     0.002 A 
HETATM   21  C   UNL     1      40.398  36.827  65.844  1.00  0.00     0.029 A 
ENDBRANCH  13  16
ENDBRANCH  10  12
BRANCH   9  22
HETATM   22  C   UNL     1      41.197  43.362  64.910  1.00  0.00    -0.028 A 
HETATM   23  C   UNL     1      42.195  43.359  65.900  1.00  0.00     0.011 A 
HETATM   24  C   UNL     1      43.308  44.196  65.794  1.00  0.00     0.019 A 
HETATM   25  C   UNL     1      43.432  45.050  64.700  1.00  0.00     0.011 A 
HETATM   26 BR   UNL     1      44.937  46.183  64.558  1.00  0.00    -0.051 Br
HETATM   27  C   UNL     1      42.449  45.080  63.716  1.00  0.00     0.019 A 
HETATM   28  C   UNL     1      41.333  44.247  63.823  1.00  0.00     0.011 A 
ENDBRANCH   9  22
BRANCH   7  29
HETATM   29  C   UNL     1      36.088  45.345  64.610  1.00  0.00     0.085 C 
BRANCH  29  30
HETATM   30  C   UNL     1      36.614  46.600  65.304  1.00  0.00     0.034 C 
BRANCH  30  31
HETATM   31  C   UNL     1      36.771  47.789  64.361  1.00  0.00     0.164 C 
BRANCH  31  32
HETATM   32  O   UNL     1      36.822  47.328  63.014  1.00  0.00    -0.401 OA
HETATM   33  H   UNL     1      36.237  47.897  62.486  1.00  0.00     0.209 HD
ENDBRANCH  31  32
ENDBRANCH  30  31
ENDBRANCH  29  30
ENDBRANCH   7  29
TORSDOF 7
ENDMDL
MODEL 6
REMARK VINA RESULT:      -7.3      7.159      9.915
REMARK  7 active torsions:
REMARK  status: ('A' for Active; 'I' for Inactive)
REMARK    1  A    between atoms: C_7  and  C_8 
REMARK    2  A    between atoms: C_8  and  C_9 
REMARK    3  A    between atoms: C_9  and  C_10 
REMARK    4  A    between atoms: C_10  and  O_11 
REMARK    5  A    between atoms: C_13  and  C_14 
REMARK    6  A    between atoms: C_21  and  C_22 
REMARK       I    between atoms: C_22  and  N_23 
REMARK    7  A    between atoms: N_23  and  C_24 
ROOT
HETATM    1  C   UNL     1      22.318  49.839  48.974  1.00  0.00     0.070 C 
HETATM    2  C   UNL     1      21.815  48.429  48.785  1.00  0.00     0.037 C 
HETATM    3  N   UNL     1      22.792  47.479  48.479  1.00  0.00    -0.192 N 
HETATM    4  C   UNL     1      22.559  46.153  48.575  1.00  0.00     0.726 A 
HETATM    5  N   UNL     1      21.270  45.716  48.679  1.00  0.00    -0.083 N 
HETATM    6  N   UNL     1      21.209  44.386  48.887  1.00  0.00    -0.140 NA
HETATM    7  C   UNL     1      22.514  44.073  48.865  1.00  0.00     0.166 A 
HETATM    8  N   UNL     1      23.372  45.131  48.662  1.00  0.00    -0.046 NA
HETATM    9  C   UNL     1      20.107  46.600  48.661  1.00  0.00     0.202 C 
HETATM   10  C   UNL     1      20.514  48.051  48.912  1.00  0.00     0.062 C 
HETATM   11  H   UNL     1      23.759  47.787  48.552  1.00  0.00     0.184 HD
ENDROOT
BRANCH  10  12
HETATM   12  C   UNL     1      19.502  48.968  49.529  1.00  0.00     0.256 C 
HETATM   13  N   UNL     1      19.043  49.967  48.698  1.00  0.00    -0.323 N 
HETATM   14  H   UNL     1      19.495  50.100  47.804  1.00  0.00     0.169 HD
HETATM   15  O   UNL     1      19.106  48.744  50.667  1.00  0.00    -0.267 OA
BRANCH  13  16
HETATM   16  C   UNL     1      17.968  50.853  48.941  1.00  0.00     0.035 A 
HETATM   17  C   UNL     1      18.078  52.046  49.658  1.00  0.00     0.029 A 
HETATM   18  C   UNL     1      16.954  52.850  49.877  1.00  0.00     0.002 A 
HETATM   19  C   UNL     1      15.709  52.463  49.388  1.00  0.00     0.000 A 
HETATM   20  C   UNL     1      15.587  51.277  48.671  1.00  0.00     0.002 A 
HETATM   21  C   UNL     1      16.712  50.479  48.443  1.00  0.00     0.029 A 
ENDBRANCH  13  16
ENDBRANCH  10  12
BRANCH   9  22
HETATM   22  C   UNL     1      19.355  46.395  47.342  1.00  0.00    -0.028 A 
HETATM   23  C   UNL     1      19.812  47.032  46.175  1.00  0.00     0.011 A 
HETATM   24  C   UNL     1      19.143  46.863  44.961  1.00  0.00     0.019 A 
HETATM   25  C   UNL     1      18.005  46.062  44.901  1.00  0.00     0.011 A 
HETATM   26 BR   UNL     1      17.100  45.835  43.259  1.00  0.00    -0.051 Br
HETATM   27  C   UNL     1      17.526  45.434  46.047  1.00  0.00     0.019 A 
HETATM   28  C   UNL     1      18.192  45.605  47.263  1.00  0.00     0.011 A 
ENDBRANCH   9  22
BRANCH   7  29
HETATM   29  C   UNL     1      23.001  42.692  49.104  1.00  0.00     0.085 C 
BRANCH  29  30
HETATM   30  C   UNL     1      24.525  42.590  49.145  1.00  0.00     0.034 C 
BRANCH  30  31
HETATM   31  C   UNL     1      25.067  42.220  50.522  1.00  0.00     0.164 C 
BRANCH  31  32
HETATM   32  O   UNL     1      24.224  42.766  51.531  1.00  0.00    -0.401 OA
HETATM   33  H   UNL     1      23.983  43.667  51.257  1.00  0.00     0.209 HD
ENDBRANCH  31  32
ENDBRANCH  30  31
ENDBRANCH  29  30
ENDBRANCH   7  29
TORSDOF 7
ENDMDL
MODEL 7
REMARK VINA RESULT:      -7.1     13.799     16.062
REMARK  7 active torsions:
REMARK  status: ('A' for Active; 'I' for Inactive)
REMARK    1  A    between atoms: C_7  and  C_8 
REMARK    2  A    between atoms: C_8  and  C_9 
REMARK    3  A    between atoms: C_9  and  C_10 
REMARK    4  A    between atoms: C_10  and  O_11 
REMARK    5  A    between atoms: C_13  and  C_14 
REMARK    6  A    between atoms: C_21  and  C_22 
REMARK       I    between atoms: C_22  and  N_23 
REMARK    7  A    between atoms: N_23  and  C_24 
ROOT
HETATM    1  C   UNL     1      33.586  52.005  44.308  1.00  0.00     0.070 C 
HETATM    2  C   UNL     1      34.911  51.878  43.598  1.00  0.00     0.037 C 
HETATM    3  N   UNL     1      36.041  52.038  44.404  1.00  0.00    -0.192 N 
HETATM    4  C   UNL     1      37.272  51.664  43.997  1.00  0.00     0.726 A 
HETATM    5  N   UNL     1      37.478  51.405  42.674  1.00  0.00    -0.083 N 
HETATM    6  N   UNL     1      38.718  50.929  42.444  1.00  0.00    -0.140 NA
HETATM    7  C   UNL     1      39.226  50.957  43.687  1.00  0.00     0.166 A 
HETATM    8  N   UNL     1      38.370  51.415  44.664  1.00  0.00    -0.046 NA
HETATM    9  C   UNL     1      36.446  51.538  41.647  1.00  0.00     0.202 C 
HETATM   10  C   UNL     1      35.054  51.608  42.272  1.00  0.00     0.062 C 
HETATM   11  H   UNL     1      35.876  52.080  45.408  1.00  0.00     0.184 HD
ENDROOT
BRANCH  10  12
HETATM   12  C   UNL     1      33.891  51.136  41.453  1.00  0.00     0.256 C 
HETATM   13  N   UNL     1      33.239  52.125  40.749  1.00  0.00    -0.323 N 
HETATM   14  H   UNL     1      33.488  53.089  40.923  1.00  0.00     0.169 HD
HETATM   15  O   UNL     1      33.641  49.937  41.404  1.00  0.00    -0.267 OA
BRANCH  13  16
HETATM   16  C   UNL     1      32.240  51.954  39.764  1.00  0.00     0.035 A 
HETATM   17  C   UNL     1      32.470  51.424  38.492  1.00  0.00     0.029 A 
HETATM   18  C   UNL     1      31.425  51.317  37.567  1.00  0.00     0.002 A 
HETATM   19  C   UNL     1      30.144  51.748  37.903  1.00  0.00     0.000 A 
HETATM   20  C   UNL     1      29.902  52.277  39.167  1.00  0.00     0.002 A 
HETATM   21  C   UNL     1      30.943  52.372  40.095  1.00  0.00     0.029 A 
ENDBRANCH  13  16
ENDBRANCH  10  12
BRANCH   9  22
HETATM   22  C   UNL     1      36.783  52.747  40.767  1.00  0.00    -0.028 A 
HETATM   23  C   UNL     1      36.767  52.614  39.367  1.00  0.00     0.011 A 
HETATM   24  C   UNL     1      37.072  53.699  38.544  1.00  0.00     0.019 A 
HETATM   25  C   UNL     1      37.403  54.928  39.110  1.00  0.00     0.011 A 
HETATM   26 BR   UNL     1      37.816  56.397  37.995  1.00  0.00    -0.051 Br
HETATM   27  C   UNL     1      37.439  55.079  40.493  1.00  0.00     0.019 A 
HETATM   28  C   UNL     1      37.138  53.993  41.318  1.00  0.00     0.011 A 
ENDBRANCH   9  22
BRANCH   7  29
HETATM   29  C   UNL     1      40.594  50.470  43.994  1.00  0.00     0.085 C 
BRANCH  29  30
HETATM   30  C   UNL     1      40.622  49.413  45.097  1.00  0.00     0.034 C 
BRANCH  30  31
HETATM   31  C   UNL     1      39.903  48.124  44.713  1.00  0.00     0.164 C 
BRANCH  31  32
HETATM   32  O   UNL     1      38.518  48.236  45.027  1.00  0.00    -0.401 OA
HETATM   33  H   UNL     1      38.245  47.405  45.450  1.00  0.00     0.209 HD
ENDBRANCH  31  32
ENDBRANCH  30  31
ENDBRANCH  29  30
ENDBRANCH   7  29
TORSDOF 7
ENDMDL
MODEL 8
REMARK VINA RESULT:      -7.1     12.550     15.578
REMARK  7 active torsions:
REMARK  status: ('A' for Active; 'I' for Inactive)
REMARK    1  A    between atoms: C_7  and  C_8 
REMARK    2  A    between atoms: C_8  and  C_9 
REMARK    3  A    between atoms: C_9  and  C_10 
REMARK    4  A    between atoms: C_10  and  O_11 
REMARK    5  A    between atoms: C_13  and  C_14 
REMARK    6  A    between atoms: C_21  and  C_22 
REMARK       I    between atoms: C_22  and  N_23 
REMARK    7  A    between atoms: N_23  and  C_24 
ROOT
HETATM    1  C   UNL     1      33.512  51.994  44.113  1.00  0.00     0.070 C 
HETATM    2  C   UNL     1      34.833  51.719  43.437  1.00  0.00     0.037 C 
HETATM    3  N   UNL     1      35.968  51.979  44.209  1.00  0.00    -0.192 N 
HETATM    4  C   UNL     1      37.188  51.512  43.871  1.00  0.00     0.726 A 
HETATM    5  N   UNL     1      37.385  51.035  42.608  1.00  0.00    -0.083 N 
HETATM    6  N   UNL     1      38.612  50.497  42.462  1.00  0.00    -0.140 NA
HETATM    7  C   UNL     1      39.122  50.715  43.684  1.00  0.00     0.166 A 
HETATM    8  N   UNL     1      38.281  51.349  44.572  1.00  0.00    -0.046 NA
HETATM    9  C   UNL     1      36.355  51.025  41.571  1.00  0.00     0.202 C 
HETATM   10  C   UNL     1      34.966  51.232  42.173  1.00  0.00     0.062 C 
HETATM   11  H   UNL     1      35.806  52.190  45.191  1.00  0.00     0.184 HD
ENDROOT
BRANCH  10  12
HETATM   12  C   UNL     1      33.790  50.662  41.440  1.00  0.00     0.256 C 
HETATM   13  N   UNL     1      33.252  49.524  42.001  1.00  0.00    -0.323 N 
HETATM   14  H   UNL     1      33.744  49.081  42.765  1.00  0.00     0.169 HD
HETATM   15  O   UNL     1      33.349  51.257  40.463  1.00  0.00    -0.267 OA
BRANCH  13  16
HETATM   16  C   UNL     1      32.046  48.882  41.639  1.00  0.00     0.035 A 
HETATM   17  C   UNL     1      31.910  48.016  40.552  1.00  0.00     0.029 A 
HETATM   18  C   UNL     1      30.669  47.446  40.248  1.00  0.00     0.002 A 
HETATM   19  C   UNL     1      29.551  47.745  41.023  1.00  0.00     0.000 A 
HETATM   20  C   UNL     1      29.674  48.606  42.109  1.00  0.00     0.002 A 
HETATM   21  C   UNL     1      30.916  49.166  42.420  1.00  0.00     0.029 A 
ENDBRANCH  13  16
ENDBRANCH  10  12
BRANCH   9  22
HETATM   22  C   UNL     1      36.720  52.064  40.506  1.00  0.00    -0.028 A 
HETATM   23  C   UNL     1      37.075  51.640  39.213  1.00  0.00     0.011 A 
HETATM   24  C   UNL     1      37.415  52.567  38.226  1.00  0.00     0.019 A 
HETATM   25  C   UNL     1      37.409  53.928  38.521  1.00  0.00     0.011 A 
HETATM   26 BR   UNL     1      37.869  55.182  37.184  1.00  0.00    -0.051 Br
HETATM   27  C   UNL     1      37.074  54.370  39.797  1.00  0.00     0.019 A 
HETATM   28  C   UNL     1      36.739  53.444  40.788  1.00  0.00     0.011 A 
ENDBRANCH   9  22
BRANCH   7  29
HETATM   29  C   UNL     1      40.478  50.250  44.070  1.00  0.00     0.085 C 
BRANCH  29  30
HETATM   30  C   UNL     1      40.459  49.176  45.156  1.00  0.00     0.034 C 
BRANCH  30  31
HETATM   31  C   UNL     1      39.693  47.921  44.749  1.00  0.00     0.164 C 
BRANCH  31  32
HETATM   32  O   UNL     1      38.293  48.185  44.775  1.00  0.00    -0.401 OA
HETATM   33  H   UNL     1      38.140  49.008  44.281  1.00  0.00     0.209 HD
ENDBRANCH  31  32
ENDBRANCH  30  31
ENDBRANCH  29  30
ENDBRANCH   7  29
TORSDOF 7
ENDMDL
MODEL 9
REMARK VINA RESULT:      -7.0     12.065     15.838
REMARK  7 active torsions:
REMARK  status: ('A' for Active; 'I' for Inactive)
REMARK    1  A    between atoms: C_7  and  C_8 
REMARK    2  A    between atoms: C_8  and  C_9 
REMARK    3  A    between atoms: C_9  and  C_10 
REMARK    4  A    between atoms: C_10  and  O_11 
REMARK    5  A    between atoms: C_13  and  C_14 
REMARK    6  A    between atoms: C_21  and  C_22 
REMARK       I    between atoms: C_22  and  N_23 
REMARK    7  A    between atoms: N_23  and  C_24 
ROOT
HETATM    1  C   UNL     1      15.208  52.142  44.498  1.00  0.00     0.070 C 
HETATM    2  C   UNL     1      15.396  52.096  45.994  1.00  0.00     0.037 C 
HETATM    3  N   UNL     1      15.108  53.283  46.672  1.00  0.00    -0.192 N 
HETATM    4  C   UNL     1      14.936  53.323  48.010  1.00  0.00     0.726 A 
HETATM    5  N   UNL     1      15.342  52.257  48.759  1.00  0.00    -0.083 N 
HETATM    6  N   UNL     1      14.996  52.394  50.054  1.00  0.00    -0.140 NA
HETATM    7  C   UNL     1      14.403  53.598  50.023  1.00  0.00     0.166 A 
HETATM    8  N   UNL     1      14.360  54.204  48.787  1.00  0.00    -0.046 NA
HETATM    9  C   UNL     1      15.990  51.070  48.202  1.00  0.00     0.202 C 
HETATM   10  C   UNL     1      15.795  50.996  46.689  1.00  0.00     0.062 C 
HETATM   11  H   UNL     1      14.666  54.019  46.125  1.00  0.00     0.184 HD
ENDROOT
BRANCH  10  12
HETATM   12  C   UNL     1      15.817  49.644  46.042  1.00  0.00     0.256 C 
HETATM   13  N   UNL     1      14.590  49.022  45.957  1.00  0.00    -0.323 N 
HETATM   14  H   UNL     1      13.802  49.436  46.435  1.00  0.00     0.169 HD
HETATM   15  O   UNL     1      16.871  49.217  45.584  1.00  0.00    -0.267 OA
BRANCH  13  16
HETATM   16  C   UNL     1      14.280  47.841  45.244  1.00  0.00     0.035 A 
HETATM   17  C   UNL     1      15.219  47.059  44.570  1.00  0.00     0.029 A 
HETATM   18  C   UNL     1      14.819  45.919  43.864  1.00  0.00     0.002 A 
HETATM   19  C   UNL     1      13.475  45.557  43.819  1.00  0.00     0.000 A 
HETATM   20  C   UNL     1      12.530  46.328  44.488  1.00  0.00     0.002 A 
HETATM   21  C   UNL     1      12.931  47.460  45.203  1.00  0.00     0.029 A 
ENDBRANCH  13  16
ENDBRANCH  10  12
BRANCH   9  22
HETATM   22  C   UNL     1      17.461  51.067  48.630  1.00  0.00    -0.028 A 
HETATM   23  C   UNL     1      17.925  50.080  49.517  1.00  0.00     0.011 A 
HETATM   24  C   UNL     1      19.261  50.057  49.924  1.00  0.00     0.019 A 
HETATM   25  C   UNL     1      20.146  51.025  49.455  1.00  0.00     0.011 A 
HETATM   26 BR   UNL     1      21.952  50.993  50.006  1.00  0.00    -0.051 Br
HETATM   27  C   UNL     1      19.705  52.020  48.587  1.00  0.00     0.019 A 
HETATM   28  C   UNL     1      18.368  52.047  48.183  1.00  0.00     0.011 A 
ENDBRANCH   9  22
BRANCH   7  29
HETATM   29  C   UNL     1      13.783  54.206  51.227  1.00  0.00     0.085 C 
BRANCH  29  30
HETATM   30  C   UNL     1      14.761  55.046  52.047  1.00  0.00     0.034 C 
BRANCH  30  31
HETATM   31  C   UNL     1      14.075  55.904  53.106  1.00  0.00     0.164 C 
BRANCH  31  32
HETATM   32  O   UNL     1      13.199  55.095  53.885  1.00  0.00    -0.401 OA
HETATM   33  H   UNL     1      13.627  54.944  54.744  1.00  0.00     0.209 HD
ENDBRANCH  31  32
ENDBRANCH  30  31
ENDBRANCH  29  30
ENDBRANCH   7  29
TORSDOF 7
ENDMDL
MODEL 10
REMARK VINA RESULT:      -6.9      2.927      5.954
REMARK  7 active torsions:
REMARK  status: ('A' for Active; 'I' for Inactive)
REMARK    1  A    between atoms: C_7  and  C_8 
REMARK    2  A    between atoms: C_8  and  C_9 
REMARK    3  A    between atoms: C_9  and  C_10 
REMARK    4  A    between atoms: C_10  and  O_11 
REMARK    5  A    between atoms: C_13  and  C_14 
REMARK    6  A    between atoms: C_21  and  C_22 
REMARK       I    between atoms: C_22  and  N_23 
REMARK    7  A    between atoms: N_23  and  C_24 
ROOT
HETATM    1  C   UNL     1      30.630  42.601  53.296  1.00  0.00     0.070 C 
HETATM    2  C   UNL     1      29.299  42.476  52.596  1.00  0.00     0.037 C 
HETATM    3  N   UNL     1      29.306  41.711  51.427  1.00  0.00    -0.192 N 
HETATM    4  C   UNL     1      28.169  41.259  50.859  1.00  0.00     0.726 A 
HETATM    5  N   UNL     1      26.978  41.799  51.247  1.00  0.00    -0.083 N 
HETATM    6  N   UNL     1      25.933  41.164  50.680  1.00  0.00    -0.140 NA
HETATM    7  C   UNL     1      26.574  40.258  49.927  1.00  0.00     0.166 A 
HETATM    8  N   UNL     1      27.949  40.296  50.000  1.00  0.00    -0.046 NA
HETATM    9  C   UNL     1      26.853  42.874  52.229  1.00  0.00     0.202 C 
HETATM   10  C   UNL     1      28.139  43.032  53.038  1.00  0.00     0.062 C 
HETATM   11  H   UNL     1      30.161  41.194  51.232  1.00  0.00     0.184 HD
ENDROOT
BRANCH  10  12
HETATM   12  C   UNL     1      28.033  43.593  54.424  1.00  0.00     0.256 C 
HETATM   13  N   UNL     1      29.210  44.090  54.940  1.00  0.00    -0.323 N 
HETATM   14  H   UNL     1      30.068  43.933  54.429  1.00  0.00     0.169 HD
HETATM   15  O   UNL     1      26.936  43.638  54.969  1.00  0.00    -0.267 OA
BRANCH  13  16
HETATM   16  C   UNL     1      29.373  44.836  56.130  1.00  0.00     0.035 A 
HETATM   17  C   UNL     1      28.508  45.848  56.550  1.00  0.00     0.029 A 
HETATM   18  C   UNL     1      28.762  46.556  57.730  1.00  0.00     0.002 A 
HETATM   19  C   UNL     1      29.888  46.264  58.495  1.00  0.00     0.000 A 
HETATM   20  C   UNL     1      30.757  45.257  58.087  1.00  0.00     0.002 A 
HETATM   21  C   UNL     1      30.498  44.542  56.915  1.00  0.00     0.029 A 
ENDBRANCH  13  16
ENDBRANCH  10  12
BRANCH   9  22
HETATM   22  C   UNL     1      26.424  44.154  51.505  1.00  0.00    -0.028 A 
HETATM   23  C   UNL     1      25.300  44.866  51.958  1.00  0.00     0.011 A 
HETATM   24  C   UNL     1      24.887  46.035  51.314  1.00  0.00     0.019 A 
HETATM   25  C   UNL     1      25.591  46.501  50.205  1.00  0.00     0.011 A 
HETATM   26 BR   UNL     1      25.033  48.081  49.334  1.00  0.00    -0.051 Br
HETATM   27  C   UNL     1      26.699  45.804  49.731  1.00  0.00     0.019 A 
HETATM   28  C   UNL     1      27.109  44.633  50.372  1.00  0.00     0.011 A 
ENDBRANCH   9  22
BRANCH   7  29
HETATM   29  C   UNL     1      25.851  39.247  49.117  1.00  0.00     0.085 C 
BRANCH  29  30
HETATM   30  C   UNL     1      26.418  37.836  49.270  1.00  0.00     0.034 C 
BRANCH  30  31
HETATM   31  C   UNL     1      27.334  37.428  48.120  1.00  0.00     0.164 C 
BRANCH  31  32
HETATM   32  O   UNL     1      28.690  37.454  48.556  1.00  0.00    -0.401 OA
HETATM   33  H   UNL     1      28.837  38.302  49.007  1.00  0.00     0.209 HD
ENDBRANCH  31  32
ENDBRANCH  30  31
ENDBRANCH  29  30
ENDBRANCH   7  29
TORSDOF 7
ENDMDL
