MODEL 1
REMARK VINA RESULT:      -8.1      0.000      0.000
REMARK  8 active torsions:
REMARK  status: ('A' for Active; 'I' for Inactive)
REMARK    1  A    between atoms: C_5  and  C_6 
REMARK       I    between atoms: C_6  and  N_7 
REMARK    2  A    between atoms: N_7  and  N_8 
REMARK       I    between atoms: N_8  and  C_9 
REMARK    3  A    between atoms: C_9  and  C_10 
REMARK    4  A    between atoms: C_10  and  C_11 
REMARK    5  A    between atoms: C_11  and  N_12 
REMARK    6  A    between atoms: N_12  and  C_13 
REMARK    7  A    between atoms: C_14  and  N_15 
REMARK    8  A    between atoms: C_19  and  C_20 
ROOT
HETATM    1  C   UNL     1      25.944  44.726  53.303  1.00  0.00     0.102 C 
ENDROOT
BRANCH   1   2
HETATM    2  C   UNL     1      25.400  44.097  52.028  1.00  0.00     0.119 C 
BRANCH   2   3
HETATM    3  C   UNL     1      26.485  43.254  51.414  1.00  0.00     0.237 C 
HETATM    4  N   UNL     1      26.643  42.015  51.995  1.00  0.00    -0.267 N 
HETATM    5  H   UNL     1      26.015  41.616  52.693  1.00  0.00     0.190 HD
HETATM    6  O   UNL     1      27.218  43.665  50.517  1.00  0.00    -0.272 OA
BRANCH   4   7
HETATM    7  N   UNL     1      27.657  41.184  51.515  1.00  0.00    -0.262 N 
HETATM    8  C   UNL     1      27.345  40.198  50.605  1.00  0.00     0.286 C 
HETATM    9  O   UNL     1      26.197  40.048  50.185  1.00  0.00    -0.264 OA
HETATM   10  H   UNL     1      28.595  41.346  51.873  1.00  0.00     0.190 HD
BRANCH   8  11
HETATM   11  C   UNL     1      28.447  39.363  50.185  1.00  0.00     0.102 A 
HETATM   12  N   UNL     1      29.326  38.819  51.100  1.00  0.00    -0.361 N 
HETATM   13  C   UNL     1      30.280  38.076  50.461  1.00  0.00     0.088 A 
HETATM   14  H   UNL     1      29.255  38.965  52.101  1.00  0.00     0.165 HD
HETATM   15  C   UNL     1      30.025  38.134  49.112  1.00  0.00     0.019 A 
HETATM   16  C   UNL     1      28.873  38.941  48.935  1.00  0.00     0.036 A 
ENDBRANCH   8  11
ENDBRANCH   4   7
ENDBRANCH   2   3
ENDBRANCH   1   2
BRANCH   1  17
HETATM   17  N   UNL     1      27.357  45.067  53.133  1.00  0.00    -0.290 NA
HETATM   18  H   UNL     1      27.496  45.857  52.491  1.00  0.00     0.127 HD
BRANCH  17  19
HETATM   19  C   UNL     1      28.194  45.176  54.258  1.00  0.00     0.041 A 
HETATM   20  C   UNL     1      29.154  44.189  54.586  1.00  0.00     0.124 A 
HETATM   21  C   UNL     1      29.927  44.253  55.764  1.00  0.00     0.054 A 
HETATM   22  C   UNL     1      29.743  45.302  56.672  1.00  0.00     0.050 A 
HETATM   23  C   UNL     1      28.774  46.268  56.382  1.00  0.00     0.018 A 
HETATM   24  C   UNL     1      28.009  46.195  55.208  1.00  0.00     0.027 A 
BRANCH  20  25
HETATM   25  N   UNL     1      29.404  43.058  53.685  1.00  0.00    -0.114 N 
HETATM   26  O   UNL     1      29.073  41.925  54.071  1.00  0.00    -0.532 OA
HETATM   27  O   UNL     1      29.906  43.307  52.580  1.00  0.00    -0.532 OA
ENDBRANCH  20  25
BRANCH  22  28
HETATM   28  C   UNL     1      30.555  45.402  57.942  1.00  0.00     0.417 C 
HETATM   29  F   UNL     1      29.849  45.089  59.062  1.00  0.00    -0.166 F 
HETATM   30  F   UNL     1      31.630  44.567  57.931  1.00  0.00    -0.166 F 
HETATM   31  F   UNL     1      31.050  46.653  58.145  1.00  0.00    -0.166 F 
ENDBRANCH  22  28
ENDBRANCH  17  19
ENDBRANCH   1  17
TORSDOF 8
ENDMDL
MODEL 2
REMARK VINA RESULT:      -8.1      3.274      5.924
REMARK  8 active torsions:
REMARK  status: ('A' for Active; 'I' for Inactive)
REMARK    1  A    between atoms: C_5  and  C_6 
REMARK       I    between atoms: C_6  and  N_7 
REMARK    2  A    between atoms: N_7  and  N_8 
REMARK       I    between atoms: N_8  and  C_9 
REMARK    3  A    between atoms: C_9  and  C_10 
REMARK    4  A    between atoms: C_10  and  C_11 
REMARK    5  A    between atoms: C_11  and  N_12 
REMARK    6  A    between atoms: N_12  and  C_13 
REMARK    7  A    between atoms: C_14  and  N_15 
REMARK    8  A    between atoms: C_19  and  C_20 
ROOT
HETATM    1  C   UNL     1      27.588  42.926  52.609  1.00  0.00     0.102 C 
ENDROOT
BRANCH   1   2
HETATM    2  C   UNL     1      27.105  42.889  51.166  1.00  0.00     0.119 C 
BRANCH   2   3
HETATM    3  C   UNL     1      26.859  44.303  50.710  1.00  0.00     0.237 C 
HETATM    4  N   UNL     1      25.731  44.886  51.244  1.00  0.00    -0.267 N 
HETATM    5  H   UNL     1      25.161  44.478  51.985  1.00  0.00     0.190 HD
HETATM    6  O   UNL     1      27.566  44.863  49.875  1.00  0.00    -0.272 OA
BRANCH   4   7
HETATM    7  N   UNL     1      25.404  46.182  50.842  1.00  0.00    -0.262 N 
HETATM    8  C   UNL     1      24.340  46.373  49.987  1.00  0.00     0.286 C 
HETATM    9  O   UNL     1      23.654  45.430  49.591  1.00  0.00    -0.264 OA
HETATM   10  H   UNL     1      25.983  46.937  51.200  1.00  0.00     0.190 HD
BRANCH   8  11
HETATM   11  C   UNL     1      24.091  47.741  49.595  1.00  0.00     0.102 A 
HETATM   12  N   UNL     1      22.830  48.297  49.687  1.00  0.00    -0.361 N 
HETATM   13  C   UNL     1      22.849  49.594  49.255  1.00  0.00     0.088 A 
HETATM   14  H   UNL     1      22.019  47.795  50.030  1.00  0.00     0.165 HD
HETATM   15  C   UNL     1      24.135  49.892  48.873  1.00  0.00     0.019 A 
HETATM   16  C   UNL     1      24.918  48.731  49.086  1.00  0.00     0.036 A 
ENDBRANCH   8  11
ENDBRANCH   4   7
ENDBRANCH   2   3
ENDBRANCH   1   2
BRANCH   1  17
HETATM   17  N   UNL     1      28.226  44.213  52.893  1.00  0.00    -0.290 NA
HETATM   18  H   UNL     1      27.670  45.009  52.559  1.00  0.00     0.127 HD
BRANCH  17  19
HETATM   19  C   UNL     1      28.757  44.468  54.170  1.00  0.00     0.041 A 
HETATM   20  C   UNL     1      28.429  45.631  54.908  1.00  0.00     0.124 A 
HETATM   21  C   UNL     1      29.034  45.931  56.146  1.00  0.00     0.054 A 
HETATM   22  C   UNL     1      30.013  45.084  56.678  1.00  0.00     0.050 A 
HETATM   23  C   UNL     1      30.375  43.948  55.945  1.00  0.00     0.018 A 
HETATM   24  C   UNL     1      29.769  43.658  54.713  1.00  0.00     0.027 A 
BRANCH  20  25
HETATM   25  N   UNL     1      27.414  46.568  54.417  1.00  0.00    -0.114 N 
HETATM   26  O   UNL     1      26.396  46.096  53.884  1.00  0.00    -0.532 OA
HETATM   27  O   UNL     1      27.621  47.778  54.589  1.00  0.00    -0.532 OA
ENDBRANCH  20  25
BRANCH  22  28
HETATM   28  C   UNL     1      30.678  45.375  58.001  1.00  0.00     0.417 C 
HETATM   29  F   UNL     1      31.794  44.628  58.222  1.00  0.00    -0.166 F 
HETATM   30  F   UNL     1      31.070  46.675  58.105  1.00  0.00    -0.166 F 
HETATM   31  F   UNL     1      29.855  45.144  59.060  1.00  0.00    -0.166 F 
ENDBRANCH  22  28
ENDBRANCH  17  19
ENDBRANCH   1  17
TORSDOF 8
ENDMDL
MODEL 3
REMARK VINA RESULT:      -8.1      4.273      6.983
REMARK  8 active torsions:
REMARK  status: ('A' for Active; 'I' for Inactive)
REMARK    1  A    between atoms: C_5  and  C_6 
REMARK       I    between atoms: C_6  and  N_7 
REMARK    2  A    between atoms: N_7  and  N_8 
REMARK       I    between atoms: N_8  and  C_9 
REMARK    3  A    between atoms: C_9  and  C_10 
REMARK    4  A    between atoms: C_10  and  C_11 
REMARK    5  A    between atoms: C_11  and  N_12 
REMARK    6  A    between atoms: N_12  and  C_13 
REMARK    7  A    between atoms: C_14  and  N_15 
REMARK    8  A    between atoms: C_19  and  C_20 
ROOT
HETATM    1  C   UNL     1      25.927  43.430  51.439  1.00  0.00     0.102 C 
ENDROOT
BRANCH   1   2
HETATM    2  C   UNL     1      25.574  43.739  49.990  1.00  0.00     0.119 C 
BRANCH   2   3
HETATM    3  C   UNL     1      25.405  45.229  49.850  1.00  0.00     0.237 C 
HETATM    4  N   UNL     1      24.155  45.695  50.192  1.00  0.00    -0.267 N 
HETATM    5  H   UNL     1      23.425  45.134  50.630  1.00  0.00     0.190 HD
HETATM    6  O   UNL     1      26.286  45.957  49.398  1.00  0.00    -0.272 OA
BRANCH   4   7
HETATM    7  N   UNL     1      23.898  47.060  50.050  1.00  0.00    -0.262 N 
HETATM    8  C   UNL     1      23.133  47.494  48.989  1.00  0.00     0.286 C 
HETATM    9  O   UNL     1      22.649  46.704  48.178  1.00  0.00    -0.264 OA
HETATM   10  H   UNL     1      24.301  47.681  50.746  1.00  0.00     0.190 HD
BRANCH   8  11
HETATM   11  C   UNL     1      22.943  48.923  48.898  1.00  0.00     0.102 A 
HETATM   12  N   UNL     1      22.109  49.594  49.771  1.00  0.00    -0.361 N 
HETATM   13  C   UNL     1      22.092  50.931  49.480  1.00  0.00     0.088 A 
HETATM   14  H   UNL     1      21.591  49.139  50.514  1.00  0.00     0.165 HD
HETATM   15  C   UNL     1      22.923  51.139  48.405  1.00  0.00     0.019 A 
HETATM   16  C   UNL     1      23.460  49.880  48.038  1.00  0.00     0.036 A 
ENDBRANCH   8  11
ENDBRANCH   4   7
ENDBRANCH   2   3
ENDBRANCH   1   2
BRANCH   1  17
HETATM   17  N   UNL     1      25.900  44.658  52.237  1.00  0.00    -0.290 NA
HETATM   18  H   UNL     1      24.950  44.913  52.532  1.00  0.00     0.127 HD
BRANCH  17  19
HETATM   19  C   UNL     1      26.820  44.835  53.285  1.00  0.00     0.041 A 
HETATM   20  C   UNL     1      26.973  46.072  53.958  1.00  0.00     0.124 A 
HETATM   21  C   UNL     1      27.960  46.274  54.944  1.00  0.00     0.054 A 
HETATM   22  C   UNL     1      28.852  45.247  55.272  1.00  0.00     0.050 A 
HETATM   23  C   UNL     1      28.739  44.029  54.593  1.00  0.00     0.018 A 
HETATM   24  C   UNL     1      27.754  43.837  53.612  1.00  0.00     0.027 A 
BRANCH  20  25
HETATM   25  N   UNL     1      26.078  47.197  53.668  1.00  0.00    -0.114 N 
HETATM   26  O   UNL     1      25.819  47.442  52.478  1.00  0.00    -0.532 OA
HETATM   27  O   UNL     1      25.611  47.820  54.632  1.00  0.00    -0.532 OA
ENDBRANCH  20  25
BRANCH  22  28
HETATM   28  C   UNL     1      29.919  45.430  56.325  1.00  0.00     0.417 C 
HETATM   29  F   UNL     1      30.917  46.272  55.943  1.00  0.00    -0.166 F 
HETATM   30  F   UNL     1      29.417  45.943  57.482  1.00  0.00    -0.166 F 
HETATM   31  F   UNL     1      30.523  44.259  56.663  1.00  0.00    -0.166 F 
ENDBRANCH  22  28
ENDBRANCH  17  19
ENDBRANCH   1  17
TORSDOF 8
ENDMDL
MODEL 4
REMARK VINA RESULT:      -8.1      1.824      2.366
REMARK  8 active torsions:
REMARK  status: ('A' for Active; 'I' for Inactive)
REMARK    1  A    between atoms: C_5  and  C_6 
REMARK       I    between atoms: C_6  and  N_7 
REMARK    2  A    between atoms: N_7  and  N_8 
REMARK       I    between atoms: N_8  and  C_9 
REMARK    3  A    between atoms: C_9  and  C_10 
REMARK    4  A    between atoms: C_10  and  C_11 
REMARK    5  A    between atoms: C_11  and  N_12 
REMARK    6  A    between atoms: N_12  and  C_13 
REMARK    7  A    between atoms: C_14  and  N_15 
REMARK    8  A    between atoms: C_19  and  C_20 
ROOT
HETATM    1  C   UNL     1      26.159  44.811  53.412  1.00  0.00     0.102 C 
ENDROOT
BRANCH   1   2
HETATM    2  C   UNL     1      25.599  44.308  52.089  1.00  0.00     0.119 C 
BRANCH   2   3
HETATM    3  C   UNL     1      26.633  43.425  51.441  1.00  0.00     0.237 C 
HETATM    4  N   UNL     1      26.756  42.178  52.013  1.00  0.00    -0.267 N 
HETATM    5  H   UNL     1      26.133  41.801  52.725  1.00  0.00     0.190 HD
HETATM    6  O   UNL     1      27.357  43.812  50.526  1.00  0.00    -0.272 OA
BRANCH   4   7
HETATM    7  N   UNL     1      27.723  41.310  51.501  1.00  0.00    -0.262 N 
HETATM    8  C   UNL     1      27.333  40.290  50.660  1.00  0.00     0.286 C 
HETATM    9  O   UNL     1      26.157  40.141  50.329  1.00  0.00    -0.264 OA
HETATM   10  H   UNL     1      28.686  41.472  51.785  1.00  0.00     0.190 HD
BRANCH   8  11
HETATM   11  C   UNL     1      28.392  39.419  50.203  1.00  0.00     0.102 A 
HETATM   12  N   UNL     1      29.119  38.646  51.086  1.00  0.00    -0.361 N 
HETATM   13  C   UNL     1      30.061  37.916  50.415  1.00  0.00     0.088 A 
HETATM   14  H   UNL     1      28.960  38.638  52.087  1.00  0.00     0.165 HD
HETATM   15  C   UNL     1      29.952  38.213  49.078  1.00  0.00     0.019 A 
HETATM   16  C   UNL     1      28.903  39.157  48.941  1.00  0.00     0.036 A 
ENDBRANCH   8  11
ENDBRANCH   4   7
ENDBRANCH   2   3
ENDBRANCH   1   2
BRANCH   1  17
HETATM   17  N   UNL     1      27.580  45.131  53.269  1.00  0.00    -0.290 NA
HETATM   18  H   UNL     1      27.736  46.105  52.979  1.00  0.00     0.127 HD
BRANCH  17  19
HETATM   19  C   UNL     1      28.491  44.750  54.270  1.00  0.00     0.041 A 
HETATM   20  C   UNL     1      28.856  45.614  55.330  1.00  0.00     0.124 A 
HETATM   21  C   UNL     1      29.839  45.266  56.279  1.00  0.00     0.054 A 
HETATM   22  C   UNL     1      30.514  44.044  56.182  1.00  0.00     0.050 A 
HETATM   23  C   UNL     1      30.192  43.192  55.120  1.00  0.00     0.018 A 
HETATM   24  C   UNL     1      29.213  43.547  54.179  1.00  0.00     0.027 A 
BRANCH  20  25
HETATM   25  N   UNL     1      28.196  46.913  55.499  1.00  0.00    -0.114 N 
HETATM   26  O   UNL     1      27.626  47.139  56.579  1.00  0.00    -0.532 OA
HETATM   27  O   UNL     1      28.272  47.719  54.561  1.00  0.00    -0.532 OA
ENDBRANCH  20  25
BRANCH  22  28
HETATM   28  C   UNL     1      31.570  43.640  57.182  1.00  0.00     0.417 C 
HETATM   29  F   UNL     1      32.830  43.635  56.668  1.00  0.00    -0.166 F 
HETATM   30  F   UNL     1      31.607  44.475  58.257  1.00  0.00    -0.166 F 
HETATM   31  F   UNL     1      31.363  42.391  57.682  1.00  0.00    -0.166 F 
ENDBRANCH  22  28
ENDBRANCH  17  19
ENDBRANCH   1  17
TORSDOF 8
ENDMDL
MODEL 5
REMARK VINA RESULT:      -8.0      3.957      6.540
REMARK  8 active torsions:
REMARK  status: ('A' for Active; 'I' for Inactive)
REMARK    1  A    between atoms: C_5  and  C_6 
REMARK       I    between atoms: C_6  and  N_7 
REMARK    2  A    between atoms: N_7  and  N_8 
REMARK       I    between atoms: N_8  and  C_9 
REMARK    3  A    between atoms: C_9  and  C_10 
REMARK    4  A    between atoms: C_10  and  C_11 
REMARK    5  A    between atoms: C_11  and  N_12 
REMARK    6  A    between atoms: N_12  and  C_13 
REMARK    7  A    between atoms: C_14  and  N_15 
REMARK    8  A    between atoms: C_19  and  C_20 
ROOT
HETATM    1  C   UNL     1      26.122  44.725  53.407  1.00  0.00     0.102 C 
ENDROOT
BRANCH   1   2
HETATM    2  C   UNL     1      25.672  43.808  52.277  1.00  0.00     0.119 C 
BRANCH   2   3
HETATM    3  C   UNL     1      24.663  44.548  51.439  1.00  0.00     0.237 C 
HETATM    4  N   UNL     1      24.993  45.860  51.177  1.00  0.00    -0.267 N 
HETATM    5  H   UNL     1      25.890  46.289  51.401  1.00  0.00     0.190 HD
HETATM    6  O   UNL     1      23.601  44.045  51.081  1.00  0.00    -0.272 OA
BRANCH   4   7
HETATM    7  N   UNL     1      24.092  46.633  50.442  1.00  0.00    -0.262 N 
HETATM    8  C   UNL     1      24.510  47.836  49.917  1.00  0.00     0.286 C 
HETATM    9  O   UNL     1      25.666  48.234  50.058  1.00  0.00    -0.264 OA
HETATM   10  H   UNL     1      23.150  46.266  50.333  1.00  0.00     0.190 HD
BRANCH   8  11
HETATM   11  C   UNL     1      23.506  48.587  49.198  1.00  0.00     0.102 A 
HETATM   12  N   UNL     1      22.159  48.391  49.429  1.00  0.00    -0.361 N 
HETATM   13  C   UNL     1      21.414  49.211  48.628  1.00  0.00     0.088 A 
HETATM   14  H   UNL     1      21.797  47.726  50.103  1.00  0.00     0.165 HD
HETATM   15  C   UNL     1      22.281  49.952  47.861  1.00  0.00     0.019 A 
HETATM   16  C   UNL     1      23.597  49.564  48.218  1.00  0.00     0.036 A 
ENDBRANCH   8  11
ENDBRANCH   4   7
ENDBRANCH   2   3
ENDBRANCH   1   2
BRANCH   1  17
HETATM   17  N   UNL     1      27.538  45.062  53.248  1.00  0.00    -0.290 NA
HETATM   18  H   UNL     1      27.679  46.036  52.956  1.00  0.00     0.127 HD
BRANCH  17  19
HETATM   19  C   UNL     1      28.464  44.692  54.240  1.00  0.00     0.041 A 
HETATM   20  C   UNL     1      28.865  45.578  55.269  1.00  0.00     0.124 A 
HETATM   21  C   UNL     1      29.862  45.239  56.206  1.00  0.00     0.054 A 
HETATM   22  C   UNL     1      30.516  44.004  56.127  1.00  0.00     0.050 A 
HETATM   23  C   UNL     1      30.158  43.130  55.095  1.00  0.00     0.018 A 
HETATM   24  C   UNL     1      29.164  43.476  54.166  1.00  0.00     0.027 A 
BRANCH  20  25
HETATM   25  N   UNL     1      28.229  46.891  55.417  1.00  0.00    -0.114 N 
HETATM   26  O   UNL     1      27.619  47.126  56.473  1.00  0.00    -0.532 OA
HETATM   27  O   UNL     1      28.363  47.700  54.487  1.00  0.00    -0.532 OA
ENDBRANCH  20  25
BRANCH  22  28
HETATM   28  C   UNL     1      31.586  43.609  57.116  1.00  0.00     0.417 C 
HETATM   29  F   UNL     1      31.429  42.352  57.611  1.00  0.00    -0.166 F 
HETATM   30  F   UNL     1      32.831  43.643  56.565  1.00  0.00    -0.166 F 
HETATM   31  F   UNL     1      31.629  44.437  58.195  1.00  0.00    -0.166 F 
ENDBRANCH  22  28
ENDBRANCH  17  19
ENDBRANCH   1  17
TORSDOF 8
ENDMDL
MODEL 6
REMARK VINA RESULT:      -7.9      3.590      6.271
REMARK  8 active torsions:
REMARK  status: ('A' for Active; 'I' for Inactive)
REMARK    1  A    between atoms: C_5  and  C_6 
REMARK       I    between atoms: C_6  and  N_7 
REMARK    2  A    between atoms: N_7  and  N_8 
REMARK       I    between atoms: N_8  and  C_9 
REMARK    3  A    between atoms: C_9  and  C_10 
REMARK    4  A    between atoms: C_10  and  C_11 
REMARK    5  A    between atoms: C_11  and  N_12 
REMARK    6  A    between atoms: N_12  and  C_13 
REMARK    7  A    between atoms: C_14  and  N_15 
REMARK    8  A    between atoms: C_19  and  C_20 
ROOT
HETATM    1  C   UNL     1      26.097  44.371  53.356  1.00  0.00     0.102 C 
ENDROOT
BRANCH   1   2
HETATM    2  C   UNL     1      25.549  43.677  52.116  1.00  0.00     0.119 C 
BRANCH   2   3
HETATM    3  C   UNL     1      24.646  44.639  51.392  1.00  0.00     0.237 C 
HETATM    4  N   UNL     1      25.172  45.902  51.231  1.00  0.00    -0.267 N 
HETATM    5  H   UNL     1      26.132  46.164  51.449  1.00  0.00     0.190 HD
HETATM    6  O   UNL     1      23.506  44.343  51.041  1.00  0.00    -0.272 OA
BRANCH   4   7
HETATM    7  N   UNL     1      24.383  46.871  50.608  1.00  0.00    -0.262 N 
HETATM    8  C   UNL     1      24.980  47.788  49.770  1.00  0.00     0.286 C 
HETATM    9  O   UNL     1      26.188  47.758  49.538  1.00  0.00    -0.264 OA
HETATM   10  H   UNL     1      23.387  46.857  50.811  1.00  0.00     0.190 HD
BRANCH   8  11
HETATM   11  C   UNL     1      24.096  48.775  49.193  1.00  0.00     0.102 A 
HETATM   12  N   UNL     1      22.778  48.879  49.589  1.00  0.00    -0.361 N 
HETATM   13  C   UNL     1      22.150  49.878  48.897  1.00  0.00     0.088 A 
HETATM   14  H   UNL     1      22.355  48.286  50.294  1.00  0.00     0.165 HD
HETATM   15  C   UNL     1      23.066  50.435  48.037  1.00  0.00     0.019 A 
HETATM   16  C   UNL     1      24.290  49.745  48.221  1.00  0.00     0.036 A 
ENDBRANCH   8  11
ENDBRANCH   4   7
ENDBRANCH   2   3
ENDBRANCH   1   2
BRANCH   1  17
HETATM   17  N   UNL     1      27.462  44.839  53.109  1.00  0.00    -0.290 NA
HETATM   18  H   UNL     1      27.493  45.825  52.821  1.00  0.00     0.127 HD
BRANCH  17  19
HETATM   19  C   UNL     1      28.482  44.551  54.033  1.00  0.00     0.041 A 
HETATM   20  C   UNL     1      29.087  43.274  54.118  1.00  0.00     0.124 A 
HETATM   21  C   UNL     1      30.042  42.959  55.107  1.00  0.00     0.054 A 
HETATM   22  C   UNL     1      30.405  43.910  56.067  1.00  0.00     0.050 A 
HETATM   23  C   UNL     1      29.791  45.166  56.021  1.00  0.00     0.018 A 
HETATM   24  C   UNL     1      28.840  45.470  55.034  1.00  0.00     0.027 A 
BRANCH  20  25
HETATM   25  N   UNL     1      28.758  42.223  53.149  1.00  0.00    -0.114 N 
HETATM   26  O   UNL     1      28.219  41.188  53.576  1.00  0.00    -0.532 OA
HETATM   27  O   UNL     1      29.013  42.444  51.957  1.00  0.00    -0.532 OA
ENDBRANCH  20  25
BRANCH  22  28
HETATM   28  C   UNL     1      31.426  43.606  57.137  1.00  0.00     0.417 C 
HETATM   29  F   UNL     1      32.711  43.689  56.699  1.00  0.00    -0.166 F 
HETATM   30  F   UNL     1      31.333  44.461  58.193  1.00  0.00    -0.166 F 
HETATM   31  F   UNL     1      31.283  42.355  57.652  1.00  0.00    -0.166 F 
ENDBRANCH  22  28
ENDBRANCH  17  19
ENDBRANCH   1  17
TORSDOF 8
ENDMDL
MODEL 7
REMARK VINA RESULT:      -7.9      1.816      2.160
REMARK  8 active torsions:
REMARK  status: ('A' for Active; 'I' for Inactive)
REMARK    1  A    between atoms: C_5  and  C_6 
REMARK       I    between atoms: C_6  and  N_7 
REMARK    2  A    between atoms: N_7  and  N_8 
REMARK       I    between atoms: N_8  and  C_9 
REMARK    3  A    between atoms: C_9  and  C_10 
REMARK    4  A    between atoms: C_10  and  C_11 
REMARK    5  A    between atoms: C_11  and  N_12 
REMARK    6  A    between atoms: N_12  and  C_13 
REMARK    7  A    between atoms: C_14  and  N_15 
REMARK    8  A    between atoms: C_19  and  C_20 
ROOT
HETATM    1  C   UNL     1      26.030  44.436  53.462  1.00  0.00     0.102 C 
ENDROOT
BRANCH   1   2
HETATM    2  C   UNL     1      25.150  44.526  52.223  1.00  0.00     0.119 C 
BRANCH   2   3
HETATM    3  C   UNL     1      25.015  43.146  51.635  1.00  0.00     0.237 C 
HETATM    4  N   UNL     1      26.161  42.386  51.698  1.00  0.00    -0.267 N 
HETATM    5  H   UNL     1      27.006  42.648  52.206  1.00  0.00     0.190 HD
HETATM    6  O   UNL     1      23.989  42.759  51.080  1.00  0.00    -0.272 OA
BRANCH   4   7
HETATM    7  N   UNL     1      26.137  41.108  51.136  1.00  0.00    -0.262 N 
HETATM    8  C   UNL     1      26.680  40.912  49.885  1.00  0.00     0.286 C 
HETATM    9  O   UNL     1      27.209  41.832  49.261  1.00  0.00    -0.264 OA
HETATM   10  H   UNL     1      25.705  40.370  51.686  1.00  0.00     0.190 HD
BRANCH   8  11
HETATM   11  C   UNL     1      26.584  39.567  49.365  1.00  0.00     0.102 A 
HETATM   12  N   UNL     1      26.498  38.476  50.206  1.00  0.00    -0.361 N 
HETATM   13  C   UNL     1      26.422  37.319  49.480  1.00  0.00     0.088 A 
HETATM   14  H   UNL     1      26.494  38.546  51.218  1.00  0.00     0.165 HD
HETATM   15  C   UNL     1      26.460  37.655  48.148  1.00  0.00     0.019 A 
HETATM   16  C   UNL     1      26.561  39.067  48.072  1.00  0.00     0.036 A 
ENDBRANCH   8  11
ENDBRANCH   4   7
ENDBRANCH   2   3
ENDBRANCH   1   2
BRANCH   1  17
HETATM   17  N   UNL     1      27.417  44.758  53.120  1.00  0.00    -0.290 NA
HETATM   18  H   UNL     1      27.512  45.695  52.707  1.00  0.00     0.127 HD
BRANCH  17  19
HETATM   19  C   UNL     1      28.446  44.506  54.044  1.00  0.00     0.041 A 
HETATM   20  C   UNL     1      29.090  43.249  54.135  1.00  0.00     0.124 A 
HETATM   21  C   UNL     1      30.055  42.969  55.125  1.00  0.00     0.054 A 
HETATM   22  C   UNL     1      30.390  43.936  56.079  1.00  0.00     0.050 A 
HETATM   23  C   UNL     1      29.738  45.173  56.026  1.00  0.00     0.018 A 
HETATM   24  C   UNL     1      28.778  45.442  55.038  1.00  0.00     0.027 A 
BRANCH  20  25
HETATM   25  N   UNL     1      28.792  42.183  53.174  1.00  0.00    -0.114 N 
HETATM   26  O   UNL     1      28.284  41.135  53.606  1.00  0.00    -0.532 OA
HETATM   27  O   UNL     1      29.039  42.404  51.980  1.00  0.00    -0.532 OA
ENDBRANCH  20  25
BRANCH  22  28
HETATM   28  C   UNL     1      31.421  43.670  57.150  1.00  0.00     0.417 C 
HETATM   29  F   UNL     1      32.702  43.752  56.700  1.00  0.00    -0.166 F 
HETATM   30  F   UNL     1      31.328  44.551  58.183  1.00  0.00    -0.166 F 
HETATM   31  F   UNL     1      31.293  42.431  57.698  1.00  0.00    -0.166 F 
ENDBRANCH  22  28
ENDBRANCH  17  19
ENDBRANCH   1  17
TORSDOF 8
ENDMDL
MODEL 8
REMARK VINA RESULT:      -7.8      3.420      5.911
REMARK  8 active torsions:
REMARK  status: ('A' for Active; 'I' for Inactive)
REMARK    1  A    between atoms: C_5  and  C_6 
REMARK       I    between atoms: C_6  and  N_7 
REMARK    2  A    between atoms: N_7  and  N_8 
REMARK       I    between atoms: N_8  and  C_9 
REMARK    3  A    between atoms: C_9  and  C_10 
REMARK    4  A    between atoms: C_10  and  C_11 
REMARK    5  A    between atoms: C_11  and  N_12 
REMARK    6  A    between atoms: N_12  and  C_13 
REMARK    7  A    between atoms: C_14  and  N_15 
REMARK    8  A    between atoms: C_19  and  C_20 
ROOT
HETATM    1  C   UNL     1      26.967  41.943  51.639  1.00  0.00     0.102 C 
ENDROOT
BRANCH   1   2
HETATM    2  C   UNL     1      25.694  42.463  50.985  1.00  0.00     0.119 C 
BRANCH   2   3
HETATM    3  C   UNL     1      26.046  43.662  50.146  1.00  0.00     0.237 C 
HETATM    4  N   UNL     1      25.388  44.819  50.501  1.00  0.00    -0.267 N 
HETATM    5  H   UNL     1      24.807  44.926  51.331  1.00  0.00     0.190 HD
HETATM    6  O   UNL     1      26.802  43.597  49.179  1.00  0.00    -0.272 OA
BRANCH   4   7
HETATM    7  N   UNL     1      25.623  45.970  49.746  1.00  0.00    -0.262 N 
HETATM    8  C   UNL     1      25.312  47.201  50.283  1.00  0.00     0.286 C 
HETATM    9  O   UNL     1      24.856  47.311  51.421  1.00  0.00    -0.264 OA
HETATM   10  H   UNL     1      26.014  45.842  48.817  1.00  0.00     0.190 HD
BRANCH   8  11
HETATM   11  C   UNL     1      25.557  48.337  49.424  1.00  0.00     0.102 A 
HETATM   12  N   UNL     1      26.833  48.821  49.218  1.00  0.00    -0.361 N 
HETATM   13  C   UNL     1      26.804  49.897  48.375  1.00  0.00     0.088 A 
HETATM   14  H   UNL     1      27.661  48.420  49.644  1.00  0.00     0.165 HD
HETATM   15  C   UNL     1      25.495  50.123  48.025  1.00  0.00     0.019 A 
HETATM   16  C   UNL     1      24.708  49.144  48.681  1.00  0.00     0.036 A 
ENDBRANCH   8  11
ENDBRANCH   4   7
ENDBRANCH   2   3
ENDBRANCH   1   2
BRANCH   1  17
HETATM   17  N   UNL     1      27.940  43.028  51.779  1.00  0.00    -0.290 NA
HETATM   18  H   UNL     1      27.566  43.933  51.468  1.00  0.00     0.127 HD
BRANCH  17  19
HETATM   19  C   UNL     1      28.671  43.166  52.973  1.00  0.00     0.041 A 
HETATM   20  C   UNL     1      28.235  43.993  54.036  1.00  0.00     0.124 A 
HETATM   21  C   UNL     1      29.015  44.204  55.192  1.00  0.00     0.054 A 
HETATM   22  C   UNL     1      30.277  43.611  55.311  1.00  0.00     0.050 A 
HETATM   23  C   UNL     1      30.739  42.819  54.254  1.00  0.00     0.018 A 
HETATM   24  C   UNL     1      29.957  42.615  53.107  1.00  0.00     0.027 A 
BRANCH  20  25
HETATM   25  N   UNL     1      26.925  44.651  53.985  1.00  0.00    -0.114 N 
HETATM   26  O   UNL     1      26.773  45.580  53.175  1.00  0.00    -0.532 OA
HETATM   27  O   UNL     1      26.039  44.219  54.736  1.00  0.00    -0.532 OA
ENDBRANCH  20  25
BRANCH  22  28
HETATM   28  C   UNL     1      31.136  43.815  56.536  1.00  0.00     0.417 C 
HETATM   29  F   UNL     1      30.891  42.913  57.525  1.00  0.00    -0.166 F 
HETATM   30  F   UNL     1      32.464  43.712  56.255  1.00  0.00    -0.166 F 
HETATM   31  F   UNL     1      30.962  45.043  57.095  1.00  0.00    -0.166 F 
ENDBRANCH  22  28
ENDBRANCH  17  19
ENDBRANCH   1  17
TORSDOF 8
ENDMDL
MODEL 9
REMARK VINA RESULT:      -7.7      3.141      5.761
REMARK  8 active torsions:
REMARK  status: ('A' for Active; 'I' for Inactive)
REMARK    1  A    between atoms: C_5  and  C_6 
REMARK       I    between atoms: C_6  and  N_7 
REMARK    2  A    between atoms: N_7  and  N_8 
REMARK       I    between atoms: N_8  and  C_9 
REMARK    3  A    between atoms: C_9  and  C_10 
REMARK    4  A    between atoms: C_10  and  C_11 
REMARK    5  A    between atoms: C_11  and  N_12 
REMARK    6  A    between atoms: N_12  and  C_13 
REMARK    7  A    between atoms: C_14  and  N_15 
REMARK    8  A    between atoms: C_19  and  C_20 
ROOT
HETATM    1  C   UNL     1      27.611  41.516  51.381  1.00  0.00     0.102 C 
ENDROOT
BRANCH   1   2
HETATM    2  C   UNL     1      26.938  41.829  50.051  1.00  0.00     0.119 C 
BRANCH   2   3
HETATM    3  C   UNL     1      26.492  43.267  50.071  1.00  0.00     0.237 C 
HETATM    4  N   UNL     1      25.149  43.444  50.320  1.00  0.00    -0.267 N 
HETATM    5  H   UNL     1      24.508  42.703  50.600  1.00  0.00     0.190 HD
HETATM    6  O   UNL     1      27.250  44.201  49.814  1.00  0.00    -0.272 OA
BRANCH   4   7
HETATM    7  N   UNL     1      24.642  44.745  50.313  1.00  0.00    -0.262 N 
HETATM    8  C   UNL     1      24.042  45.227  49.170  1.00  0.00     0.286 C 
HETATM    9  O   UNL     1      23.919  44.530  48.163  1.00  0.00    -0.264 OA
HETATM   10  H   UNL     1      24.748  45.286  51.167  1.00  0.00     0.190 HD
BRANCH   8  11
HETATM   11  C   UNL     1      23.574  46.593  49.239  1.00  0.00     0.102 A 
HETATM   12  N   UNL     1      22.260  46.917  48.969  1.00  0.00    -0.361 N 
HETATM   13  C   UNL     1      22.066  48.265  49.094  1.00  0.00     0.088 A 
HETATM   14  H   UNL     1      21.555  46.234  48.713  1.00  0.00     0.165 HD
HETATM   15  C   UNL     1      23.266  48.831  49.450  1.00  0.00     0.019 A 
HETATM   16  C   UNL     1      24.216  47.784  49.542  1.00  0.00     0.036 A 
ENDBRANCH   8  11
ENDBRANCH   4   7
ENDBRANCH   2   3
ENDBRANCH   1   2
BRANCH   1  17
HETATM   17  N   UNL     1      26.930  42.222  52.468  1.00  0.00    -0.290 NA
HETATM   18  H   UNL     1      26.205  41.647  52.915  1.00  0.00     0.127 HD
BRANCH  17  19
HETATM   19  C   UNL     1      27.679  42.927  53.427  1.00  0.00     0.041 A 
HETATM   20  C   UNL     1      27.349  44.245  53.825  1.00  0.00     0.124 A 
HETATM   21  C   UNL     1      28.155  44.984  54.715  1.00  0.00     0.054 A 
HETATM   22  C   UNL     1      29.340  44.435  55.219  1.00  0.00     0.050 A 
HETATM   23  C   UNL     1      29.700  43.147  54.808  1.00  0.00     0.018 A 
HETATM   24  C   UNL     1      28.892  42.419  53.921  1.00  0.00     0.027 A 
BRANCH  20  25
HETATM   25  N   UNL     1      26.125  44.890  53.340  1.00  0.00    -0.114 N 
HETATM   26  O   UNL     1      26.222  46.031  52.858  1.00  0.00    -0.532 OA
HETATM   27  O   UNL     1      25.070  44.245  53.415  1.00  0.00    -0.532 OA
ENDBRANCH  20  25
BRANCH  22  28
HETATM   28  C   UNL     1      30.224  45.199  56.175  1.00  0.00     0.417 C 
HETATM   29  F   UNL     1      29.582  45.595  57.307  1.00  0.00    -0.166 F 
HETATM   30  F   UNL     1      31.292  44.462  56.588  1.00  0.00    -0.166 F 
HETATM   31  F   UNL     1      30.738  46.329  55.619  1.00  0.00    -0.166 F 
ENDBRANCH  22  28
ENDBRANCH  17  19
ENDBRANCH   1  17
TORSDOF 8
ENDMDL
MODEL 10
REMARK VINA RESULT:      -7.6     13.558     16.848
REMARK  8 active torsions:
REMARK  status: ('A' for Active; 'I' for Inactive)
REMARK    1  A    between atoms: C_5  and  C_6 
REMARK       I    between atoms: C_6  and  N_7 
REMARK    2  A    between atoms: N_7  and  N_8 
REMARK       I    between atoms: N_8  and  C_9 
REMARK    3  A    between atoms: C_9  and  C_10 
REMARK    4  A    between atoms: C_10  and  C_11 
REMARK    5  A    between atoms: C_11  and  N_12 
REMARK    6  A    between atoms: N_12  and  C_13 
REMARK    7  A    between atoms: C_14  and  N_15 
REMARK    8  A    between atoms: C_19  and  C_20 
ROOT
HETATM    1  C   UNL     1      16.796  52.663  49.747  1.00  0.00     0.102 C 
ENDROOT
BRANCH   1   2
HETATM    2  C   UNL     1      15.295  52.448  49.611  1.00  0.00     0.119 C 
BRANCH   2   3
HETATM    3  C   UNL     1      14.599  53.281  50.655  1.00  0.00     0.237 C 
HETATM    4  N   UNL     1      15.447  54.010  51.459  1.00  0.00    -0.267 N 
HETATM    5  H   UNL     1      16.450  54.108  51.309  1.00  0.00     0.190 HD
HETATM    6  O   UNL     1      13.382  53.253  50.823  1.00  0.00    -0.272 OA
BRANCH   4   7
HETATM    7  N   UNL     1      14.888  54.777  52.483  1.00  0.00    -0.262 N 
HETATM    8  C   UNL     1      14.813  56.145  52.335  1.00  0.00     0.286 C 
HETATM    9  O   UNL     1      15.204  56.705  51.311  1.00  0.00    -0.264 OA
HETATM   10  H   UNL     1      14.563  54.280  53.308  1.00  0.00     0.190 HD
BRANCH   8  11
HETATM   11  C   UNL     1      14.251  56.865  53.455  1.00  0.00     0.102 A 
HETATM   12  N   UNL     1      14.911  56.940  54.665  1.00  0.00    -0.361 N 
HETATM   13  C   UNL     1      14.178  57.668  55.563  1.00  0.00     0.088 A 
HETATM   14  H   UNL     1      15.810  56.508  54.842  1.00  0.00     0.165 HD
HETATM   15  C   UNL     1      13.025  58.073  54.935  1.00  0.00     0.019 A 
HETATM   16  C   UNL     1      13.068  57.571  53.610  1.00  0.00     0.036 A 
ENDBRANCH   8  11
ENDBRANCH   4   7
ENDBRANCH   2   3
ENDBRANCH   1   2
BRANCH   1  17
HETATM   17  N   UNL     1      17.439  51.435  50.218  1.00  0.00    -0.290 NA
HETATM   18  H   UNL     1      16.787  50.641  50.261  1.00  0.00     0.127 HD
BRANCH  17  19
HETATM   19  C   UNL     1      18.680  51.042  49.685  1.00  0.00     0.041 A 
HETATM   20  C   UNL     1      19.267  49.788  49.980  1.00  0.00     0.124 A 
HETATM   21  C   UNL     1      20.553  49.434  49.521  1.00  0.00     0.054 A 
HETATM   22  C   UNL     1      21.309  50.340  48.770  1.00  0.00     0.050 A 
HETATM   23  C   UNL     1      20.759  51.598  48.499  1.00  0.00     0.018 A 
HETATM   24  C   UNL     1      19.480  51.942  48.961  1.00  0.00     0.027 A 
BRANCH  20  25
HETATM   25  N   UNL     1      18.538  48.785  50.763  1.00  0.00    -0.114 N 
HETATM   26  O   UNL     1      18.490  48.932  51.996  1.00  0.00    -0.532 OA
HETATM   27  O   UNL     1      17.989  47.863  50.143  1.00  0.00    -0.532 OA
ENDBRANCH  20  25
BRANCH  22  28
HETATM   28  C   UNL     1      22.688  49.992  48.262  1.00  0.00     0.417 C 
HETATM   29  F   UNL     1      23.112  50.797  47.251  1.00  0.00    -0.166 F 
HETATM   30  F   UNL     1      23.633  50.084  49.237  1.00  0.00    -0.166 F 
HETATM   31  F   UNL     1      22.761  48.719  47.785  1.00  0.00    -0.166 F 
ENDBRANCH  22  28
ENDBRANCH  17  19
ENDBRANCH   1  17
TORSDOF 8
ENDMDL
