MODEL 1
REMARK VINA RESULT:     -10.3      0.000      0.000
REMARK  3 active torsions:
REMARK  status: ('A' for Active; 'I' for Inactive)
REMARK    1  A    between atoms: C_8  and  C_9 
REMARK       I    between atoms: C_9  and  N_10 
REMARK    2  A    between atoms: N_10  and  C_11 
REMARK    3  A    between atoms: C_18  and  C_19 
REMARK       I    between atoms: C_19  and  N_20 
ROOT
HETATM    1  C   UNL     1      27.809  41.955  51.533  1.00  0.00     0.035 A 
HETATM    2  C   UNL     1      28.614  40.846  51.241  1.00  0.00     0.046 A 
HETATM    3  C   UNL     1      28.078  39.770  50.499  1.00  0.00     0.030 A 
HETATM    4  C   UNL     1      26.758  39.841  50.072  1.00  0.00     0.063 A 
HETATM    5  N   UNL     1      26.532  38.675  49.396  1.00  0.00    -0.277 N 
HETATM    6  H   UNL     1      25.671  38.384  48.946  1.00  0.00     0.189 HD
HETATM    7  N   UNL     1      27.588  37.848  49.342  1.00  0.00    -0.168 NA
HETATM    8  C   UNL     1      28.553  38.512  50.019  1.00  0.00     0.156 A 
HETATM    9  C   UNL     1      25.928  40.931  50.340  1.00  0.00     0.034 A 
HETATM   10  C   UNL     1      26.483  41.984  51.077  1.00  0.00     0.032 A 
ENDROOT
BRANCH   1  11
HETATM   11  N   UNL     1      28.247  43.075  52.270  1.00  0.00    -0.327 N 
HETATM   12  C   UNL     1      28.008  43.361  53.605  1.00  0.00     0.231 C 
HETATM   13  O   UNL     1      27.379  42.661  54.393  1.00  0.00    -0.272 OA
HETATM   14  H   UNL     1      28.749  43.783  51.744  1.00  0.00     0.169 HD
BRANCH  12  15
HETATM   15  C   UNL     1      28.659  44.659  54.092  1.00  0.00     0.116 C 
HETATM   16  C   UNL     1      29.587  44.477  55.277  1.00  0.00    -0.012 A 
HETATM   17  C   UNL     1      30.539  43.444  55.294  1.00  0.00     0.011 A 
HETATM   18  C   UNL     1      29.535  45.362  56.361  1.00  0.00     0.075 A 
HETATM   19  C   UNL     1      31.379  43.271  56.395  1.00  0.00     0.001 A 
HETATM   20  C   UNL     1      31.287  44.135  57.484  1.00  0.00     0.003 A 
HETATM   21  C   UNL     1      30.364  45.180  57.467  1.00  0.00     0.037 A 
HETATM   22  O   UNL     1      28.670  46.421  56.429  1.00  0.00    -0.351 OA
HETATM   23  C   UNL     1      28.173  46.846  55.158  1.00  0.00     0.176 C 
HETATM   24  C   UNL     1      27.564  45.684  54.400  1.00  0.00     0.045 C 
ENDBRANCH  12  15
ENDBRANCH   1  11
BRANCH   8  25
HETATM   25  C   UNL     1      29.895  37.934  50.190  1.00  0.00     0.270 C 
HETATM   26  N   UNL     1      30.839  38.459  49.350  1.00  0.00    -0.365 N 
HETATM   27  H   UNL     1      30.559  39.180  48.695  1.00  0.00     0.159 HD
HETATM   28  H   UNL     1      31.788  38.123  49.395  1.00  0.00     0.159 HD
HETATM   29  O   UNL     1      30.183  37.062  51.001  1.00  0.00    -0.266 OA
ENDBRANCH   8  25
TORSDOF 3
ENDMDL
MODEL 2
REMARK VINA RESULT:      -9.5      5.751      8.157
REMARK  3 active torsions:
REMARK  status: ('A' for Active; 'I' for Inactive)
REMARK    1  A    between atoms: C_8  and  C_9 
REMARK       I    between atoms: C_9  and  N_10 
REMARK    2  A    between atoms: N_10  and  C_11 
REMARK    3  A    between atoms: C_18  and  C_19 
REMARK       I    between atoms: C_19  and  N_20 
ROOT
HETATM    1  C   UNL     1      25.854  47.409  50.356  1.00  0.00     0.035 A 
HETATM    2  C   UNL     1      24.569  47.729  49.900  1.00  0.00     0.046 A 
HETATM    3  C   UNL     1      24.402  48.762  48.950  1.00  0.00     0.030 A 
HETATM    4  C   UNL     1      25.526  49.436  48.488  1.00  0.00     0.063 A 
HETATM    5  N   UNL     1      25.054  50.361  47.599  1.00  0.00    -0.277 N 
HETATM    6  H   UNL     1      25.596  51.033  47.067  1.00  0.00     0.189 HD
HETATM    7  N   UNL     1      23.721  50.350  47.439  1.00  0.00    -0.168 NA
HETATM    8  C   UNL     1      23.303  49.366  48.267  1.00  0.00     0.156 A 
HETATM    9  C   UNL     1      26.821  49.141  48.917  1.00  0.00     0.034 A 
HETATM   10  C   UNL     1      26.959  48.115  49.858  1.00  0.00     0.032 A 
ENDROOT
BRANCH   1  11
HETATM   11  N   UNL     1      26.126  46.401  51.305  1.00  0.00    -0.327 N 
HETATM   12  C   UNL     1      25.966  46.463  52.681  1.00  0.00     0.231 C 
HETATM   13  O   UNL     1      25.534  47.420  53.317  1.00  0.00    -0.272 OA
HETATM   14  H   UNL     1      26.540  45.550  50.942  1.00  0.00     0.169 HD
BRANCH  12  15
HETATM   15  C   UNL     1      26.336  45.170  53.411  1.00  0.00     0.116 C 
HETATM   16  C   UNL     1      27.551  45.293  54.309  1.00  0.00    -0.012 A 
HETATM   17  C   UNL     1      27.690  46.380  55.187  1.00  0.00     0.011 A 
HETATM   18  C   UNL     1      28.541  44.302  54.302  1.00  0.00     0.075 A 
HETATM   19  C   UNL     1      28.820  46.497  55.998  1.00  0.00     0.001 A 
HETATM   20  C   UNL     1      29.817  45.525  55.951  1.00  0.00     0.003 A 
HETATM   21  C   UNL     1      29.676  44.427  55.102  1.00  0.00     0.037 A 
HETATM   22  O   UNL     1      28.487  43.186  53.511  1.00  0.00    -0.351 OA
HETATM   23  C   UNL     1      27.169  42.859  53.061  1.00  0.00     0.176 C 
HETATM   24  C   UNL     1      26.518  44.048  52.385  1.00  0.00     0.045 C 
ENDBRANCH  12  15
ENDBRANCH   1  11
BRANCH   8  25
HETATM   25  C   UNL     1      21.877  49.028  48.386  1.00  0.00     0.270 C 
HETATM   26  N   UNL     1      21.320  49.372  49.587  1.00  0.00    -0.365 N 
HETATM   27  H   UNL     1      21.907  49.818  50.284  1.00  0.00     0.159 HD
HETATM   28  H   UNL     1      20.347  49.178  49.760  1.00  0.00     0.159 HD
HETATM   29  O   UNL     1      21.211  48.488  47.511  1.00  0.00    -0.266 OA
ENDBRANCH   8  25
TORSDOF 3
ENDMDL
MODEL 3
REMARK VINA RESULT:      -9.4      1.371      2.718
REMARK  3 active torsions:
REMARK  status: ('A' for Active; 'I' for Inactive)
REMARK    1  A    between atoms: C_8  and  C_9 
REMARK       I    between atoms: C_9  and  N_10 
REMARK    2  A    between atoms: N_10  and  C_11 
REMARK    3  A    between atoms: C_18  and  C_19 
REMARK       I    between atoms: C_19  and  N_20 
ROOT
HETATM    1  C   UNL     1      27.984  41.736  51.641  1.00  0.00     0.035 A 
HETATM    2  C   UNL     1      28.453  40.429  51.456  1.00  0.00     0.046 A 
HETATM    3  C   UNL     1      28.262  39.788  50.212  1.00  0.00     0.030 A 
HETATM    4  C   UNL     1      27.611  40.477  49.195  1.00  0.00     0.063 A 
HETATM    5  N   UNL     1      27.575  39.612  48.137  1.00  0.00    -0.277 N 
HETATM    6  H   UNL     1      27.171  39.780  47.222  1.00  0.00     0.189 HD
HETATM    7  N   UNL     1      28.147  38.420  48.371  1.00  0.00    -0.168 NA
HETATM    8  C   UNL     1      28.577  38.513  49.650  1.00  0.00     0.156 A 
HETATM    9  C   UNL     1      27.134  41.780  49.342  1.00  0.00     0.034 A 
HETATM   10  C   UNL     1      27.336  42.392  50.584  1.00  0.00     0.032 A 
ENDROOT
BRANCH   1  11
HETATM   11  N   UNL     1      28.120  42.459  52.844  1.00  0.00    -0.327 N 
HETATM   12  C   UNL     1      29.261  43.062  53.349  1.00  0.00     0.231 C 
HETATM   13  O   UNL     1      30.365  43.087  52.812  1.00  0.00    -0.272 OA
HETATM   14  H   UNL     1      27.298  42.492  53.437  1.00  0.00     0.169 HD
BRANCH  12  15
HETATM   15  C   UNL     1      29.047  43.791  54.679  1.00  0.00     0.116 C 
HETATM   16  C   UNL     1      28.259  45.080  54.556  1.00  0.00    -0.012 A 
HETATM   17  C   UNL     1      27.075  45.131  53.801  1.00  0.00     0.011 A 
HETATM   18  C   UNL     1      28.680  46.235  55.227  1.00  0.00     0.075 A 
HETATM   19  C   UNL     1      26.363  46.325  53.678  1.00  0.00     0.001 A 
HETATM   20  C   UNL     1      26.817  47.476  54.317  1.00  0.00     0.003 A 
HETATM   21  C   UNL     1      27.975  47.431  55.091  1.00  0.00     0.037 A 
HETATM   22  O   UNL     1      29.798  46.285  56.016  1.00  0.00    -0.351 OA
HETATM   23  C   UNL     1      30.228  45.007  56.490  1.00  0.00     0.176 C 
HETATM   24  C   UNL     1      30.406  44.034  55.342  1.00  0.00     0.045 C 
ENDBRANCH  12  15
ENDBRANCH   1  11
BRANCH   8  25
HETATM   25  C   UNL     1      29.273  37.393  50.300  1.00  0.00     0.270 C 
HETATM   26  N   UNL     1      28.445  36.386  50.714  1.00  0.00    -0.365 N 
HETATM   27  H   UNL     1      27.449  36.479  50.550  1.00  0.00     0.159 HD
HETATM   28  H   UNL     1      28.833  35.577  51.171  1.00  0.00     0.159 HD
HETATM   29  O   UNL     1      30.485  37.328  50.473  1.00  0.00    -0.266 OA
ENDBRANCH   8  25
TORSDOF 3
ENDMDL
MODEL 4
REMARK VINA RESULT:      -9.0      2.030      3.347
REMARK  3 active torsions:
REMARK  status: ('A' for Active; 'I' for Inactive)
REMARK    1  A    between atoms: C_8  and  C_9 
REMARK       I    between atoms: C_9  and  N_10 
REMARK    2  A    between atoms: N_10  and  C_11 
REMARK    3  A    between atoms: C_18  and  C_19 
REMARK       I    between atoms: C_19  and  N_20 
ROOT
HETATM    1  C   UNL     1      27.516  42.581  51.478  1.00  0.00     0.035 A 
HETATM    2  C   UNL     1      26.355  42.695  50.703  1.00  0.00     0.046 A 
HETATM    3  C   UNL     1      25.956  41.617  49.881  1.00  0.00     0.030 A 
HETATM    4  C   UNL     1      26.729  40.463  49.866  1.00  0.00     0.063 A 
HETATM    5  N   UNL     1      26.102  39.618  48.993  1.00  0.00    -0.277 N 
HETATM    6  H   UNL     1      26.390  38.681  48.732  1.00  0.00     0.189 HD
HETATM    7  N   UNL     1      24.987  40.117  48.437  1.00  0.00    -0.168 NA
HETATM    8  C   UNL     1      24.882  41.353  48.977  1.00  0.00     0.156 A 
HETATM    9  C   UNL     1      27.888  40.313  50.628  1.00  0.00     0.034 A 
HETATM   10  C   UNL     1      28.263  41.395  51.433  1.00  0.00     0.032 A 
ENDROOT
BRANCH   1  11
HETATM   11  N   UNL     1      28.001  43.600  52.325  1.00  0.00    -0.327 N 
HETATM   12  C   UNL     1      27.870  43.696  53.701  1.00  0.00     0.231 C 
HETATM   13  O   UNL     1      27.314  42.882  54.434  1.00  0.00    -0.272 OA
HETATM   14  H   UNL     1      28.450  44.383  51.864  1.00  0.00     0.169 HD
BRANCH  12  15
HETATM   15  C   UNL     1      28.544  44.929  54.309  1.00  0.00     0.116 C 
HETATM   16  C   UNL     1      29.535  44.611  55.410  1.00  0.00    -0.012 A 
HETATM   17  C   UNL     1      30.488  43.591  55.249  1.00  0.00     0.011 A 
HETATM   18  C   UNL     1      29.541  45.355  56.597  1.00  0.00     0.075 A 
HETATM   19  C   UNL     1      31.387  43.291  56.273  1.00  0.00     0.001 A 
HETATM   20  C   UNL     1      31.354  44.013  57.464  1.00  0.00     0.003 A 
HETATM   21  C   UNL     1      30.430  45.045  57.625  1.00  0.00     0.037 A 
HETATM   22  O   UNL     1      28.679  46.391  56.842  1.00  0.00    -0.351 OA
HETATM   23  C   UNL     1      28.113  46.964  55.661  1.00  0.00     0.176 C 
HETATM   24  C   UNL     1      27.465  45.899  54.799  1.00  0.00     0.045 C 
ENDBRANCH  12  15
ENDBRANCH   1  11
BRANCH   8  25
HETATM   25  C   UNL     1      23.769  42.245  48.621  1.00  0.00     0.270 C 
HETATM   26  N   UNL     1      24.060  43.127  47.616  1.00  0.00    -0.365 N 
HETATM   27  H   UNL     1      24.986  43.105  47.204  1.00  0.00     0.159 HD
HETATM   28  H   UNL     1      23.358  43.779  47.305  1.00  0.00     0.159 HD
HETATM   29  O   UNL     1      22.664  42.232  49.150  1.00  0.00    -0.266 OA
ENDBRANCH   8  25
TORSDOF 3
ENDMDL
MODEL 5
REMARK VINA RESULT:      -8.6      4.983      7.242
REMARK  3 active torsions:
REMARK  status: ('A' for Active; 'I' for Inactive)
REMARK    1  A    between atoms: C_8  and  C_9 
REMARK       I    between atoms: C_9  and  N_10 
REMARK    2  A    between atoms: N_10  and  C_11 
REMARK    3  A    between atoms: C_18  and  C_19 
REMARK       I    between atoms: C_19  and  N_20 
ROOT
HETATM    1  C   UNL     1      24.306  45.072  50.637  1.00  0.00     0.035 A 
HETATM    2  C   UNL     1      24.394  46.430  50.303  1.00  0.00     0.046 A 
HETATM    3  C   UNL     1      23.600  46.944  49.255  1.00  0.00     0.030 A 
HETATM    4  C   UNL     1      22.742  46.084  48.579  1.00  0.00     0.063 A 
HETATM    5  N   UNL     1      22.122  46.857  47.637  1.00  0.00    -0.277 N 
HETATM    6  H   UNL     1      21.429  46.559  46.959  1.00  0.00     0.189 HD
HETATM    7  N   UNL     1      22.497  48.146  47.639  1.00  0.00    -0.168 NA
HETATM    8  C   UNL     1      23.410  48.216  48.635  1.00  0.00     0.156 A 
HETATM    9  C   UNL     1      22.625  44.728  48.886  1.00  0.00     0.034 A 
HETATM   10  C   UNL     1      23.424  44.243  49.929  1.00  0.00     0.032 A 
ENDROOT
BRANCH   1  11
HETATM   11  N   UNL     1      25.060  44.461  51.662  1.00  0.00    -0.327 N 
HETATM   12  C   UNL     1      26.432  44.275  51.712  1.00  0.00     0.231 C 
HETATM   13  O   UNL     1      27.243  44.638  50.864  1.00  0.00    -0.272 OA
HETATM   14  H   UNL     1      24.526  44.060  52.425  1.00  0.00     0.169 HD
BRANCH  12  15
HETATM   15  C   UNL     1      26.924  43.594  52.992  1.00  0.00     0.116 C 
HETATM   16  C   UNL     1      27.668  44.517  53.936  1.00  0.00    -0.012 A 
HETATM   17  C   UNL     1      27.160  45.788  54.251  1.00  0.00     0.011 A 
HETATM   18  C   UNL     1      28.862  44.101  54.540  1.00  0.00     0.075 A 
HETATM   19  C   UNL     1      27.858  46.640  55.107  1.00  0.00     0.001 A 
HETATM   20  C   UNL     1      29.066  46.229  55.668  1.00  0.00     0.003 A 
HETATM   21  C   UNL     1      29.567  44.959  55.383  1.00  0.00     0.037 A 
HETATM   22  O   UNL     1      29.426  42.872  54.329  1.00  0.00    -0.351 OA
HETATM   23  C   UNL     1      28.506  41.887  53.852  1.00  0.00     0.176 C 
HETATM   24  C   UNL     1      27.778  42.380  52.617  1.00  0.00     0.045 C 
ENDBRANCH  12  15
ENDBRANCH   1  11
BRANCH   8  25
HETATM   25  C   UNL     1      24.073  49.485  48.968  1.00  0.00     0.270 C 
HETATM   26  N   UNL     1      25.387  49.544  48.591  1.00  0.00    -0.365 N 
HETATM   27  H   UNL     1      25.795  48.740  48.126  1.00  0.00     0.159 HD
HETATM   28  H   UNL     1      25.924  50.375  48.778  1.00  0.00     0.159 HD
HETATM   29  O   UNL     1      23.534  50.431  49.531  1.00  0.00    -0.266 OA
ENDBRANCH   8  25
TORSDOF 3
ENDMDL
MODEL 6
REMARK VINA RESULT:      -8.5      3.498      5.120
REMARK  3 active torsions:
REMARK  status: ('A' for Active; 'I' for Inactive)
REMARK    1  A    between atoms: C_8  and  C_9 
REMARK       I    between atoms: C_9  and  N_10 
REMARK    2  A    between atoms: N_10  and  C_11 
REMARK    3  A    between atoms: C_18  and  C_19 
REMARK       I    between atoms: C_19  and  N_20 
ROOT
HETATM    1  C   UNL     1      25.570  43.718  50.992  1.00  0.00     0.035 A 
HETATM    2  C   UNL     1      24.415  44.196  50.360  1.00  0.00     0.046 A 
HETATM    3  C   UNL     1      23.658  43.329  49.540  1.00  0.00     0.030 A 
HETATM    4  C   UNL     1      24.081  42.015  49.384  1.00  0.00     0.063 A 
HETATM    5  N   UNL     1      23.166  41.436  48.550  1.00  0.00    -0.277 N 
HETATM    6  H   UNL     1      23.159  40.479  48.216  1.00  0.00     0.189 HD
HETATM    7  N   UNL     1      22.181  42.255  48.149  1.00  0.00    -0.168 NA
HETATM    8  C   UNL     1      22.471  43.430  48.754  1.00  0.00     0.156 A 
HETATM    9  C   UNL     1      25.223  41.504  50.002  1.00  0.00     0.034 A 
HETATM   10  C   UNL     1      25.956  42.383  50.808  1.00  0.00     0.032 A 
ENDROOT
BRANCH   1  11
HETATM   11  N   UNL     1      26.396  44.504  51.824  1.00  0.00    -0.327 N 
HETATM   12  C   UNL     1      26.389  44.571  53.209  1.00  0.00     0.231 C 
HETATM   13  O   UNL     1      25.663  43.928  53.961  1.00  0.00    -0.272 OA
HETATM   14  H   UNL     1      27.029  45.137  51.349  1.00  0.00     0.169 HD
BRANCH  12  15
HETATM   15  C   UNL     1      27.444  45.515  53.793  1.00  0.00     0.116 C 
HETATM   16  C   UNL     1      28.630  44.806  54.415  1.00  0.00    -0.012 A 
HETATM   17  C   UNL     1      29.271  43.751  53.745  1.00  0.00     0.011 A 
HETATM   18  C   UNL     1      29.132  45.219  55.657  1.00  0.00     0.075 A 
HETATM   19  C   UNL     1      30.352  43.091  54.331  1.00  0.00     0.001 A 
HETATM   20  C   UNL     1      30.813  43.485  55.585  1.00  0.00     0.003 A 
HETATM   21  C   UNL     1      30.203  44.549  56.247  1.00  0.00     0.037 A 
HETATM   22  O   UNL     1      28.604  46.257  56.376  1.00  0.00    -0.351 OA
HETATM   23  C   UNL     1      27.843  47.178  55.591  1.00  0.00     0.176 C 
HETATM   24  C   UNL     1      26.772  46.456  54.798  1.00  0.00     0.045 C 
ENDBRANCH  12  15
ENDBRANCH   1  11
BRANCH   8  25
HETATM   25  C   UNL     1      21.615  44.611  48.568  1.00  0.00     0.270 C 
HETATM   26  N   UNL     1      22.257  45.684  48.011  1.00  0.00    -0.365 N 
HETATM   27  H   UNL     1      23.239  45.592  47.775  1.00  0.00     0.159 HD
HETATM   28  H   UNL     1      21.750  46.538  47.846  1.00  0.00     0.159 HD
HETATM   29  O   UNL     1      20.429  44.671  48.870  1.00  0.00    -0.266 OA
ENDBRANCH   8  25
TORSDOF 3
ENDMDL
MODEL 7
REMARK VINA RESULT:      -8.4      1.961      3.720
REMARK  3 active torsions:
REMARK  status: ('A' for Active; 'I' for Inactive)
REMARK    1  A    between atoms: C_8  and  C_9 
REMARK       I    between atoms: C_9  and  N_10 
REMARK    2  A    between atoms: N_10  and  C_11 
REMARK    3  A    between atoms: C_18  and  C_19 
REMARK       I    between atoms: C_19  and  N_20 
ROOT
HETATM    1  C   UNL     1      28.264  40.777  51.864  1.00  0.00     0.035 A 
HETATM    2  C   UNL     1      27.225  41.029  50.958  1.00  0.00     0.046 A 
HETATM    3  C   UNL     1      27.085  40.216  49.812  1.00  0.00     0.030 A 
HETATM    4  C   UNL     1      27.987  39.177  49.612  1.00  0.00     0.063 A 
HETATM    5  N   UNL     1      27.603  38.585  48.442  1.00  0.00    -0.277 N 
HETATM    6  H   UNL     1      28.038  37.790  47.986  1.00  0.00     0.189 HD
HETATM    7  N   UNL     1      26.531  39.143  47.859  1.00  0.00    -0.168 NA
HETATM    8  C   UNL     1      26.197  40.153  48.695  1.00  0.00     0.156 A 
HETATM    9  C   UNL     1      29.030  38.894  50.495  1.00  0.00     0.034 A 
HETATM   10  C   UNL     1      29.147  39.714  51.623  1.00  0.00     0.032 A 
ENDROOT
BRANCH   1  11
HETATM   11  N   UNL     1      28.491  41.533  53.033  1.00  0.00    -0.327 N 
HETATM   12  C   UNL     1      29.279  42.665  53.174  1.00  0.00     0.231 C 
HETATM   13  O   UNL     1      29.908  43.224  52.280  1.00  0.00    -0.272 OA
HETATM   14  H   UNL     1      28.074  41.171  53.883  1.00  0.00     0.169 HD
BRANCH  12  15
HETATM   15  C   UNL     1      29.282  43.251  54.588  1.00  0.00     0.116 C 
HETATM   16  C   UNL     1      28.526  44.559  54.716  1.00  0.00    -0.012 A 
HETATM   17  C   UNL     1      27.249  44.710  54.152  1.00  0.00     0.011 A 
HETATM   18  C   UNL     1      29.077  45.630  55.432  1.00  0.00     0.075 A 
HETATM   19  C   UNL     1      26.565  45.923  54.258  1.00  0.00     0.001 A 
HETATM   20  C   UNL     1      27.144  46.992  54.938  1.00  0.00     0.003 A 
HETATM   21  C   UNL     1      28.400  46.845  55.525  1.00  0.00     0.037 A 
HETATM   22  O   UNL     1      30.298  45.576  56.049  1.00  0.00    -0.351 OA
HETATM   23  C   UNL     1      30.751  44.248  56.322  1.00  0.00     0.176 C 
HETATM   24  C   UNL     1      30.729  43.400  55.066  1.00  0.00     0.045 C 
ENDBRANCH  12  15
ENDBRANCH   1  11
BRANCH   8  25
HETATM   25  C   UNL     1      25.050  41.027  48.410  1.00  0.00     0.270 C 
HETATM   26  N   UNL     1      23.944  40.364  47.953  1.00  0.00    -0.365 N 
HETATM   27  H   UNL     1      23.991  39.357  47.846  1.00  0.00     0.159 HD
HETATM   28  H   UNL     1      23.109  40.881  47.731  1.00  0.00     0.159 HD
HETATM   29  O   UNL     1      25.043  42.243  48.558  1.00  0.00    -0.266 OA
ENDBRANCH   8  25
TORSDOF 3
ENDMDL
MODEL 8
REMARK VINA RESULT:      -8.4      9.241     11.722
REMARK  3 active torsions:
REMARK  status: ('A' for Active; 'I' for Inactive)
REMARK    1  A    between atoms: C_8  and  C_9 
REMARK       I    between atoms: C_9  and  N_10 
REMARK    2  A    between atoms: N_10  and  C_11 
REMARK    3  A    between atoms: C_18  and  C_19 
REMARK       I    between atoms: C_19  and  N_20 
ROOT
HETATM    1  C   UNL     1      23.330  49.842  48.826  1.00  0.00     0.035 A 
HETATM    2  C   UNL     1      23.826  48.692  49.455  1.00  0.00     0.046 A 
HETATM    3  C   UNL     1      25.191  48.355  49.318  1.00  0.00     0.030 A 
HETATM    4  C   UNL     1      26.013  49.180  48.560  1.00  0.00     0.063 A 
HETATM    5  N   UNL     1      27.252  48.604  48.611  1.00  0.00    -0.277 N 
HETATM    6  H   UNL     1      28.101  48.935  48.168  1.00  0.00     0.189 HD
HETATM    7  N   UNL     1      27.312  47.476  49.336  1.00  0.00    -0.168 NA
HETATM    8  C   UNL     1      26.045  47.308  49.781  1.00  0.00     0.156 A 
HETATM    9  C   UNL     1      25.555  50.334  47.924  1.00  0.00     0.034 A 
HETATM   10  C   UNL     1      24.199  50.646  48.074  1.00  0.00     0.032 A 
ENDROOT
BRANCH   1  11
HETATM   11  N   UNL     1      21.985  50.261  48.896  1.00  0.00    -0.327 N 
HETATM   12  C   UNL     1      21.339  50.868  49.962  1.00  0.00     0.231 C 
HETATM   13  O   UNL     1      21.844  51.168  51.039  1.00  0.00    -0.272 OA
HETATM   14  H   UNL     1      21.409  50.040  48.092  1.00  0.00     0.169 HD
BRANCH  12  15
HETATM   15  C   UNL     1      19.873  51.214  49.687  1.00  0.00     0.116 C 
HETATM   16  C   UNL     1      18.981  50.006  49.479  1.00  0.00    -0.012 A 
HETATM   17  C   UNL     1      19.045  48.906  50.351  1.00  0.00     0.011 A 
HETATM   18  C   UNL     1      18.051  49.983  48.432  1.00  0.00     0.075 A 
HETATM   19  C   UNL     1      18.234  47.789  50.144  1.00  0.00     0.001 A 
HETATM   20  C   UNL     1      17.342  47.763  49.074  1.00  0.00     0.003 A 
HETATM   21  C   UNL     1      17.252  48.860  48.218  1.00  0.00     0.037 A 
HETATM   22  O   UNL     1      17.884  51.015  47.548  1.00  0.00    -0.351 OA
HETATM   23  C   UNL     1      18.358  52.273  48.032  1.00  0.00     0.176 C 
HETATM   24  C   UNL     1      19.798  52.169  48.492  1.00  0.00     0.045 C 
ENDBRANCH  12  15
ENDBRANCH   1  11
BRANCH   8  25
HETATM   25  C   UNL     1      25.684  46.164  50.631  1.00  0.00     0.270 C 
HETATM   26  N   UNL     1      25.377  45.027  49.934  1.00  0.00    -0.365 N 
HETATM   27  H   UNL     1      25.419  45.052  48.922  1.00  0.00     0.159 HD
HETATM   28  H   UNL     1      25.117  44.192  50.433  1.00  0.00     0.159 HD
HETATM   29  O   UNL     1      25.649  46.185  51.856  1.00  0.00    -0.266 OA
ENDBRANCH   8  25
TORSDOF 3
ENDMDL
MODEL 9
REMARK VINA RESULT:      -8.3      9.004     11.365
REMARK  3 active torsions:
REMARK  status: ('A' for Active; 'I' for Inactive)
REMARK    1  A    between atoms: C_8  and  C_9 
REMARK       I    between atoms: C_9  and  N_10 
REMARK    2  A    between atoms: N_10  and  C_11 
REMARK    3  A    between atoms: C_18  and  C_19 
REMARK       I    between atoms: C_19  and  N_20 
ROOT
HETATM    1  C   UNL     1      23.423  48.851  48.998  1.00  0.00     0.035 A 
HETATM    2  C   UNL     1      24.198  47.772  49.442  1.00  0.00     0.046 A 
HETATM    3  C   UNL     1      25.603  47.817  49.303  1.00  0.00     0.030 A 
HETATM    4  C   UNL     1      26.184  48.942  48.729  1.00  0.00     0.063 A 
HETATM    5  N   UNL     1      27.528  48.695  48.730  1.00  0.00    -0.277 N 
HETATM    6  H   UNL     1      28.263  49.302  48.383  1.00  0.00     0.189 HD
HETATM    7  N   UNL     1      27.878  47.510  49.255  1.00  0.00    -0.168 NA
HETATM    8  C   UNL     1      26.698  46.955  49.616  1.00  0.00     0.156 A 
HETATM    9  C   UNL     1      25.444  50.036  48.280  1.00  0.00     0.034 A 
HETATM   10  C   UNL     1      24.054  49.966  48.428  1.00  0.00     0.032 A 
ENDROOT
BRANCH   1  11
HETATM   11  N   UNL     1      22.015  48.900  49.086  1.00  0.00    -0.327 N 
HETATM   12  C   UNL     1      21.090  48.461  48.152  1.00  0.00     0.231 C 
HETATM   13  O   UNL     1      21.344  47.926  47.077  1.00  0.00    -0.272 OA
HETATM   14  H   UNL     1      21.638  49.363  49.905  1.00  0.00     0.169 HD
BRANCH  12  15
HETATM   15  C   UNL     1      19.632  48.645  48.584  1.00  0.00     0.116 C 
HETATM   16  C   UNL     1      19.204  50.094  48.711  1.00  0.00    -0.012 A 
HETATM   17  C   UNL     1      19.514  51.027  47.708  1.00  0.00     0.011 A 
HETATM   18  C   UNL     1      18.458  50.519  49.818  1.00  0.00     0.075 A 
HETATM   19  C   UNL     1      19.133  52.363  47.839  1.00  0.00     0.001 A 
HETATM   20  C   UNL     1      18.427  52.780  48.965  1.00  0.00     0.003 A 
HETATM   21  C   UNL     1      18.090  51.857  49.955  1.00  0.00     0.037 A 
HETATM   22  O   UNL     1      18.073  49.685  50.833  1.00  0.00    -0.351 OA
HETATM   23  C   UNL     1      18.061  48.301  50.473  1.00  0.00     0.176 C 
HETATM   24  C   UNL     1      19.395  47.882  49.890  1.00  0.00     0.045 C 
ENDBRANCH  12  15
ENDBRANCH   1  11
BRANCH   8  25
HETATM   25  C   UNL     1      26.643  45.627  50.244  1.00  0.00     0.270 C 
HETATM   26  N   UNL     1      26.627  44.589  49.353  1.00  0.00    -0.365 N 
HETATM   27  H   UNL     1      26.653  44.800  48.361  1.00  0.00     0.159 HD
HETATM   28  H   UNL     1      26.590  43.641  49.692  1.00  0.00     0.159 HD
HETATM   29  O   UNL     1      26.616  45.425  51.452  1.00  0.00    -0.266 OA
ENDBRANCH   8  25
TORSDOF 3
ENDMDL
MODEL 10
REMARK VINA RESULT:      -8.3      5.836      8.754
REMARK  3 active torsions:
REMARK  status: ('A' for Active; 'I' for Inactive)
REMARK    1  A    between atoms: C_8  and  C_9 
REMARK       I    between atoms: C_9  and  N_10 
REMARK    2  A    between atoms: N_10  and  C_11 
REMARK    3  A    between atoms: C_18  and  C_19 
REMARK       I    between atoms: C_19  and  N_20 
ROOT
HETATM    1  C   UNL     1      25.723  46.265  52.130  1.00  0.00     0.035 A 
HETATM    2  C   UNL     1      26.571  45.155  52.243  1.00  0.00     0.046 A 
HETATM    3  C   UNL     1      27.383  45.010  53.390  1.00  0.00     0.030 A 
HETATM    4  C   UNL     1      27.317  45.979  54.385  1.00  0.00     0.063 A 
HETATM    5  N   UNL     1      28.201  45.573  55.345  1.00  0.00    -0.277 N 
HETATM    6  H   UNL     1      28.415  46.041  56.219  1.00  0.00     0.189 HD
HETATM    7  N   UNL     1      28.837  44.424  55.067  1.00  0.00    -0.168 NA
HETATM    8  C   UNL     1      28.342  44.063  53.861  1.00  0.00     0.156 A 
HETATM    9  C   UNL     1      26.482  47.094  54.308  1.00  0.00     0.034 A 
HETATM   10  C   UNL     1      25.688  47.214  53.161  1.00  0.00     0.032 A 
ENDROOT
BRANCH   1  11
HETATM   11  N   UNL     1      24.880  46.502  51.024  1.00  0.00    -0.327 N 
HETATM   12  C   UNL     1      25.013  47.476  50.047  1.00  0.00     0.231 C 
HETATM   13  O   UNL     1      25.918  48.301  49.966  1.00  0.00    -0.272 OA
HETATM   14  H   UNL     1      24.046  45.928  50.972  1.00  0.00     0.169 HD
BRANCH  12  15
HETATM   15  C   UNL     1      23.924  47.435  48.972  1.00  0.00     0.116 C 
HETATM   16  C   UNL     1      23.085  48.695  48.893  1.00  0.00    -0.012 A 
HETATM   17  C   UNL     1      23.690  49.963  48.895  1.00  0.00     0.011 A 
HETATM   18  C   UNL     1      21.691  48.614  48.779  1.00  0.00     0.075 A 
HETATM   19  C   UNL     1      22.912  51.120  48.840  1.00  0.00     0.001 A 
HETATM   20  C   UNL     1      21.524  51.025  48.769  1.00  0.00     0.003 A 
HETATM   21  C   UNL     1      20.915  49.772  48.739  1.00  0.00     0.037 A 
HETATM   22  O   UNL     1      21.006  47.430  48.733  1.00  0.00    -0.351 OA
HETATM   23  C   UNL     1      21.804  46.314  48.333  1.00  0.00     0.176 C 
HETATM   24  C   UNL     1      23.046  46.200  49.194  1.00  0.00     0.045 C 
ENDBRANCH  12  15
ENDBRANCH   1  11
BRANCH   8  25
HETATM   25  C   UNL     1      28.791  42.833  53.193  1.00  0.00     0.270 C 
HETATM   26  N   UNL     1      30.069  42.897  52.707  1.00  0.00    -0.365 N 
HETATM   27  H   UNL     1      30.595  43.753  52.836  1.00  0.00     0.159 HD
HETATM   28  H   UNL     1      30.462  42.100  52.233  1.00  0.00     0.159 HD
HETATM   29  O   UNL     1      28.115  41.819  53.064  1.00  0.00    -0.266 OA
ENDBRANCH   8  25
TORSDOF 3
ENDMDL
