MODEL 1
REMARK VINA RESULT:      -8.7      0.000      0.000
REMARK  7 active torsions:
REMARK  status: ('A' for Active; 'I' for Inactive)
REMARK    1  A    between atoms: N_3  and  C_4 
REMARK    2  A    between atoms: C_12  and  C_13 
REMARK       I    between atoms: C_13  and  N_14 
REMARK    3  A    between atoms: N_14  and  C_15 
REMARK    4  A    between atoms: C_15  and  C_16 
REMARK    5  A    between atoms: C_16  and  O_17 
REMARK    6  A    between atoms: C_16  and  C_18 
REMARK    7  A    between atoms: C_21  and  O_22 
ROOT
HETATM    1  C   UNL     1      25.414  44.235  51.764  1.00  0.00     0.255 C 
HETATM    2  N   UNL     1      26.589  43.628  51.391  1.00  0.00    -0.350 N 
HETATM    3  O   UNL     1      24.888  44.018  52.851  1.00  0.00    -0.268 OA
HETATM    4  H   UNL     1      26.993  43.805  50.483  1.00  0.00     0.163 HD
ENDROOT
BRANCH   2   5
HETATM    5  C   UNL     1      27.235  42.610  52.230  1.00  0.00     0.114 C 
HETATM    6  C   UNL     1      26.942  41.221  51.658  1.00  0.00     0.035 C 
BRANCH   5   7
HETATM    7  C   UNL     1      28.754  42.915  52.364  1.00  0.00     0.173 C 
BRANCH   7   8
HETATM    8  O   UNL     1      29.532  41.727  52.182  1.00  0.00    -0.389 OA
HETATM    9  H   UNL     1      30.365  41.998  51.757  1.00  0.00     0.210 HD
ENDBRANCH   7   8
BRANCH   7  10
HETATM   10  C   UNL     1      29.118  43.627  53.653  1.00  0.00    -0.028 A 
HETATM   11  C   UNL     1      30.244  43.209  54.374  1.00  0.00     0.012 A 
HETATM   12  C   UNL     1      30.621  43.863  55.549  1.00  0.00     0.037 A 
HETATM   13  C   UNL     1      29.890  44.953  56.023  1.00  0.00     0.068 A 
HETATM   14  C   UNL     1      28.764  45.375  55.316  1.00  0.00     0.037 A 
HETATM   15  C   UNL     1      28.381  44.716  54.140  1.00  0.00     0.012 A 
BRANCH  13  16
HETATM   16  O   UNL     1      30.375  45.505  57.176  1.00  0.00    -0.356 OA
HETATM   17  C   UNL     1      31.111  44.650  58.039  1.00  0.00     0.210 C 
ENDBRANCH  13  16
ENDBRANCH   7  10
ENDBRANCH   5   7
ENDBRANCH   2   5
BRANCH   1  18
HETATM   18  C   UNL     1      24.843  45.202  50.837  1.00  0.00     0.075 C 
HETATM   19  C   UNL     1      25.071  46.560  50.620  1.00  0.00     0.051 C 
HETATM   20  C   UNL     1      26.074  47.494  51.199  1.00  0.00     0.071 C 
HETATM   21  N   UNL     1      24.144  46.961  49.649  1.00  0.00    -0.220 N 
HETATM   22  N   UNL     1      23.478  45.893  49.131  1.00  0.00    -0.177 NA
HETATM   23  C   UNL     1      23.882  44.860  49.861  1.00  0.00     0.158 C 
BRANCH  21  24
HETATM   24  C   UNL     1      23.835  48.288  49.186  1.00  0.00     0.150 A 
HETATM   25  N   UNL     1      24.773  48.992  48.497  1.00  0.00    -0.241 NA
HETATM   26  C   UNL     1      24.447  50.242  48.100  1.00  0.00     0.119 A 
HETATM   27  C   UNL     1      23.223  50.839  48.349  1.00  0.00     0.019 A 
HETATM   28  C   UNL     1      22.273  50.114  49.056  1.00  0.00     0.005 A 
HETATM   29  C   UNL     1      22.580  48.824  49.485  1.00  0.00     0.052 A 
ENDBRANCH  21  24
ENDBRANCH   1  18
TORSDOF 7
ENDMDL
MODEL 2
REMARK VINA RESULT:      -8.3      2.782      8.340
REMARK  7 active torsions:
REMARK  status: ('A' for Active; 'I' for Inactive)
REMARK    1  A    between atoms: N_3  and  C_4 
REMARK    2  A    between atoms: C_12  and  C_13 
REMARK       I    between atoms: C_13  and  N_14 
REMARK    3  A    between atoms: N_14  and  C_15 
REMARK    4  A    between atoms: C_15  and  C_16 
REMARK    5  A    between atoms: C_16  and  O_17 
REMARK    6  A    between atoms: C_16  and  C_18 
REMARK    7  A    between atoms: C_21  and  O_22 
ROOT
HETATM    1  C   UNL     1      27.611  43.657  51.429  1.00  0.00     0.255 C 
HETATM    2  N   UNL     1      26.465  42.903  51.506  1.00  0.00    -0.350 N 
HETATM    3  O   UNL     1      27.837  44.401  50.479  1.00  0.00    -0.268 OA
HETATM    4  H   UNL     1      26.310  42.283  52.286  1.00  0.00     0.163 HD
ENDROOT
BRANCH   2   5
HETATM    5  C   UNL     1      25.485  42.870  50.412  1.00  0.00     0.114 C 
HETATM    6  C   UNL     1      25.278  41.421  49.962  1.00  0.00     0.035 C 
BRANCH   5   7
HETATM    7  C   UNL     1      24.171  43.575  50.851  1.00  0.00     0.173 C 
BRANCH   7   8
HETATM    8  O   UNL     1      23.024  42.868  50.366  1.00  0.00    -0.389 OA
HETATM    9  H   UNL     1      23.226  42.595  49.454  1.00  0.00     0.210 HD
ENDBRANCH   7   8
BRANCH   7  10
HETATM   10  C   UNL     1      24.117  45.044  50.477  1.00  0.00    -0.028 A 
HETATM   11  C   UNL     1      24.835  45.974  51.242  1.00  0.00     0.012 A 
HETATM   12  C   UNL     1      24.829  47.329  50.906  1.00  0.00     0.037 A 
HETATM   13  C   UNL     1      24.116  47.784  49.796  1.00  0.00     0.068 A 
HETATM   14  C   UNL     1      23.394  46.869  49.030  1.00  0.00     0.037 A 
HETATM   15  C   UNL     1      23.394  45.509  49.369  1.00  0.00     0.012 A 
BRANCH  13  16
HETATM   16  O   UNL     1      24.204  49.131  49.576  1.00  0.00    -0.356 OA
HETATM   17  C   UNL     1      24.127  49.567  48.226  1.00  0.00     0.210 C 
ENDBRANCH  13  16
ENDBRANCH   7  10
ENDBRANCH   5   7
ENDBRANCH   2   5
BRANCH   1  18
HETATM   18  C   UNL     1      28.530  43.585  52.556  1.00  0.00     0.075 C 
HETATM   19  C   UNL     1      28.465  44.056  53.867  1.00  0.00     0.051 C 
HETATM   20  C   UNL     1      27.366  44.719  54.621  1.00  0.00     0.071 C 
HETATM   21  N   UNL     1      29.702  43.756  54.452  1.00  0.00    -0.220 N 
HETATM   22  N   UNL     1      30.458  42.974  53.633  1.00  0.00    -0.177 NA
HETATM   23  C   UNL     1      29.764  42.902  52.503  1.00  0.00     0.158 C 
BRANCH  21  24
HETATM   24  C   UNL     1      30.224  44.169  55.727  1.00  0.00     0.150 A 
HETATM   25  N   UNL     1      29.847  45.367  56.249  1.00  0.00    -0.241 NA
HETATM   26  C   UNL     1      30.379  45.723  57.440  1.00  0.00     0.119 A 
HETATM   27  C   UNL     1      31.274  44.944  58.152  1.00  0.00     0.019 A 
HETATM   28  C   UNL     1      31.656  43.725  57.609  1.00  0.00     0.005 A 
HETATM   29  C   UNL     1      31.130  43.330  56.381  1.00  0.00     0.052 A 
ENDBRANCH  21  24
ENDBRANCH   1  18
TORSDOF 7
ENDMDL
MODEL 3
REMARK VINA RESULT:      -8.1      2.666      4.344
REMARK  7 active torsions:
REMARK  status: ('A' for Active; 'I' for Inactive)
REMARK    1  A    between atoms: N_3  and  C_4 
REMARK    2  A    between atoms: C_12  and  C_13 
REMARK       I    between atoms: C_13  and  N_14 
REMARK    3  A    between atoms: N_14  and  C_15 
REMARK    4  A    between atoms: C_15  and  C_16 
REMARK    5  A    between atoms: C_16  and  O_17 
REMARK    6  A    between atoms: C_16  and  C_18 
REMARK    7  A    between atoms: C_21  and  O_22 
ROOT
HETATM    1  C   UNL     1      24.325  47.897  49.691  1.00  0.00     0.255 C 
HETATM    2  N   UNL     1      24.363  46.875  50.610  1.00  0.00    -0.350 N 
HETATM    3  O   UNL     1      25.346  48.358  49.190  1.00  0.00    -0.268 OA
HETATM    4  H   UNL     1      23.512  46.527  51.025  1.00  0.00     0.163 HD
ENDROOT
BRANCH   2   5
HETATM    5  C   UNL     1      25.632  46.338  51.118  1.00  0.00     0.114 C 
HETATM    6  C   UNL     1      26.062  47.137  52.352  1.00  0.00     0.035 C 
BRANCH   5   7
HETATM    7  C   UNL     1      25.497  44.813  51.387  1.00  0.00     0.173 C 
BRANCH   7   8
HETATM    8  O   UNL     1      24.211  44.501  51.933  1.00  0.00    -0.389 OA
HETATM    9  H   UNL     1      23.656  45.292  51.816  1.00  0.00     0.210 HD
ENDBRANCH   7   8
BRANCH   7  10
HETATM   10  C   UNL     1      26.616  44.246  52.240  1.00  0.00    -0.028 A 
HETATM   11  C   UNL     1      26.360  43.916  53.577  1.00  0.00     0.012 A 
HETATM   12  C   UNL     1      27.363  43.365  54.379  1.00  0.00     0.037 A 
HETATM   13  C   UNL     1      28.636  43.124  53.862  1.00  0.00     0.068 A 
HETATM   14  C   UNL     1      28.903  43.453  52.533  1.00  0.00     0.037 A 
HETATM   15  C   UNL     1      27.901  44.011  51.729  1.00  0.00     0.012 A 
BRANCH  13  16
HETATM   16  O   UNL     1      29.516  42.573  54.751  1.00  0.00    -0.356 OA
HETATM   17  C   UNL     1      30.571  43.406  55.212  1.00  0.00     0.210 C 
ENDBRANCH  13  16
ENDBRANCH   7  10
ENDBRANCH   5   7
ENDBRANCH   2   5
BRANCH   1  18
HETATM   18  C   UNL     1      23.011  48.377  49.286  1.00  0.00     0.075 C 
HETATM   19  C   UNL     1      22.471  49.653  49.136  1.00  0.00     0.051 C 
HETATM   20  C   UNL     1      23.090  51.002  49.238  1.00  0.00     0.071 C 
HETATM   21  N   UNL     1      21.121  49.470  48.807  1.00  0.00    -0.220 N 
HETATM   22  N   UNL     1      20.844  48.157  48.575  1.00  0.00    -0.177 NA
HETATM   23  C   UNL     1      21.965  47.517  48.887  1.00  0.00     0.158 C 
BRANCH  21  24
HETATM   24  C   UNL     1      20.072  50.449  48.710  1.00  0.00     0.150 A 
HETATM   25  N   UNL     1      19.543  50.745  47.491  1.00  0.00    -0.241 NA
HETATM   26  C   UNL     1      18.575  51.686  47.445  1.00  0.00     0.119 A 
HETATM   27  C   UNL     1      18.092  52.356  48.555  1.00  0.00     0.019 A 
HETATM   28  C   UNL     1      18.640  52.050  49.793  1.00  0.00     0.005 A 
HETATM   29  C   UNL     1      19.644  51.088  49.876  1.00  0.00     0.052 A 
ENDBRANCH  21  24
ENDBRANCH   1  18
TORSDOF 7
ENDMDL
MODEL 4
REMARK VINA RESULT:      -7.9      2.858      7.945
REMARK  7 active torsions:
REMARK  status: ('A' for Active; 'I' for Inactive)
REMARK    1  A    between atoms: N_3  and  C_4 
REMARK    2  A    between atoms: C_12  and  C_13 
REMARK       I    between atoms: C_13  and  N_14 
REMARK    3  A    between atoms: N_14  and  C_15 
REMARK    4  A    between atoms: C_15  and  C_16 
REMARK    5  A    between atoms: C_16  and  O_17 
REMARK    6  A    between atoms: C_16  and  C_18 
REMARK    7  A    between atoms: C_21  and  O_22 
ROOT
HETATM    1  C   UNL     1      25.973  46.914  52.779  1.00  0.00     0.255 C 
HETATM    2  N   UNL     1      26.097  46.631  51.440  1.00  0.00    -0.350 N 
HETATM    3  O   UNL     1      25.216  47.788  53.191  1.00  0.00    -0.268 OA
HETATM    4  H   UNL     1      26.741  45.922  51.123  1.00  0.00     0.163 HD
ENDROOT
BRANCH   2   5
HETATM    5  C   UNL     1      25.405  47.422  50.414  1.00  0.00     0.114 C 
HETATM    6  C   UNL     1      26.434  48.221  49.610  1.00  0.00     0.035 C 
BRANCH   5   7
HETATM    7  C   UNL     1      24.518  46.497  49.534  1.00  0.00     0.173 C 
BRANCH   7   8
HETATM    8  O   UNL     1      23.133  46.833  49.671  1.00  0.00    -0.389 OA
HETATM    9  H   UNL     1      22.905  46.712  50.609  1.00  0.00     0.210 HD
ENDBRANCH   7   8
BRANCH   7  10
HETATM   10  C   UNL     1      24.758  45.018  49.777  1.00  0.00    -0.028 A 
HETATM   11  C   UNL     1      25.908  44.414  49.250  1.00  0.00     0.012 A 
HETATM   12  C   UNL     1      26.171  43.062  49.481  1.00  0.00     0.037 A 
HETATM   13  C   UNL     1      25.300  42.288  50.248  1.00  0.00     0.068 A 
HETATM   14  C   UNL     1      24.150  42.878  50.774  1.00  0.00     0.037 A 
HETATM   15  C   UNL     1      23.881  44.232  50.538  1.00  0.00     0.012 A 
BRANCH  13  16
HETATM   16  O   UNL     1      25.683  40.985  50.404  1.00  0.00    -0.356 OA
HETATM   17  C   UNL     1      26.887  40.749  51.119  1.00  0.00     0.210 C 
ENDBRANCH  13  16
ENDBRANCH   7  10
ENDBRANCH   5   7
ENDBRANCH   2   5
BRANCH   1  18
HETATM   18  C   UNL     1      26.735  46.088  53.705  1.00  0.00     0.075 C 
HETATM   19  C   UNL     1      27.813  46.354  54.548  1.00  0.00     0.051 C 
HETATM   20  C   UNL     1      28.510  47.624  54.883  1.00  0.00     0.071 C 
HETATM   21  N   UNL     1      28.167  45.128  55.127  1.00  0.00    -0.220 N 
HETATM   22  N   UNL     1      27.260  44.158  54.823  1.00  0.00    -0.177 NA
HETATM   23  C   UNL     1      26.431  44.733  53.960  1.00  0.00     0.158 C 
BRANCH  21  24
HETATM   24  C   UNL     1      29.311  44.806  55.937  1.00  0.00     0.150 A 
HETATM   25  N   UNL     1      29.535  45.501  57.086  1.00  0.00    -0.241 NA
HETATM   26  C   UNL     1      30.634  45.179  57.804  1.00  0.00     0.119 A 
HETATM   27  C   UNL     1      31.533  44.191  57.443  1.00  0.00     0.019 A 
HETATM   28  C   UNL     1      31.298  43.490  56.268  1.00  0.00     0.005 A 
HETATM   29  C   UNL     1      30.177  43.800  55.501  1.00  0.00     0.052 A 
ENDBRANCH  21  24
ENDBRANCH   1  18
TORSDOF 7
ENDMDL
MODEL 5
REMARK VINA RESULT:      -7.9      3.880     10.189
REMARK  7 active torsions:
REMARK  status: ('A' for Active; 'I' for Inactive)
REMARK    1  A    between atoms: N_3  and  C_4 
REMARK    2  A    between atoms: C_12  and  C_13 
REMARK       I    between atoms: C_13  and  N_14 
REMARK    3  A    between atoms: N_14  and  C_15 
REMARK    4  A    between atoms: C_15  and  C_16 
REMARK    5  A    between atoms: C_16  and  O_17 
REMARK    6  A    between atoms: C_16  and  C_18 
REMARK    7  A    between atoms: C_21  and  O_22 
ROOT
HETATM    1  C   UNL     1      24.154  48.040  49.497  1.00  0.00     0.255 C 
HETATM    2  N   UNL     1      22.849  48.463  49.419  1.00  0.00    -0.350 N 
HETATM    3  O   UNL     1      25.071  48.664  48.971  1.00  0.00    -0.268 OA
HETATM    4  H   UNL     1      22.109  47.922  49.841  1.00  0.00     0.163 HD
ENDROOT
BRANCH   2   5
HETATM    5  C   UNL     1      22.461  49.634  48.623  1.00  0.00     0.114 C 
HETATM    6  C   UNL     1      21.430  49.213  47.572  1.00  0.00     0.035 C 
BRANCH   5   7
HETATM    7  C   UNL     1      21.961  50.773  49.557  1.00  0.00     0.173 C 
BRANCH   7   8
HETATM    8  O   UNL     1      22.368  50.541  50.910  1.00  0.00    -0.389 OA
HETATM    9  H   UNL     1      21.584  50.681  51.468  1.00  0.00     0.210 HD
ENDBRANCH   7   8
BRANCH   7  10
HETATM   10  C   UNL     1      20.469  51.025  49.460  1.00  0.00    -0.028 A 
HETATM   11  C   UNL     1      19.589  50.244  50.222  1.00  0.00     0.012 A 
HETATM   12  C   UNL     1      18.212  50.472  50.176  1.00  0.00     0.037 A 
HETATM   13  C   UNL     1      17.685  51.488  49.378  1.00  0.00     0.068 A 
HETATM   14  C   UNL     1      18.550  52.268  48.612  1.00  0.00     0.037 A 
HETATM   15  C   UNL     1      19.931  52.038  48.652  1.00  0.00     0.012 A 
BRANCH  13  16
HETATM   16  O   UNL     1      16.324  51.608  49.436  1.00  0.00    -0.356 OA
HETATM   17  C   UNL     1      15.806  52.868  49.840  1.00  0.00     0.210 C 
ENDBRANCH  13  16
ENDBRANCH   7  10
ENDBRANCH   5   7
ENDBRANCH   2   5
BRANCH   1  18
HETATM   18  C   UNL     1      24.419  46.844  50.284  1.00  0.00     0.075 C 
HETATM   19  C   UNL     1      25.230  46.595  51.391  1.00  0.00     0.051 C 
HETATM   20  C   UNL     1      26.045  47.507  52.238  1.00  0.00     0.071 C 
HETATM   21  N   UNL     1      25.135  45.220  51.643  1.00  0.00    -0.220 N 
HETATM   22  N   UNL     1      24.178  44.641  50.867  1.00  0.00    -0.177 NA
HETATM   23  C   UNL     1      23.780  45.608  50.048  1.00  0.00     0.158 C 
BRANCH  21  24
HETATM   24  C   UNL     1      25.896  44.414  52.559  1.00  0.00     0.150 A 
HETATM   25  N   UNL     1      25.526  44.357  53.868  1.00  0.00    -0.241 NA
HETATM   26  C   UNL     1      26.282  43.603  54.697  1.00  0.00     0.119 A 
HETATM   27  C   UNL     1      27.398  42.891  54.294  1.00  0.00     0.019 A 
HETATM   28  C   UNL     1      27.770  42.958  52.958  1.00  0.00     0.005 A 
HETATM   29  C   UNL     1      27.015  43.730  52.078  1.00  0.00     0.052 A 
ENDBRANCH  21  24
ENDBRANCH   1  18
TORSDOF 7
ENDMDL
MODEL 6
REMARK VINA RESULT:      -7.8      4.452     10.803
REMARK  7 active torsions:
REMARK  status: ('A' for Active; 'I' for Inactive)
REMARK    1  A    between atoms: N_3  and  C_4 
REMARK    2  A    between atoms: C_12  and  C_13 
REMARK       I    between atoms: C_13  and  N_14 
REMARK    3  A    between atoms: N_14  and  C_15 
REMARK    4  A    between atoms: C_15  and  C_16 
REMARK    5  A    between atoms: C_16  and  O_17 
REMARK    6  A    between atoms: C_16  and  C_18 
REMARK    7  A    between atoms: C_21  and  O_22 
ROOT
HETATM    1  C   UNL     1      22.992  47.843  48.896  1.00  0.00     0.255 C 
HETATM    2  N   UNL     1      22.200  48.710  49.609  1.00  0.00    -0.350 N 
HETATM    3  O   UNL     1      22.727  47.523  47.740  1.00  0.00    -0.268 OA
HETATM    4  H   UNL     1      22.426  48.942  50.565  1.00  0.00     0.163 HD
ENDROOT
BRANCH   2   5
HETATM    5  C   UNL     1      20.940  49.233  49.067  1.00  0.00     0.114 C 
HETATM    6  C   UNL     1      19.773  48.397  49.600  1.00  0.00     0.035 C 
BRANCH   5   7
HETATM    7  C   UNL     1      20.810  50.749  49.386  1.00  0.00     0.173 C 
BRANCH   7   8
HETATM    8  O   UNL     1      21.176  51.020  50.743  1.00  0.00    -0.389 OA
HETATM    9  H   UNL     1      20.434  51.507  51.143  1.00  0.00     0.210 HD
ENDBRANCH   7   8
BRANCH   7  10
HETATM   10  C   UNL     1      19.446  51.324  49.052  1.00  0.00    -0.028 A 
HETATM   11  C   UNL     1      18.991  51.287  47.727  1.00  0.00     0.012 A 
HETATM   12  C   UNL     1      17.728  51.782  47.394  1.00  0.00     0.037 A 
HETATM   13  C   UNL     1      16.890  52.314  48.374  1.00  0.00     0.068 A 
HETATM   14  C   UNL     1      17.335  52.360  49.696  1.00  0.00     0.037 A 
HETATM   15  C   UNL     1      18.603  51.870  50.031  1.00  0.00     0.012 A 
BRANCH  13  16
HETATM   16  O   UNL     1      15.680  52.752  47.913  1.00  0.00    -0.356 OA
HETATM   17  C   UNL     1      15.391  52.516  46.542  1.00  0.00     0.210 C 
ENDBRANCH  13  16
ENDBRANCH   7  10
ENDBRANCH   5   7
ENDBRANCH   2   5
BRANCH   1  18
HETATM   18  C   UNL     1      24.201  47.357  49.546  1.00  0.00     0.075 C 
HETATM   19  C   UNL     1      24.535  46.145  50.148  1.00  0.00     0.051 C 
HETATM   20  C   UNL     1      23.794  44.858  50.246  1.00  0.00     0.071 C 
HETATM   21  N   UNL     1      25.820  46.313  50.679  1.00  0.00    -0.220 N 
HETATM   22  N   UNL     1      26.365  47.498  50.287  1.00  0.00    -0.177 NA
HETATM   23  C   UNL     1      25.386  48.118  49.638  1.00  0.00     0.158 C 
BRANCH  21  24
HETATM   24  C   UNL     1      26.565  45.437  51.543  1.00  0.00     0.150 A 
HETATM   25  N   UNL     1      27.327  44.449  50.998  1.00  0.00    -0.241 NA
HETATM   26  C   UNL     1      27.993  43.636  51.848  1.00  0.00     0.119 A 
HETATM   27  C   UNL     1      27.947  43.752  53.226  1.00  0.00     0.019 A 
HETATM   28  C   UNL     1      27.165  44.760  53.772  1.00  0.00     0.005 A 
HETATM   29  C   UNL     1      26.461  45.613  52.924  1.00  0.00     0.052 A 
ENDBRANCH  21  24
ENDBRANCH   1  18
TORSDOF 7
ENDMDL
MODEL 7
REMARK VINA RESULT:      -7.7      2.601      3.944
REMARK  7 active torsions:
REMARK  status: ('A' for Active; 'I' for Inactive)
REMARK    1  A    between atoms: N_3  and  C_4 
REMARK    2  A    between atoms: C_12  and  C_13 
REMARK       I    between atoms: C_13  and  N_14 
REMARK    3  A    between atoms: N_14  and  C_15 
REMARK    4  A    between atoms: C_15  and  C_16 
REMARK    5  A    between atoms: C_16  and  O_17 
REMARK    6  A    between atoms: C_16  and  C_18 
REMARK    7  A    between atoms: C_21  and  O_22 
ROOT
HETATM    1  C   UNL     1      23.821  45.235  48.889  1.00  0.00     0.255 C 
HETATM    2  N   UNL     1      24.611  45.311  50.012  1.00  0.00    -0.350 N 
HETATM    3  O   UNL     1      23.973  44.355  48.047  1.00  0.00    -0.268 OA
HETATM    4  H   UNL     1      24.481  46.056  50.680  1.00  0.00     0.163 HD
ENDROOT
BRANCH   2   5
HETATM    5  C   UNL     1      25.744  44.402  50.225  1.00  0.00     0.114 C 
HETATM    6  C   UNL     1      27.046  45.121  49.861  1.00  0.00     0.035 C 
BRANCH   5   7
HETATM    7  C   UNL     1      25.726  43.857  51.681  1.00  0.00     0.173 C 
BRANCH   7   8
HETATM    8  O   UNL     1      24.425  43.369  52.028  1.00  0.00    -0.389 OA
HETATM    9  H   UNL     1      24.288  43.578  52.968  1.00  0.00     0.210 HD
ENDBRANCH   7   8
BRANCH   7  10
HETATM   10  C   UNL     1      26.240  44.850  52.706  1.00  0.00    -0.028 A 
HETATM   11  C   UNL     1      25.525  46.034  52.934  1.00  0.00     0.012 A 
HETATM   12  C   UNL     1      25.957  46.953  53.892  1.00  0.00     0.037 A 
HETATM   13  C   UNL     1      27.104  46.708  54.648  1.00  0.00     0.068 A 
HETATM   14  C   UNL     1      27.826  45.536  54.426  1.00  0.00     0.037 A 
HETATM   15  C   UNL     1      27.397  44.614  53.461  1.00  0.00     0.012 A 
BRANCH  13  16
HETATM   16  O   UNL     1      27.407  47.685  55.556  1.00  0.00    -0.356 OA
HETATM   17  C   UNL     1      26.386  48.628  55.850  1.00  0.00     0.210 C 
ENDBRANCH  13  16
ENDBRANCH   7  10
ENDBRANCH   5   7
ENDBRANCH   2   5
BRANCH   1  18
HETATM   18  C   UNL     1      22.748  46.211  48.764  1.00  0.00     0.075 C 
HETATM   19  C   UNL     1      22.688  47.589  48.972  1.00  0.00     0.051 C 
HETATM   20  C   UNL     1      23.747  48.581  49.301  1.00  0.00     0.071 C 
HETATM   21  N   UNL     1      21.350  47.955  48.776  1.00  0.00    -0.220 N 
HETATM   22  N   UNL     1      20.620  46.914  48.288  1.00  0.00    -0.177 NA
HETATM   23  C   UNL     1      21.454  45.881  48.310  1.00  0.00     0.158 C 
BRANCH  21  24
HETATM   24  C   UNL     1      20.711  49.218  49.029  1.00  0.00     0.150 A 
HETATM   25  N   UNL     1      19.781  49.312  50.019  1.00  0.00    -0.241 NA
HETATM   26  C   UNL     1      19.191  50.513  50.207  1.00  0.00     0.119 A 
HETATM   27  C   UNL     1      19.479  51.643  49.461  1.00  0.00     0.019 A 
HETATM   28  C   UNL     1      20.426  51.537  48.452  1.00  0.00     0.005 A 
HETATM   29  C   UNL     1      21.049  50.311  48.227  1.00  0.00     0.052 A 
ENDBRANCH  21  24
ENDBRANCH   1  18
TORSDOF 7
ENDMDL
MODEL 8
REMARK VINA RESULT:      -7.6      3.726      7.884
REMARK  7 active torsions:
REMARK  status: ('A' for Active; 'I' for Inactive)
REMARK    1  A    between atoms: N_3  and  C_4 
REMARK    2  A    between atoms: C_12  and  C_13 
REMARK       I    between atoms: C_13  and  N_14 
REMARK    3  A    between atoms: N_14  and  C_15 
REMARK    4  A    between atoms: C_15  and  C_16 
REMARK    5  A    between atoms: C_16  and  O_17 
REMARK    6  A    between atoms: C_16  and  C_18 
REMARK    7  A    between atoms: C_21  and  O_22 
ROOT
HETATM    1  C   UNL     1      25.743  43.420  51.555  1.00  0.00     0.255 C 
HETATM    2  N   UNL     1      25.835  42.960  50.263  1.00  0.00    -0.350 N 
HETATM    3  O   UNL     1      24.663  43.689  52.073  1.00  0.00    -0.268 OA
HETATM    4  H   UNL     1      26.735  42.766  49.851  1.00  0.00     0.163 HD
ENDROOT
BRANCH   2   5
HETATM    5  C   UNL     1      24.656  42.853  49.393  1.00  0.00     0.114 C 
HETATM    6  C   UNL     1      24.413  44.198  48.703  1.00  0.00     0.035 C 
BRANCH   5   7
HETATM    7  C   UNL     1      24.832  41.671  48.399  1.00  0.00     0.173 C 
BRANCH   7   8
HETATM    8  O   UNL     1      23.717  40.777  48.463  1.00  0.00    -0.389 OA
HETATM    9  H   UNL     1      23.126  41.113  49.159  1.00  0.00     0.210 HD
ENDBRANCH   7   8
BRANCH   7  10
HETATM   10  C   UNL     1      26.148  40.933  48.561  1.00  0.00    -0.028 A 
HETATM   11  C   UNL     1      26.247  39.908  49.512  1.00  0.00     0.012 A 
HETATM   12  C   UNL     1      27.436  39.191  49.665  1.00  0.00     0.037 A 
HETATM   13  C   UNL     1      28.545  39.474  48.868  1.00  0.00     0.068 A 
HETATM   14  C   UNL     1      28.460  40.495  47.921  1.00  0.00     0.037 A 
HETATM   15  C   UNL     1      27.270  41.220  47.770  1.00  0.00     0.012 A 
BRANCH  13  16
HETATM   16  O   UNL     1      29.638  38.691  49.115  1.00  0.00    -0.356 OA
HETATM   17  C   UNL     1      29.525  37.743  50.167  1.00  0.00     0.210 C 
ENDBRANCH  13  16
ENDBRANCH   7  10
ENDBRANCH   5   7
ENDBRANCH   2   5
BRANCH   1  18
HETATM   18  C   UNL     1      26.981  43.521  52.314  1.00  0.00     0.075 C 
HETATM   19  C   UNL     1      27.254  43.636  53.676  1.00  0.00     0.051 C 
HETATM   20  C   UNL     1      26.361  43.589  54.866  1.00  0.00     0.071 C 
HETATM   21  N   UNL     1      28.642  43.786  53.786  1.00  0.00    -0.220 N 
HETATM   22  N   UNL     1      29.255  43.594  52.585  1.00  0.00    -0.177 NA
HETATM   23  C   UNL     1      28.259  43.463  51.717  1.00  0.00     0.158 C 
BRANCH  21  24
HETATM   24  C   UNL     1      29.429  44.110  54.945  1.00  0.00     0.150 A 
HETATM   25  N   UNL     1      29.232  45.299  55.578  1.00  0.00    -0.241 NA
HETATM   26  C   UNL     1      30.008  45.571  56.650  1.00  0.00     0.119 A 
HETATM   27  C   UNL     1      30.981  44.716  57.138  1.00  0.00     0.019 A 
HETATM   28  C   UNL     1      31.178  43.507  56.484  1.00  0.00     0.005 A 
HETATM   29  C   UNL     1      30.397  43.198  55.372  1.00  0.00     0.052 A 
ENDBRANCH  21  24
ENDBRANCH   1  18
TORSDOF 7
ENDMDL
MODEL 9
REMARK VINA RESULT:      -7.6     12.707     14.961
REMARK  7 active torsions:
REMARK  status: ('A' for Active; 'I' for Inactive)
REMARK    1  A    between atoms: N_3  and  C_4 
REMARK    2  A    between atoms: C_12  and  C_13 
REMARK       I    between atoms: C_13  and  N_14 
REMARK    3  A    between atoms: N_14  and  C_15 
REMARK    4  A    between atoms: C_15  and  C_16 
REMARK    5  A    between atoms: C_16  and  O_17 
REMARK    6  A    between atoms: C_16  and  C_18 
REMARK    7  A    between atoms: C_21  and  O_22 
ROOT
HETATM    1  C   UNL     1      30.199  48.445  39.547  1.00  0.00     0.255 C 
HETATM    2  N   UNL     1      29.055  48.467  40.308  1.00  0.00    -0.350 N 
HETATM    3  O   UNL     1      30.166  48.283  38.330  1.00  0.00    -0.268 OA
HETATM    4  H   UNL     1      29.108  48.580  41.309  1.00  0.00     0.163 HD
ENDROOT
BRANCH   2   5
HETATM    5  C   UNL     1      27.732  48.204  39.727  1.00  0.00     0.114 C 
HETATM    6  C   UNL     1      27.169  46.908  40.316  1.00  0.00     0.035 C 
BRANCH   5   7
HETATM    7  C   UNL     1      26.803  49.433  39.938  1.00  0.00     0.173 C 
BRANCH   7   8
HETATM    8  O   UNL     1      25.786  49.484  38.932  1.00  0.00    -0.389 OA
HETATM    9  H   UNL     1      25.932  50.301  38.424  1.00  0.00     0.210 HD
ENDBRANCH   7   8
BRANCH   7  10
HETATM   10  C   UNL     1      27.552  50.749  40.039  1.00  0.00    -0.028 A 
HETATM   11  C   UNL     1      28.005  51.373  38.869  1.00  0.00     0.012 A 
HETATM   12  C   UNL     1      28.671  52.599  38.929  1.00  0.00     0.037 A 
HETATM   13  C   UNL     1      28.891  53.231  40.153  1.00  0.00     0.068 A 
HETATM   14  C   UNL     1      28.448  52.617  41.324  1.00  0.00     0.037 A 
HETATM   15  C   UNL     1      27.785  51.384  41.268  1.00  0.00     0.012 A 
BRANCH  13  16
HETATM   16  O   UNL     1      29.545  54.429  40.066  1.00  0.00    -0.356 OA
HETATM   17  C   UNL     1      30.813  54.517  40.699  1.00  0.00     0.210 C 
ENDBRANCH  13  16
ENDBRANCH   7  10
ENDBRANCH   5   7
ENDBRANCH   2   5
BRANCH   1  18
HETATM   18  C   UNL     1      31.460  48.682  40.235  1.00  0.00     0.075 C 
HETATM   19  C   UNL     1      32.203  49.834  40.486  1.00  0.00     0.051 C 
HETATM   20  C   UNL     1      31.911  51.270  40.225  1.00  0.00     0.071 C 
HETATM   21  N   UNL     1      33.380  49.410  41.116  1.00  0.00    -0.220 N 
HETATM   22  N   UNL     1      33.324  48.085  41.425  1.00  0.00    -0.177 NA
HETATM   23  C   UNL     1      32.194  47.660  40.875  1.00  0.00     0.158 C 
BRANCH  21  24
HETATM   24  C   UNL     1      34.559  50.169  41.437  1.00  0.00     0.150 A 
HETATM   25  N   UNL     1      35.653  50.079  40.632  1.00  0.00    -0.241 NA
HETATM   26  C   UNL     1      36.746  50.793  40.983  1.00  0.00     0.119 A 
HETATM   27  C   UNL     1      36.813  51.605  42.101  1.00  0.00     0.019 A 
HETATM   28  C   UNL     1      35.694  51.688  42.918  1.00  0.00     0.005 A 
HETATM   29  C   UNL     1      34.552  50.960  42.588  1.00  0.00     0.052 A 
ENDBRANCH  21  24
ENDBRANCH   1  18
TORSDOF 7
ENDMDL
MODEL 10
REMARK VINA RESULT:      -7.6      3.208      7.945
REMARK  7 active torsions:
REMARK  status: ('A' for Active; 'I' for Inactive)
REMARK    1  A    between atoms: N_3  and  C_4 
REMARK    2  A    between atoms: C_12  and  C_13 
REMARK       I    between atoms: C_13  and  N_14 
REMARK    3  A    between atoms: N_14  and  C_15 
REMARK    4  A    between atoms: C_15  and  C_16 
REMARK    5  A    between atoms: C_16  and  O_17 
REMARK    6  A    between atoms: C_16  and  C_18 
REMARK    7  A    between atoms: C_21  and  O_22 
ROOT
HETATM    1  C   UNL     1      26.110  46.097  52.644  1.00  0.00     0.255 C 
HETATM    2  N   UNL     1      26.030  44.958  51.878  1.00  0.00    -0.350 N 
HETATM    3  O   UNL     1      25.354  47.049  52.472  1.00  0.00    -0.268 OA
HETATM    4  H   UNL     1      26.676  44.197  52.023  1.00  0.00     0.163 HD
ENDROOT
BRANCH   2   5
HETATM    5  C   UNL     1      25.099  44.848  50.748  1.00  0.00     0.114 C 
HETATM    6  C   UNL     1      25.736  45.476  49.505  1.00  0.00     0.035 C 
BRANCH   5   7
HETATM    7  C   UNL     1      24.679  43.366  50.545  1.00  0.00     0.173 C 
BRANCH   7   8
HETATM    8  O   UNL     1      24.011  42.859  51.705  1.00  0.00    -0.389 OA
HETATM    9  H   UNL     1      24.548  42.120  52.039  1.00  0.00     0.210 HD
ENDBRANCH   7   8
BRANCH   7  10
HETATM   10  C   UNL     1      25.824  42.463  50.124  1.00  0.00    -0.028 A 
HETATM   11  C   UNL     1      26.014  42.184  48.763  1.00  0.00     0.012 A 
HETATM   12  C   UNL     1      27.076  41.381  48.343  1.00  0.00     0.037 A 
HETATM   13  C   UNL     1      27.975  40.848  49.267  1.00  0.00     0.068 A 
HETATM   14  C   UNL     1      27.793  41.115  50.624  1.00  0.00     0.037 A 
HETATM   15  C   UNL     1      26.725  41.916  51.049  1.00  0.00     0.012 A 
BRANCH  13  16
HETATM   16  O   UNL     1      28.972  40.090  48.719  1.00  0.00    -0.356 OA
HETATM   17  C   UNL     1      28.903  38.686  48.930  1.00  0.00     0.210 C 
ENDBRANCH  13  16
ENDBRANCH   7  10
ENDBRANCH   5   7
ENDBRANCH   2   5
BRANCH   1  18
HETATM   18  C   UNL     1      27.096  46.109  53.716  1.00  0.00     0.075 C 
HETATM   19  C   UNL     1      28.132  45.244  54.063  1.00  0.00     0.051 C 
HETATM   20  C   UNL     1      28.674  44.035  53.386  1.00  0.00     0.071 C 
HETATM   21  N   UNL     1      28.676  45.745  55.254  1.00  0.00    -0.220 N 
HETATM   22  N   UNL     1      28.149  46.962  55.563  1.00  0.00    -0.177 NA
HETATM   23  C   UNL     1      27.197  47.155  54.658  1.00  0.00     0.158 C 
BRANCH  21  24
HETATM   24  C   UNL     1      29.650  45.146  56.126  1.00  0.00     0.150 A 
HETATM   25  N   UNL     1      29.865  45.682  57.359  1.00  0.00    -0.241 NA
HETATM   26  C   UNL     1      30.803  45.099  58.136  1.00  0.00     0.119 A 
HETATM   27  C   UNL     1      31.550  43.998  57.756  1.00  0.00     0.019 A 
HETATM   28  C   UNL     1      31.326  43.460  56.496  1.00  0.00     0.005 A 
HETATM   29  C   UNL     1      30.368  44.040  55.666  1.00  0.00     0.052 A 
ENDBRANCH  21  24
ENDBRANCH   1  18
TORSDOF 7
ENDMDL
