MODEL 1
REMARK VINA RESULT:      -8.7      0.000      0.000
REMARK  3 active torsions:
REMARK  status: ('A' for Active; 'I' for Inactive)
REMARK    1  A    between atoms: C_2  and  C_3 
REMARK    2  A    between atoms: C_9  and  C_10 
REMARK    3  A    between atoms: C_23  and  N_24 
ROOT
HETATM    1  C   UNL     1      25.644  47.289  50.113  1.00  0.00     0.066 A 
HETATM    2  N   UNL     1      24.625  48.064  49.699  1.00  0.00    -0.177 NA
HETATM    3  N   UNL     1      23.587  47.213  49.575  1.00  0.00    -0.256 N 
HETATM    4  H   UNL     1      22.695  47.572  49.255  1.00  0.00     0.191 HD
HETATM    5  C   UNL     1      23.919  45.934  49.880  1.00  0.00     0.175 A 
HETATM    6  C   UNL     1      25.234  45.942  50.267  1.00  0.00     0.035 A 
HETATM    7  C   UNL     1      25.904  44.667  50.652  1.00  0.00     0.106 A 
HETATM    8  C   UNL     1      24.964  43.478  50.411  1.00  0.00     0.081 A 
HETATM    9  C   UNL     1      25.522  42.180  50.591  1.00  0.00     0.100 C 
HETATM   10  N   UNL     1      25.969  41.118  50.737  1.00  0.00    -0.191 NA
HETATM   11  C   UNL     1      23.670  43.627  50.008  1.00  0.00     0.140 A 
HETATM   12  O   UNL     1      23.101  44.894  49.780  1.00  0.00    -0.279 OA
ENDROOT
BRANCH   7  13
HETATM   13  C   UNL     1      26.301  44.822  52.124  1.00  0.00    -0.033 A 
HETATM   14  C   UNL     1      27.510  44.269  52.656  1.00  0.00    -0.019 A 
HETATM   15  C   UNL     1      27.787  44.450  54.040  1.00  0.00    -0.025 A 
HETATM   16  C   UNL     1      28.472  43.546  51.907  1.00  0.00     0.013 A 
HETATM   17  C   UNL     1      28.965  43.935  54.605  1.00  0.00     0.012 A 
HETATM   18  C   UNL     1      26.888  45.145  54.858  1.00  0.00     0.012 A 
HETATM   19  C   UNL     1      29.888  43.237  53.834  1.00  0.00     0.001 A 
HETATM   20  C   UNL     1      29.641  43.041  52.484  1.00  0.00     0.001 A 
HETATM   21  C   UNL     1      25.713  45.673  54.342  1.00  0.00     0.001 A 
HETATM   22  C   UNL     1      25.423  45.514  52.993  1.00  0.00     0.009 A 
ENDBRANCH   7  13
BRANCH  11  23
HETATM   23  N   UNL     1      22.784  42.600  49.778  1.00  0.00    -0.282 NA
HETATM   24  H   UNL     1      23.068  41.687  50.125  1.00  0.00     0.126 HD
HETATM   25  H   UNL     1      21.833  42.847  50.039  1.00  0.00     0.126 HD
ENDBRANCH  11  23
BRANCH   1  26
HETATM   26  C   UNL     1      26.995  47.888  50.317  1.00  0.00     0.057 C 
HETATM   27  C   UNL     1      27.395  48.840  49.201  1.00  0.00     0.011 C 
ENDBRANCH   1  26
TORSDOF 3
ENDMDL
MODEL 2
REMARK VINA RESULT:      -8.5      2.560      5.828
REMARK  3 active torsions:
REMARK  status: ('A' for Active; 'I' for Inactive)
REMARK    1  A    between atoms: C_2  and  C_3 
REMARK    2  A    between atoms: C_9  and  C_10 
REMARK    3  A    between atoms: C_23  and  N_24 
ROOT
HETATM    1  C   UNL     1      26.283  46.184  52.824  1.00  0.00     0.066 A 
HETATM    2  N   UNL     1      27.220  45.492  53.497  1.00  0.00    -0.177 NA
HETATM    3  N   UNL     1      27.503  44.446  52.695  1.00  0.00    -0.256 N 
HETATM    4  H   UNL     1      28.186  43.763  53.003  1.00  0.00     0.191 HD
HETATM    5  C   UNL     1      26.769  44.447  51.555  1.00  0.00     0.175 A 
HETATM    6  C   UNL     1      25.989  45.574  51.580  1.00  0.00     0.035 A 
HETATM    7  C   UNL     1      25.045  45.852  50.459  1.00  0.00     0.106 A 
HETATM    8  C   UNL     1      25.034  44.678  49.471  1.00  0.00     0.081 A 
HETATM    9  C   UNL     1      24.066  44.736  48.427  1.00  0.00     0.100 C 
HETATM   10  N   UNL     1      23.281  44.776  47.573  1.00  0.00    -0.191 NA
HETATM   11  C   UNL     1      25.868  43.606  49.584  1.00  0.00     0.140 A 
HETATM   12  O   UNL     1      26.806  43.498  50.628  1.00  0.00    -0.279 OA
ENDROOT
BRANCH   7  13
HETATM   13  C   UNL     1      25.517  47.162  49.821  1.00  0.00    -0.033 A 
HETATM   14  C   UNL     1      24.605  48.169  49.370  1.00  0.00    -0.019 A 
HETATM   15  C   UNL     1      25.135  49.348  48.774  1.00  0.00    -0.025 A 
HETATM   16  C   UNL     1      23.193  48.092  49.471  1.00  0.00     0.013 A 
HETATM   17  C   UNL     1      24.281  50.368  48.327  1.00  0.00     0.012 A 
HETATM   18  C   UNL     1      26.519  49.506  48.626  1.00  0.00     0.012 A 
HETATM   19  C   UNL     1      22.899  50.256  48.451  1.00  0.00     0.001 A 
HETATM   20  C   UNL     1      22.356  49.117  49.023  1.00  0.00     0.001 A 
HETATM   21  C   UNL     1      27.401  48.525  49.057  1.00  0.00     0.001 A 
HETATM   22  C   UNL     1      26.907  47.369  49.646  1.00  0.00     0.009 A 
ENDBRANCH   7  13
BRANCH  11  23
HETATM   23  N   UNL     1      25.903  42.529  48.728  1.00  0.00    -0.282 NA
HETATM   24  H   UNL     1      26.220  41.652  49.136  1.00  0.00     0.126 HD
HETATM   25  H   UNL     1      25.042  42.433  48.196  1.00  0.00     0.126 HD
ENDBRANCH  11  23
BRANCH   1  26
HETATM   26  C   UNL     1      25.683  47.406  53.435  1.00  0.00     0.057 C 
HETATM   27  C   UNL     1      26.322  47.779  54.763  1.00  0.00     0.011 C 
ENDBRANCH   1  26
TORSDOF 3
ENDMDL
MODEL 3
REMARK VINA RESULT:      -8.4     11.211     13.062
REMARK  3 active torsions:
REMARK  status: ('A' for Active; 'I' for Inactive)
REMARK    1  A    between atoms: C_2  and  C_3 
REMARK    2  A    between atoms: C_9  and  C_10 
REMARK    3  A    between atoms: C_23  and  N_24 
ROOT
HETATM    1  C   UNL     1      28.896  52.567  40.530  1.00  0.00     0.066 A 
HETATM    2  N   UNL     1      27.723  53.030  40.997  1.00  0.00    -0.177 NA
HETATM    3  N   UNL     1      27.093  51.934  41.465  1.00  0.00    -0.256 N 
HETATM    4  H   UNL     1      26.165  52.034  41.861  1.00  0.00     0.191 HD
HETATM    5  C   UNL     1      27.818  50.801  41.296  1.00  0.00     0.175 A 
HETATM    6  C   UNL     1      29.009  51.168  40.724  1.00  0.00     0.035 A 
HETATM    7  C   UNL     1      30.027  50.130  40.393  1.00  0.00     0.106 A 
HETATM    8  C   UNL     1      29.464  48.728  40.663  1.00  0.00     0.081 A 
HETATM    9  C   UNL     1      30.272  47.629  40.250  1.00  0.00     0.100 C 
HETATM   10  N   UNL     1      30.924  46.728  39.918  1.00  0.00    -0.191 NA
HETATM   11  C   UNL     1      28.243  48.517  41.231  1.00  0.00     0.140 A 
HETATM   12  O   UNL     1      27.404  49.580  41.610  1.00  0.00    -0.279 OA
ENDROOT
BRANCH   7  13
HETATM   13  C   UNL     1      31.257  50.452  41.249  1.00  0.00    -0.033 A 
HETATM   14  C   UNL     1      32.483  50.930  40.684  1.00  0.00    -0.019 A 
HETATM   15  C   UNL     1      33.577  51.187  41.556  1.00  0.00    -0.025 A 
HETATM   16  C   UNL     1      32.701  51.176  39.305  1.00  0.00     0.013 A 
HETATM   17  C   UNL     1      34.796  51.666  41.050  1.00  0.00     0.012 A 
HETATM   18  C   UNL     1      33.454  50.963  42.933  1.00  0.00     0.012 A 
HETATM   19  C   UNL     1      34.967  51.902  39.690  1.00  0.00     0.001 A 
HETATM   20  C   UNL     1      33.920  51.656  38.817  1.00  0.00     0.001 A 
HETATM   21  C   UNL     1      32.267  50.493  43.478  1.00  0.00     0.001 A 
HETATM   22  C   UNL     1      31.183  50.240  42.647  1.00  0.00     0.009 A 
ENDBRANCH   7  13
BRANCH  11  23
HETATM   23  N   UNL     1      27.690  47.285  41.496  1.00  0.00    -0.282 NA
HETATM   24  H   UNL     1      27.583  46.668  40.695  1.00  0.00     0.126 HD
HETATM   25  H   UNL     1      28.128  46.831  42.294  1.00  0.00     0.126 HD
ENDBRANCH  11  23
BRANCH   1  26
HETATM   26  C   UNL     1      29.858  53.504  39.880  1.00  0.00     0.057 C 
HETATM   27  C   UNL     1      30.878  54.074  40.853  1.00  0.00     0.011 C 
ENDBRANCH   1  26
TORSDOF 3
ENDMDL
MODEL 4
REMARK VINA RESULT:      -8.2     11.603     14.045
REMARK  3 active torsions:
REMARK  status: ('A' for Active; 'I' for Inactive)
REMARK    1  A    between atoms: C_2  and  C_3 
REMARK    2  A    between atoms: C_9  and  C_10 
REMARK    3  A    between atoms: C_23  and  N_24 
ROOT
HETATM    1  C   UNL     1      29.747  48.930  40.822  1.00  0.00     0.066 A 
HETATM    2  N   UNL     1      29.198  48.013  40.006  1.00  0.00    -0.177 NA
HETATM    3  N   UNL     1      28.834  48.713  38.913  1.00  0.00    -0.256 N 
HETATM    4  H   UNL     1      28.377  48.227  38.150  1.00  0.00     0.191 HD
HETATM    5  C   UNL     1      29.118  50.034  39.019  1.00  0.00     0.175 A 
HETATM    6  C   UNL     1      29.741  50.215  40.227  1.00  0.00     0.035 A 
HETATM    7  C   UNL     1      30.166  51.581  40.648  1.00  0.00     0.106 A 
HETATM    8  C   UNL     1      29.685  52.624  39.631  1.00  0.00     0.081 A 
HETATM    9  C   UNL     1      29.887  53.991  39.980  1.00  0.00     0.100 C 
HETATM   10  N   UNL     1      30.049  55.107  40.256  1.00  0.00    -0.191 NA
HETATM   11  C   UNL     1      29.060  52.291  38.467  1.00  0.00     0.140 A 
HETATM   12  O   UNL     1      28.807  50.953  38.114  1.00  0.00    -0.279 OA
ENDROOT
BRANCH   7  13
HETATM   13  C   UNL     1      31.692  51.532  40.773  1.00  0.00    -0.033 A 
HETATM   14  C   UNL     1      32.366  51.676  42.028  1.00  0.00    -0.019 A 
HETATM   15  C   UNL     1      33.788  51.633  42.045  1.00  0.00    -0.025 A 
HETATM   16  C   UNL     1      31.724  51.857  43.280  1.00  0.00     0.013 A 
HETATM   17  C   UNL     1      34.492  51.758  43.253  1.00  0.00     0.012 A 
HETATM   18  C   UNL     1      34.506  51.466  40.854  1.00  0.00     0.012 A 
HETATM   19  C   UNL     1      33.824  51.928  44.462  1.00  0.00     0.001 A 
HETATM   20  C   UNL     1      32.439  51.977  44.474  1.00  0.00     0.001 A 
HETATM   21  C   UNL     1      33.852  51.335  39.637  1.00  0.00     0.001 A 
HETATM   22  C   UNL     1      32.463  51.368  39.597  1.00  0.00     0.009 A 
ENDBRANCH   7  13
BRANCH  11  23
HETATM   23  N   UNL     1      28.609  53.183  37.520  1.00  0.00    -0.282 NA
HETATM   24  H   UNL     1      27.729  53.645  37.734  1.00  0.00     0.126 HD
HETATM   25  H   UNL     1      29.337  53.827  37.222  1.00  0.00     0.126 HD
ENDBRANCH  11  23
BRANCH   1  26
HETATM   26  C   UNL     1      30.231  48.524  42.174  1.00  0.00     0.057 C 
HETATM   27  C   UNL     1      31.730  48.275  42.215  1.00  0.00     0.011 C 
ENDBRANCH   1  26
TORSDOF 3
ENDMDL
MODEL 5
REMARK VINA RESULT:      -8.1     12.826     15.210
REMARK  3 active torsions:
REMARK  status: ('A' for Active; 'I' for Inactive)
REMARK    1  A    between atoms: C_2  and  C_3 
REMARK    2  A    between atoms: C_9  and  C_10 
REMARK    3  A    between atoms: C_23  and  N_24 
ROOT
HETATM    1  C   UNL     1      32.100  48.347  40.444  1.00  0.00     0.066 A 
HETATM    2  N   UNL     1      32.523  47.308  41.187  1.00  0.00    -0.177 NA
HETATM    3  N   UNL     1      33.654  47.752  41.769  1.00  0.00    -0.256 N 
HETATM    4  H   UNL     1      34.170  47.126  42.377  1.00  0.00     0.191 HD
HETATM    5  C   UNL     1      33.966  49.022  41.408  1.00  0.00     0.175 A 
HETATM    6  C   UNL     1      32.967  49.459  40.576  1.00  0.00     0.035 A 
HETATM    7  C   UNL     1      33.033  50.829  39.991  1.00  0.00     0.106 A 
HETATM    8  C   UNL     1      34.363  51.500  40.358  1.00  0.00     0.081 A 
HETATM    9  C   UNL     1      34.632  52.757  39.742  1.00  0.00     0.100 C 
HETATM   10  N   UNL     1      34.858  53.781  39.245  1.00  0.00    -0.191 NA
HETATM   11  C   UNL     1      35.274  50.930  41.196  1.00  0.00     0.140 A 
HETATM   12  O   UNL     1      35.058  49.672  41.787  1.00  0.00    -0.279 OA
ENDROOT
BRANCH   7  13
HETATM   13  C   UNL     1      31.816  51.583  40.535  1.00  0.00    -0.033 A 
HETATM   14  C   UNL     1      30.729  51.993  39.698  1.00  0.00    -0.019 A 
HETATM   15  C   UNL     1      29.647  52.704  40.290  1.00  0.00    -0.025 A 
HETATM   16  C   UNL     1      30.635  51.743  38.306  1.00  0.00     0.013 A 
HETATM   17  C   UNL     1      28.554  53.116  39.512  1.00  0.00     0.012 A 
HETATM   18  C   UNL     1      29.659  53.002  41.658  1.00  0.00     0.012 A 
HETATM   19  C   UNL     1      28.497  52.845  38.148  1.00  0.00     0.001 A 
HETATM   20  C   UNL     1      29.539  52.159  37.545  1.00  0.00     0.001 A 
HETATM   21  C   UNL     1      30.718  52.611  42.466  1.00  0.00     0.001 A 
HETATM   22  C   UNL     1      31.782  51.911  41.912  1.00  0.00     0.009 A 
ENDBRANCH   7  13
BRANCH  11  23
HETATM   23  N   UNL     1      36.479  51.487  41.561  1.00  0.00    -0.282 NA
HETATM   24  H   UNL     1      37.037  51.868  40.800  1.00  0.00     0.126 HD
HETATM   25  H   UNL     1      36.386  52.125  42.346  1.00  0.00     0.126 HD
ENDBRANCH  11  23
BRANCH   1  26
HETATM   26  C   UNL     1      30.875  48.207  39.603  1.00  0.00     0.057 C 
HETATM   27  C   UNL     1      29.600  48.556  40.352  1.00  0.00     0.011 C 
ENDBRANCH   1  26
TORSDOF 3
ENDMDL
MODEL 6
REMARK VINA RESULT:      -7.8     11.726     13.797
REMARK  3 active torsions:
REMARK  status: ('A' for Active; 'I' for Inactive)
REMARK    1  A    between atoms: C_2  and  C_3 
REMARK    2  A    between atoms: C_9  and  C_10 
REMARK    3  A    between atoms: C_23  and  N_24 
ROOT
HETATM    1  C   UNL     1      32.929  50.124  41.604  1.00  0.00     0.066 A 
HETATM    2  N   UNL     1      33.640  50.764  42.550  1.00  0.00    -0.177 NA
HETATM    3  N   UNL     1      33.093  51.995  42.602  1.00  0.00    -0.256 N 
HETATM    4  H   UNL     1      33.480  52.676  43.246  1.00  0.00     0.191 HD
HETATM    5  C   UNL     1      32.079  52.156  41.716  1.00  0.00     0.175 A 
HETATM    6  C   UNL     1      31.916  50.957  41.071  1.00  0.00     0.035 A 
HETATM    7  C   UNL     1      30.875  50.818  40.012  1.00  0.00     0.106 A 
HETATM    8  C   UNL     1      30.214  52.175  39.735  1.00  0.00     0.081 A 
HETATM    9  C   UNL     1      29.305  52.226  38.638  1.00  0.00     0.100 C 
HETATM   10  N   UNL     1      28.562  52.276  37.748  1.00  0.00    -0.191 NA
HETATM   11  C   UNL     1      30.492  53.296  40.458  1.00  0.00     0.140 A 
HETATM   12  O   UNL     1      31.416  53.288  41.520  1.00  0.00    -0.279 OA
ENDROOT
BRANCH   7  13
HETATM   13  C   UNL     1      29.885  49.767  40.523  1.00  0.00    -0.033 A 
HETATM   14  C   UNL     1      29.772  48.467  39.934  1.00  0.00    -0.019 A 
HETATM   15  C   UNL     1      28.812  47.561  40.466  1.00  0.00    -0.025 A 
HETATM   16  C   UNL     1      30.553  47.995  38.848  1.00  0.00     0.013 A 
HETATM   17  C   UNL     1      28.672  46.272  39.929  1.00  0.00     0.012 A 
HETATM   18  C   UNL     1      27.992  47.945  41.534  1.00  0.00     0.012 A 
HETATM   19  C   UNL     1      29.463  45.845  38.867  1.00  0.00     0.001 A 
HETATM   20  C   UNL     1      30.403  46.707  38.326  1.00  0.00     0.001 A 
HETATM   21  C   UNL     1      28.097  49.209  42.099  1.00  0.00     0.001 A 
HETATM   22  C   UNL     1      29.031  50.108  41.600  1.00  0.00     0.009 A 
ENDBRANCH   7  13
BRANCH  11  23
HETATM   23  N   UNL     1      29.928  54.535  40.256  1.00  0.00    -0.282 NA
HETATM   24  H   UNL     1      29.131  54.759  40.847  1.00  0.00     0.126 HD
HETATM   25  H   UNL     1      30.626  55.274  40.230  1.00  0.00     0.126 HD
ENDBRANCH  11  23
BRANCH   1  26
HETATM   26  C   UNL     1      33.285  48.724  41.231  1.00  0.00     0.057 C 
HETATM   27  C   UNL     1      32.510  47.684  42.023  1.00  0.00     0.011 C 
ENDBRANCH   1  26
TORSDOF 3
ENDMDL
MODEL 7
REMARK VINA RESULT:      -7.6     17.684     20.010
REMARK  3 active torsions:
REMARK  status: ('A' for Active; 'I' for Inactive)
REMARK    1  A    between atoms: C_2  and  C_3 
REMARK    2  A    between atoms: C_9  and  C_10 
REMARK    3  A    between atoms: C_23  and  N_24 
ROOT
HETATM    1  C   UNL     1      37.811  44.009  64.905  1.00  0.00     0.066 A 
HETATM    2  N   UNL     1      37.256  45.007  64.193  1.00  0.00    -0.177 NA
HETATM    3  N   UNL     1      38.299  45.598  63.576  1.00  0.00    -0.256 N 
HETATM    4  H   UNL     1      38.125  46.401  62.983  1.00  0.00     0.191 HD
HETATM    5  C   UNL     1      39.486  45.020  63.885  1.00  0.00     0.175 A 
HETATM    6  C   UNL     1      39.214  43.964  64.717  1.00  0.00     0.035 A 
HETATM    7  C   UNL     1      40.330  43.131  65.251  1.00  0.00     0.106 A 
HETATM    8  C   UNL     1      41.682  43.727  64.837  1.00  0.00     0.081 A 
HETATM    9  C   UNL     1      42.842  43.121  65.403  1.00  0.00     0.100 C 
HETATM   10  N   UNL     1      43.792  42.633  65.858  1.00  0.00    -0.191 NA
HETATM   11  C   UNL     1      41.796  44.800  64.005  1.00  0.00     0.140 A 
HETATM   12  O   UNL     1      40.669  45.447  63.464  1.00  0.00    -0.279 OA
ENDROOT
BRANCH   7  13
HETATM   13  C   UNL     1      40.108  41.719  64.700  1.00  0.00    -0.033 A 
HETATM   14  C   UNL     1      40.336  40.543  65.485  1.00  0.00    -0.019 A 
HETATM   15  C   UNL     1      40.118  39.273  64.883  1.00  0.00    -0.025 A 
HETATM   16  C   UNL     1      40.765  40.538  66.836  1.00  0.00     0.013 A 
HETATM   17  C   UNL     1      40.318  38.092  65.616  1.00  0.00     0.012 A 
HETATM   18  C   UNL     1      39.701  39.182  63.549  1.00  0.00     0.012 A 
HETATM   19  C   UNL     1      40.733  38.130  66.943  1.00  0.00     0.001 A 
HETATM   20  C   UNL     1      40.958  39.354  67.553  1.00  0.00     0.001 A 
HETATM   21  C   UNL     1      39.488  40.323  62.787  1.00  0.00     0.001 A 
HETATM   22  C   UNL     1      39.689  41.575  63.355  1.00  0.00     0.009 A 
ENDBRANCH   7  13
BRANCH  11  23
HETATM   23  N   UNL     1      42.980  45.373  63.601  1.00  0.00    -0.282 NA
HETATM   24  H   UNL     1      42.959  45.834  62.694  1.00  0.00     0.126 HD
HETATM   25  H   UNL     1      43.400  45.944  64.330  1.00  0.00     0.126 HD
ENDBRANCH  11  23
BRANCH   1  26
HETATM   26  C   UNL     1      36.952  43.149  65.770  1.00  0.00     0.057 C 
HETATM   27  C   UNL     1      36.438  41.912  65.052  1.00  0.00     0.011 C 
ENDBRANCH   1  26
TORSDOF 3
ENDMDL
MODEL 8
REMARK VINA RESULT:      -7.5      6.134      9.857
REMARK  3 active torsions:
REMARK  status: ('A' for Active; 'I' for Inactive)
REMARK    1  A    between atoms: C_2  and  C_3 
REMARK    2  A    between atoms: C_9  and  C_10 
REMARK    3  A    between atoms: C_23  and  N_24 
ROOT
HETATM    1  C   UNL     1      18.840  46.660  47.612  1.00  0.00     0.066 A 
HETATM    2  N   UNL     1      18.692  45.462  48.205  1.00  0.00    -0.177 NA
HETATM    3  N   UNL     1      19.844  45.278  48.880  1.00  0.00    -0.256 N 
HETATM    4  H   UNL     1      19.973  44.419  49.403  1.00  0.00     0.191 HD
HETATM    5  C   UNL     1      20.714  46.306  48.721  1.00  0.00     0.175 A 
HETATM    6  C   UNL     1      20.092  47.240  47.934  1.00  0.00     0.035 A 
HETATM    7  C   UNL     1      20.808  48.494  47.561  1.00  0.00     0.106 A 
HETATM    8  C   UNL     1      22.257  48.448  48.063  1.00  0.00     0.081 A 
HETATM    9  C   UNL     1      23.107  49.515  47.648  1.00  0.00     0.100 C 
HETATM   10  N   UNL     1      23.805  50.380  47.316  1.00  0.00    -0.191 NA
HETATM   11  C   UNL     1      22.742  47.435  48.834  1.00  0.00     0.140 A 
HETATM   12  O   UNL     1      21.941  46.346  49.224  1.00  0.00    -0.279 OA
ENDROOT
BRANCH   7  13
HETATM   13  C   UNL     1      20.001  49.643  48.175  1.00  0.00    -0.033 A 
HETATM   14  C   UNL     1      19.154  50.492  47.392  1.00  0.00    -0.019 A 
HETATM   15  C   UNL     1      18.456  51.544  48.047  1.00  0.00    -0.025 A 
HETATM   16  C   UNL     1      18.946  50.367  45.995  1.00  0.00     0.013 A 
HETATM   17  C   UNL     1      17.606  52.395  47.324  1.00  0.00     0.012 A 
HETATM   18  C   UNL     1      18.609  51.747  49.425  1.00  0.00     0.012 A 
HETATM   19  C   UNL     1      17.422  52.235  45.954  1.00  0.00     0.001 A 
HETATM   20  C   UNL     1      18.093  51.221  45.290  1.00  0.00     0.001 A 
HETATM   21  C   UNL     1      19.437  50.928  50.180  1.00  0.00     0.001 A 
HETATM   22  C   UNL     1      20.124  49.890  49.564  1.00  0.00     0.009 A 
ENDBRANCH   7  13
BRANCH  11  23
HETATM   23  N   UNL     1      24.030  47.343  49.312  1.00  0.00    -0.282 NA
HETATM   24  H   UNL     1      24.734  47.067  48.632  1.00  0.00     0.126 HD
HETATM   25  H   UNL     1      24.297  48.160  49.855  1.00  0.00     0.126 HD
ENDBRANCH  11  23
BRANCH   1  26
HETATM   26  C   UNL     1      17.763  47.187  46.725  1.00  0.00     0.057 C 
HETATM   27  C   UNL     1      16.606  47.801  47.497  1.00  0.00     0.011 C 
ENDBRANCH   1  26
TORSDOF 3
ENDMDL
MODEL 9
REMARK VINA RESULT:      -7.5      9.148     12.388
REMARK  3 active torsions:
REMARK  status: ('A' for Active; 'I' for Inactive)
REMARK    1  A    between atoms: C_2  and  C_3 
REMARK    2  A    between atoms: C_9  and  C_10 
REMARK    3  A    between atoms: C_23  and  N_24 
ROOT
HETATM    1  C   UNL     1      18.677  50.922  49.548  1.00  0.00     0.066 A 
HETATM    2  N   UNL     1      19.698  50.458  50.290  1.00  0.00    -0.177 NA
HETATM    3  N   UNL     1      19.663  49.123  50.111  1.00  0.00    -0.256 N 
HETATM    4  H   UNL     1      20.343  48.546  50.593  1.00  0.00     0.191 HD
HETATM    5  C   UNL     1      18.650  48.730  49.300  1.00  0.00     0.175 A 
HETATM    6  C   UNL     1      18.005  49.866  48.883  1.00  0.00     0.035 A 
HETATM    7  C   UNL     1      16.821  49.762  47.983  1.00  0.00     0.106 A 
HETATM    8  C   UNL     1      16.442  48.290  47.771  1.00  0.00     0.081 A 
HETATM    9  C   UNL     1      15.236  48.042  47.054  1.00  0.00     0.100 C 
HETATM   10  N   UNL     1      14.256  47.831  46.469  1.00  0.00    -0.191 NA
HETATM   11  C   UNL     1      17.181  47.257  48.264  1.00  0.00     0.140 A 
HETATM   12  O   UNL     1      18.354  47.469  49.012  1.00  0.00    -0.279 OA
ENDROOT
BRANCH   7  13
HETATM   13  C   UNL     1      17.212  50.470  46.682  1.00  0.00    -0.033 A 
HETATM   14  C   UNL     1      16.499  51.604  46.179  1.00  0.00    -0.019 A 
HETATM   15  C   UNL     1      16.925  52.186  44.953  1.00  0.00    -0.025 A 
HETATM   16  C   UNL     1      15.385  52.210  46.814  1.00  0.00     0.013 A 
HETATM   17  C   UNL     1      16.264  53.307  44.426  1.00  0.00     0.012 A 
HETATM   18  C   UNL     1      18.013  51.648  44.253  1.00  0.00     0.012 A 
HETATM   19  C   UNL     1      15.178  53.877  45.083  1.00  0.00     0.001 A 
HETATM   20  C   UNL     1      14.738  53.328  46.277  1.00  0.00     0.001 A 
HETATM   21  C   UNL     1      18.698  50.542  44.738  1.00  0.00     0.001 A 
HETATM   22  C   UNL     1      18.303  49.961  45.936  1.00  0.00     0.009 A 
ENDBRANCH   7  13
BRANCH  11  23
HETATM   23  N   UNL     1      16.891  45.921  48.103  1.00  0.00    -0.282 NA
HETATM   24  H   UNL     1      17.579  45.272  48.477  1.00  0.00     0.126 HD
HETATM   25  H   UNL     1      15.939  45.698  48.382  1.00  0.00     0.126 HD
ENDBRANCH  11  23
BRANCH   1  26
HETATM   26  C   UNL     1      18.371  52.382  49.536  1.00  0.00     0.057 C 
HETATM   27  C   UNL     1      16.948  52.693  49.968  1.00  0.00     0.011 C 
ENDBRANCH   1  26
TORSDOF 3
ENDMDL
MODEL 10
REMARK VINA RESULT:      -7.4     16.920     18.930
REMARK  3 active torsions:
REMARK  status: ('A' for Active; 'I' for Inactive)
REMARK    1  A    between atoms: C_2  and  C_3 
REMARK    2  A    between atoms: C_9  and  C_10 
REMARK    3  A    between atoms: C_23  and  N_24 
ROOT
HETATM    1  C   UNL     1      40.217  44.209  63.682  1.00  0.00     0.066 A 
HETATM    2  N   UNL     1      40.356  43.336  62.668  1.00  0.00    -0.177 NA
HETATM    3  N   UNL     1      39.246  42.573  62.729  1.00  0.00    -0.256 N 
HETATM    4  H   UNL     1      39.131  41.821  62.060  1.00  0.00     0.191 HD
HETATM    5  C   UNL     1      38.425  42.924  63.751  1.00  0.00     0.175 A 
HETATM    6  C   UNL     1      38.999  44.002  64.374  1.00  0.00     0.035 A 
HETATM    7  C   UNL     1      38.336  44.614  65.561  1.00  0.00     0.106 A 
HETATM    8  C   UNL     1      37.108  43.789  65.969  1.00  0.00     0.081 A 
HETATM    9  C   UNL     1      36.461  44.169  67.180  1.00  0.00     0.100 C 
HETATM   10  N   UNL     1      35.927  44.473  68.166  1.00  0.00    -0.191 NA
HETATM   11  C   UNL     1      36.660  42.722  65.249  1.00  0.00     0.140 A 
HETATM   12  O   UNL     1      37.302  42.295  64.071  1.00  0.00    -0.279 OA
ENDROOT
BRANCH   7  13
HETATM   13  C   UNL     1      37.982  46.049  65.159  1.00  0.00    -0.033 A 
HETATM   14  C   UNL     1      38.630  47.190  65.731  1.00  0.00    -0.019 A 
HETATM   15  C   UNL     1      38.223  48.486  65.307  1.00  0.00    -0.025 A 
HETATM   16  C   UNL     1      39.663  47.137  66.700  1.00  0.00     0.013 A 
HETATM   17  C   UNL     1      38.836  49.634  65.831  1.00  0.00     0.012 A 
HETATM   18  C   UNL     1      37.203  48.633  64.358  1.00  0.00     0.012 A 
HETATM   19  C   UNL     1      39.853  49.539  66.777  1.00  0.00     0.001 A 
HETATM   20  C   UNL     1      40.266  48.290  67.212  1.00  0.00     0.001 A 
HETATM   21  C   UNL     1      36.570  47.526  63.810  1.00  0.00     0.001 A 
HETATM   22  C   UNL     1      36.955  46.251  64.205  1.00  0.00     0.009 A 
ENDBRANCH   7  13
BRANCH  11  23
HETATM   23  N   UNL     1      35.566  41.949  65.565  1.00  0.00    -0.282 NA
HETATM   24  H   UNL     1      35.317  41.238  64.882  1.00  0.00     0.126 HD
HETATM   25  H   UNL     1      35.611  41.591  66.516  1.00  0.00     0.126 HD
ENDBRANCH  11  23
BRANCH   1  26
HETATM   26  C   UNL     1      41.297  45.200  63.959  1.00  0.00     0.057 C 
HETATM   27  C   UNL     1      42.178  44.803  65.132  1.00  0.00     0.011 C 
ENDBRANCH   1  26
TORSDOF 3
ENDMDL
