MODEL 1
REMARK VINA RESULT:     -10.0      0.000      0.000
REMARK  5 active torsions:
REMARK  status: ('A' for Active; 'I' for Inactive)
REMARK    1  A    between atoms: C_5  and  N_6 
REMARK       I    between atoms: N_6  and  C_7 
REMARK       I    between atoms: C_7  and  N_8 
REMARK    2  A    between atoms: N_8  and  C_9 
REMARK    3  A    between atoms: C_11  and  C_12 
REMARK       I    between atoms: C_12  and  N_13 
REMARK    4  A    between atoms: N_13  and  C_14 
REMARK    5  A    between atoms: C_14  and  C_15 
ROOT
HETATM    1  C   UNL     1      25.405  46.134  50.031  1.00  0.00     0.175 A 
HETATM    2  S   UNL     1      24.011  46.972  49.544  1.00  0.00    -0.044 SA
HETATM    3  C   UNL     1      24.988  48.322  49.113  1.00  0.00     0.100 A 
HETATM    4  C   UNL     1      26.316  48.038  49.410  1.00  0.00     0.056 A 
HETATM    5  C   UNL     1      27.489  48.934  49.211  1.00  0.00     0.072 C 
HETATM    6  N   UNL     1      26.543  46.772  49.936  1.00  0.00    -0.228 NA
ENDROOT
BRANCH   1   7
HETATM    7  N   UNL     1      25.197  44.860  50.467  1.00  0.00    -0.287 N 
HETATM    8  C   UNL     1      25.943  44.193  51.399  1.00  0.00     0.326 C 
HETATM    9  N   UNL     1      26.974  44.886  51.975  1.00  0.00    -0.309 N 
HETATM   10  O   UNL     1      25.634  43.026  51.635  1.00  0.00    -0.247 OA
HETATM   11  H   UNL     1      27.037  45.864  51.703  1.00  0.00     0.170 HD
HETATM   12  H   UNL     1      24.460  44.321  50.040  1.00  0.00     0.172 HD
BRANCH   9  13
HETATM   13  C   UNL     1      27.948  44.424  52.879  1.00  0.00     0.036 A 
HETATM   14  C   UNL     1      28.914  43.468  52.566  1.00  0.00     0.030 A 
HETATM   15  C   UNL     1      29.868  43.086  53.517  1.00  0.00     0.009 A 
HETATM   16  C   UNL     1      29.873  43.656  54.794  1.00  0.00    -0.062 A 
HETATM   17  C   UNL     1      30.888  43.225  55.809  1.00  0.00     0.048 C 
HETATM   18  C   UNL     1      28.894  44.601  55.114  1.00  0.00     0.009 A 
HETATM   19  C   UNL     1      27.944  44.985  54.161  1.00  0.00     0.030 A 
ENDBRANCH   9  13
ENDBRANCH   1   7
BRANCH   3  20
HETATM   20  C   UNL     1      24.441  49.534  48.529  1.00  0.00     0.260 C 
HETATM   21  N   UNL     1      23.380  50.106  49.197  1.00  0.00    -0.352 N 
HETATM   22  H   UNL     1      22.974  49.613  49.982  1.00  0.00     0.163 HD
HETATM   23  O   UNL     1      24.875  50.031  47.491  1.00  0.00    -0.267 OA
BRANCH  21  24
HETATM   24  C   UNL     1      22.670  51.235  48.646  1.00  0.00     0.161 C 
BRANCH  24  25
HETATM   25  C   UNL     1      21.185  50.992  48.643  1.00  0.00    -0.040 A 
HETATM   26  C   UNL     1      20.555  50.505  47.486  1.00  0.00     0.010 A 
HETATM   27  C   UNL     1      19.177  50.275  47.471  1.00  0.00     0.024 A 
HETATM   28  C   UNL     1      18.422  50.533  48.613  1.00  0.00     0.034 A 
HETATM   29 CL   UNL     1      16.726  50.245  48.598  1.00  0.00    -0.084 Cl
HETATM   30  C   UNL     1      19.031  51.022  49.766  1.00  0.00     0.024 A 
HETATM   31  C   UNL     1      20.409  51.254  49.781  1.00  0.00     0.010 A 
ENDBRANCH  24  25
ENDBRANCH  21  24
ENDBRANCH   3  20
TORSDOF 5
ENDMDL
MODEL 2
REMARK VINA RESULT:      -9.8      3.807     10.364
REMARK  5 active torsions:
REMARK  status: ('A' for Active; 'I' for Inactive)
REMARK    1  A    between atoms: C_5  and  N_6 
REMARK       I    between atoms: N_6  and  C_7 
REMARK       I    between atoms: C_7  and  N_8 
REMARK    2  A    between atoms: N_8  and  C_9 
REMARK    3  A    between atoms: C_11  and  C_12 
REMARK       I    between atoms: C_12  and  N_13 
REMARK    4  A    between atoms: N_13  and  C_14 
REMARK    5  A    between atoms: C_14  and  C_15 
ROOT
HETATM    1  C   UNL     1      23.769  46.335  49.424  1.00  0.00     0.175 A 
HETATM    2  S   UNL     1      23.925  44.707  49.881  1.00  0.00    -0.044 SA
HETATM    3  C   UNL     1      24.841  45.193  51.255  1.00  0.00     0.100 A 
HETATM    4  C   UNL     1      24.988  46.576  51.240  1.00  0.00     0.056 A 
HETATM    5  C   UNL     1      25.722  47.408  52.233  1.00  0.00     0.072 C 
HETATM    6  N   UNL     1      24.363  47.222  50.181  1.00  0.00    -0.228 NA
ENDROOT
BRANCH   1   7
HETATM    7  N   UNL     1      23.022  46.558  48.307  1.00  0.00    -0.287 N 
HETATM    8  C   UNL     1      22.081  47.538  48.146  1.00  0.00     0.326 C 
HETATM    9  N   UNL     1      21.902  48.399  49.195  1.00  0.00    -0.309 N 
HETATM   10  O   UNL     1      21.468  47.558  47.080  1.00  0.00    -0.247 OA
HETATM   11  H   UNL     1      22.547  48.268  49.970  1.00  0.00     0.170 HD
HETATM   12  H   UNL     1      23.117  45.922  47.531  1.00  0.00     0.172 HD
BRANCH   9  13
HETATM   13  C   UNL     1      20.951  49.426  49.339  1.00  0.00     0.036 A 
HETATM   14  C   UNL     1      21.115  50.718  48.840  1.00  0.00     0.030 A 
HETATM   15  C   UNL     1      20.105  51.673  49.000  1.00  0.00     0.009 A 
HETATM   16  C   UNL     1      18.913  51.351  49.658  1.00  0.00    -0.062 A 
HETATM   17  C   UNL     1      17.847  52.389  49.838  1.00  0.00     0.048 C 
HETATM   18  C   UNL     1      18.756  50.062  50.173  1.00  0.00     0.009 A 
HETATM   19  C   UNL     1      19.765  49.107  50.009  1.00  0.00     0.030 A 
ENDBRANCH   9  13
ENDBRANCH   1   7
BRANCH   3  20
HETATM   20  C   UNL     1      25.345  44.250  52.238  1.00  0.00     0.260 C 
HETATM   21  N   UNL     1      26.661  43.867  52.095  1.00  0.00    -0.352 N 
HETATM   22  H   UNL     1      27.171  44.169  51.275  1.00  0.00     0.163 HD
HETATM   23  O   UNL     1      24.650  43.795  53.145  1.00  0.00    -0.267 OA
BRANCH  21  24
HETATM   24  C   UNL     1      27.235  42.839  52.929  1.00  0.00     0.161 C 
BRANCH  24  25
HETATM   25  C   UNL     1      28.217  43.423  53.909  1.00  0.00    -0.040 A 
HETATM   26  C   UNL     1      27.957  44.667  54.507  1.00  0.00     0.010 A 
HETATM   27  C   UNL     1      28.860  45.219  55.418  1.00  0.00     0.024 A 
HETATM   28  C   UNL     1      30.028  44.531  55.736  1.00  0.00     0.034 A 
HETATM   29 CL   UNL     1      31.139  45.207  56.863  1.00  0.00    -0.084 Cl
HETATM   30  C   UNL     1      30.303  43.298  55.147  1.00  0.00     0.024 A 
HETATM   31  C   UNL     1      29.401  42.747  54.234  1.00  0.00     0.010 A 
ENDBRANCH  24  25
ENDBRANCH  21  24
ENDBRANCH   3  20
TORSDOF 5
ENDMDL
MODEL 3
REMARK VINA RESULT:      -9.8      3.550     10.432
REMARK  5 active torsions:
REMARK  status: ('A' for Active; 'I' for Inactive)
REMARK    1  A    between atoms: C_5  and  N_6 
REMARK       I    between atoms: N_6  and  C_7 
REMARK       I    between atoms: C_7  and  N_8 
REMARK    2  A    between atoms: N_8  and  C_9 
REMARK    3  A    between atoms: C_11  and  C_12 
REMARK       I    between atoms: C_12  and  N_13 
REMARK    4  A    between atoms: N_13  and  C_14 
REMARK    5  A    between atoms: C_14  and  C_15 
ROOT
HETATM    1  C   UNL     1      24.943  47.423  49.714  1.00  0.00     0.175 A 
HETATM    2  S   UNL     1      25.962  47.174  51.049  1.00  0.00    -0.044 SA
HETATM    3  C   UNL     1      25.249  45.625  51.288  1.00  0.00     0.100 A 
HETATM    4  C   UNL     1      24.252  45.430  50.339  1.00  0.00     0.056 A 
HETATM    5  C   UNL     1      23.375  44.235  50.196  1.00  0.00     0.072 C 
HETATM    6  N   UNL     1      24.088  46.473  49.436  1.00  0.00    -0.228 NA
ENDROOT
BRANCH   1   7
HETATM    7  N   UNL     1      25.129  48.598  49.051  1.00  0.00    -0.287 N 
HETATM    8  C   UNL     1      24.172  49.540  48.789  1.00  0.00     0.326 C 
HETATM    9  N   UNL     1      22.915  49.292  49.274  1.00  0.00    -0.309 N 
HETATM   10  O   UNL     1      24.514  50.522  48.134  1.00  0.00    -0.247 OA
HETATM   11  H   UNL     1      22.836  48.458  49.851  1.00  0.00     0.170 HD
HETATM   12  H   UNL     1      26.039  48.792  48.662  1.00  0.00     0.172 HD
BRANCH   9  13
HETATM   13  C   UNL     1      21.734  50.030  49.076  1.00  0.00     0.036 A 
HETATM   14  C   UNL     1      21.099  50.770  50.073  1.00  0.00     0.030 A 
HETATM   15  C   UNL     1      19.942  51.502  49.784  1.00  0.00     0.009 A 
HETATM   16  C   UNL     1      19.403  51.509  48.493  1.00  0.00    -0.062 A 
HETATM   17  C   UNL     1      18.153  52.284  48.202  1.00  0.00     0.048 C 
HETATM   18  C   UNL     1      20.029  50.754  47.498  1.00  0.00     0.009 A 
HETATM   19  C   UNL     1      21.188  50.026  47.787  1.00  0.00     0.030 A 
ENDBRANCH   9  13
ENDBRANCH   1   7
BRANCH   3  20
HETATM   20  C   UNL     1      25.678  44.716  52.337  1.00  0.00     0.260 C 
HETATM   21  N   UNL     1      27.027  44.439  52.388  1.00  0.00    -0.352 N 
HETATM   22  H   UNL     1      27.625  44.787  51.650  1.00  0.00     0.163 HD
HETATM   23  O   UNL     1      24.897  44.201  53.135  1.00  0.00    -0.267 OA
BRANCH  21  24
HETATM   24  C   UNL     1      27.553  43.452  53.300  1.00  0.00     0.161 C 
BRANCH  24  25
HETATM   25  C   UNL     1      28.356  44.101  54.395  1.00  0.00    -0.040 A 
HETATM   26  C   UNL     1      27.835  45.205  55.088  1.00  0.00     0.010 A 
HETATM   27  C   UNL     1      28.571  45.816  56.107  1.00  0.00     0.024 A 
HETATM   28  C   UNL     1      29.833  45.326  56.436  1.00  0.00     0.034 A 
HETATM   29 CL   UNL     1      30.738  46.073  57.694  1.00  0.00    -0.084 Cl
HETATM   30  C   UNL     1      30.366  44.234  55.754  1.00  0.00     0.024 A 
HETATM   31  C   UNL     1      29.631  43.625  54.733  1.00  0.00     0.010 A 
ENDBRANCH  24  25
ENDBRANCH  21  24
ENDBRANCH   3  20
TORSDOF 5
ENDMDL
MODEL 4
REMARK VINA RESULT:      -9.6      3.594     10.460
REMARK  5 active torsions:
REMARK  status: ('A' for Active; 'I' for Inactive)
REMARK    1  A    between atoms: C_5  and  N_6 
REMARK       I    between atoms: N_6  and  C_7 
REMARK       I    between atoms: C_7  and  N_8 
REMARK    2  A    between atoms: N_8  and  C_9 
REMARK    3  A    between atoms: C_11  and  C_12 
REMARK       I    between atoms: C_12  and  N_13 
REMARK    4  A    between atoms: N_13  and  C_14 
REMARK    5  A    between atoms: C_14  and  C_15 
ROOT
HETATM    1  C   UNL     1      24.086  47.673  49.470  1.00  0.00     0.175 A 
HETATM    2  S   UNL     1      25.157  47.071  50.643  1.00  0.00    -0.044 SA
HETATM    3  C   UNL     1      24.502  45.495  50.413  1.00  0.00     0.100 A 
HETATM    4  C   UNL     1      23.481  45.558  49.471  1.00  0.00     0.056 A 
HETATM    5  C   UNL     1      22.639  44.429  48.989  1.00  0.00     0.072 C 
HETATM    6  N   UNL     1      23.254  46.819  48.933  1.00  0.00    -0.228 NA
ENDROOT
BRANCH   1   7
HETATM    7  N   UNL     1      24.213  49.001  49.193  1.00  0.00    -0.287 N 
HETATM    8  C   UNL     1      23.206  49.927  49.195  1.00  0.00     0.326 C 
HETATM    9  N   UNL     1      21.960  49.481  49.545  1.00  0.00    -0.309 N 
HETATM   10  O   UNL     1      23.499  51.077  48.873  1.00  0.00    -0.247 OA
HETATM   11  H   UNL     1      21.921  48.510  49.845  1.00  0.00     0.170 HD
HETATM   12  H   UNL     1      25.115  49.349  48.907  1.00  0.00     0.172 HD
BRANCH   9  13
HETATM   13  C   UNL     1      20.740  50.182  49.540  1.00  0.00     0.036 A 
HETATM   14  C   UNL     1      20.531  51.379  48.856  1.00  0.00     0.030 A 
HETATM   15  C   UNL     1      19.275  51.999  48.879  1.00  0.00     0.009 A 
HETATM   16  C   UNL     1      18.209  51.429  49.583  1.00  0.00    -0.062 A 
HETATM   17  C   UNL     1      16.875  52.111  49.613  1.00  0.00     0.048 C 
HETATM   18  C   UNL     1      18.423  50.238  50.282  1.00  0.00     0.009 A 
HETATM   19  C   UNL     1      19.677  49.618  50.255  1.00  0.00     0.030 A 
ENDBRANCH   9  13
ENDBRANCH   1   7
BRANCH   3  20
HETATM   20  C   UNL     1      24.994  44.328  51.124  1.00  0.00     0.260 C 
HETATM   21  N   UNL     1      26.341  44.064  51.001  1.00  0.00    -0.352 N 
HETATM   22  H   UNL     1      26.890  44.616  50.355  1.00  0.00     0.163 HD
HETATM   23  O   UNL     1      24.265  43.597  51.792  1.00  0.00    -0.267 OA
BRANCH  21  24
HETATM   24  C   UNL     1      26.920  42.863  51.553  1.00  0.00     0.161 C 
BRANCH  24  25
HETATM   25  C   UNL     1      27.937  43.190  52.613  1.00  0.00    -0.040 A 
HETATM   26  C   UNL     1      29.204  42.586  52.581  1.00  0.00     0.010 A 
HETATM   27  C   UNL     1      30.157  42.882  53.559  1.00  0.00     0.024 A 
HETATM   28  C   UNL     1      29.846  43.783  54.575  1.00  0.00     0.034 A 
HETATM   29 CL   UNL     1      31.020  44.153  55.777  1.00  0.00    -0.084 Cl
HETATM   30  C   UNL     1      28.591  44.387  54.624  1.00  0.00     0.024 A 
HETATM   31  C   UNL     1      27.637  44.089  53.647  1.00  0.00     0.010 A 
ENDBRANCH  24  25
ENDBRANCH  21  24
ENDBRANCH   3  20
TORSDOF 5
ENDMDL
MODEL 5
REMARK VINA RESULT:      -9.2      5.338      8.297
REMARK  5 active torsions:
REMARK  status: ('A' for Active; 'I' for Inactive)
REMARK    1  A    between atoms: C_5  and  N_6 
REMARK       I    between atoms: N_6  and  C_7 
REMARK       I    between atoms: C_7  and  N_8 
REMARK    2  A    between atoms: N_8  and  C_9 
REMARK    3  A    between atoms: C_11  and  C_12 
REMARK       I    between atoms: C_12  and  N_13 
REMARK    4  A    between atoms: N_13  and  C_14 
REMARK    5  A    between atoms: C_14  and  C_15 
ROOT
HETATM    1  C   UNL     1      25.498  46.718  53.006  1.00  0.00     0.175 A 
HETATM    2  S   UNL     1      25.245  45.058  53.264  1.00  0.00    -0.044 SA
HETATM    3  C   UNL     1      24.789  44.884  51.613  1.00  0.00     0.100 A 
HETATM    4  C   UNL     1      24.833  46.128  50.993  1.00  0.00     0.056 A 
HETATM    5  C   UNL     1      24.501  46.433  49.574  1.00  0.00     0.072 C 
HETATM    6  N   UNL     1      25.247  47.176  51.807  1.00  0.00    -0.228 NA
ENDROOT
BRANCH   1   7
HETATM    7  N   UNL     1      25.956  47.412  54.086  1.00  0.00    -0.287 N 
HETATM    8  C   UNL     1      27.034  47.083  54.861  1.00  0.00     0.326 C 
HETATM    9  N   UNL     1      27.741  45.971  54.492  1.00  0.00    -0.309 N 
HETATM   10  O   UNL     1      27.271  47.805  55.827  1.00  0.00    -0.247 OA
HETATM   11  H   UNL     1      27.436  45.537  53.624  1.00  0.00     0.170 HD
HETATM   12  H   UNL     1      25.436  48.220  54.392  1.00  0.00     0.172 HD
BRANCH   9  13
HETATM   13  C   UNL     1      28.821  45.356  55.152  1.00  0.00     0.036 A 
HETATM   14  C   UNL     1      29.467  45.896  56.264  1.00  0.00     0.030 A 
HETATM   15  C   UNL     1      30.515  45.203  56.880  1.00  0.00     0.009 A 
HETATM   16  C   UNL     1      30.932  43.958  56.397  1.00  0.00    -0.062 A 
HETATM   17  C   UNL     1      32.068  43.236  57.057  1.00  0.00     0.048 C 
HETATM   18  C   UNL     1      30.297  43.425  55.273  1.00  0.00     0.009 A 
HETATM   19  C   UNL     1      29.247  44.117  54.660  1.00  0.00     0.030 A 
ENDBRANCH   9  13
ENDBRANCH   1   7
BRANCH   3  20
HETATM   20  C   UNL     1      24.432  43.604  51.027  1.00  0.00     0.260 C 
HETATM   21  N   UNL     1      25.477  42.831  50.570  1.00  0.00    -0.352 N 
HETATM   22  H   UNL     1      26.410  43.223  50.567  1.00  0.00     0.163 HD
HETATM   23  O   UNL     1      23.268  43.220  50.921  1.00  0.00    -0.267 OA
BRANCH  21  24
HETATM   24  C   UNL     1      25.239  41.601  49.853  1.00  0.00     0.161 C 
BRANCH  24  25
HETATM   25  C   UNL     1      26.433  40.689  49.933  1.00  0.00    -0.040 A 
HETATM   26  C   UNL     1      26.504  39.551  49.113  1.00  0.00     0.010 A 
HETATM   27  C   UNL     1      27.607  38.697  49.178  1.00  0.00     0.024 A 
HETATM   28  C   UNL     1      28.645  38.975  50.064  1.00  0.00     0.034 A 
HETATM   29 CL   UNL     1      30.008  37.927  50.141  1.00  0.00    -0.084 Cl
HETATM   30  C   UNL     1      28.587  40.097  50.889  1.00  0.00     0.024 A 
HETATM   31  C   UNL     1      27.483  40.951  50.826  1.00  0.00     0.010 A 
ENDBRANCH  24  25
ENDBRANCH  21  24
ENDBRANCH   3  20
TORSDOF 5
ENDMDL
MODEL 6
REMARK VINA RESULT:      -8.9      3.839     10.453
REMARK  5 active torsions:
REMARK  status: ('A' for Active; 'I' for Inactive)
REMARK    1  A    between atoms: C_5  and  N_6 
REMARK       I    between atoms: N_6  and  C_7 
REMARK       I    between atoms: C_7  and  N_8 
REMARK    2  A    between atoms: N_8  and  C_9 
REMARK    3  A    between atoms: C_11  and  C_12 
REMARK       I    between atoms: C_12  and  N_13 
REMARK    4  A    between atoms: N_13  and  C_14 
REMARK    5  A    between atoms: C_14  and  C_15 
ROOT
HETATM    1  C   UNL     1      24.326  47.102  49.687  1.00  0.00     0.175 A 
HETATM    2  S   UNL     1      25.949  46.825  50.103  1.00  0.00    -0.044 SA
HETATM    3  C   UNL     1      25.663  45.129  50.040  1.00  0.00     0.100 A 
HETATM    4  C   UNL     1      24.325  44.902  49.736  1.00  0.00     0.056 A 
HETATM    5  C   UNL     1      23.650  43.582  49.599  1.00  0.00     0.072 C 
HETATM    6  N   UNL     1      23.567  46.048  49.531  1.00  0.00    -0.228 NA
ENDROOT
BRANCH   1   7
HETATM    7  N   UNL     1      23.977  48.411  49.542  1.00  0.00    -0.287 N 
HETATM    8  C   UNL     1      22.720  48.890  49.294  1.00  0.00     0.326 C 
HETATM    9  N   UNL     1      21.712  47.966  49.220  1.00  0.00    -0.309 N 
HETATM   10  O   UNL     1      22.601  50.105  49.146  1.00  0.00    -0.247 OA
HETATM   11  H   UNL     1      21.990  47.011  49.435  1.00  0.00     0.170 HD
HETATM   12  H   UNL     1      24.705  49.108  49.567  1.00  0.00     0.172 HD
BRANCH   9  13
HETATM   13  C   UNL     1      20.360  48.164  48.886  1.00  0.00     0.036 A 
HETATM   14  C   UNL     1      19.823  47.916  47.624  1.00  0.00     0.030 A 
HETATM   15  C   UNL     1      18.457  48.111  47.383  1.00  0.00     0.009 A 
HETATM   16  C   UNL     1      17.607  48.553  48.403  1.00  0.00    -0.062 A 
HETATM   17  C   UNL     1      16.151  48.774  48.127  1.00  0.00     0.048 C 
HETATM   18  C   UNL     1      18.149  48.818  49.663  1.00  0.00     0.009 A 
HETATM   19  C   UNL     1      19.513  48.619  49.903  1.00  0.00     0.030 A 
ENDBRANCH   9  13
ENDBRANCH   1   7
BRANCH   3  20
HETATM   20  C   UNL     1      26.706  44.146  50.275  1.00  0.00     0.260 C 
HETATM   21  N   UNL     1      27.112  43.990  51.583  1.00  0.00    -0.352 N 
HETATM   22  H   UNL     1      26.751  44.623  52.285  1.00  0.00     0.163 HD
HETATM   23  O   UNL     1      27.222  43.490  49.372  1.00  0.00    -0.267 OA
BRANCH  21  24
HETATM   24  C   UNL     1      28.228  43.141  51.923  1.00  0.00     0.161 C 
BRANCH  24  25
HETATM   25  C   UNL     1      28.856  43.567  53.223  1.00  0.00    -0.040 A 
HETATM   26  C   UNL     1      29.990  42.896  53.708  1.00  0.00     0.010 A 
HETATM   27  C   UNL     1      30.581  43.283  54.913  1.00  0.00     0.024 A 
HETATM   28  C   UNL     1      30.040  44.341  55.640  1.00  0.00     0.034 A 
HETATM   29 CL   UNL     1      30.771  44.822  57.122  1.00  0.00    -0.084 Cl
HETATM   30  C   UNL     1      28.912  45.012  55.175  1.00  0.00     0.024 A 
HETATM   31  C   UNL     1      28.318  44.625  53.970  1.00  0.00     0.010 A 
ENDBRANCH  24  25
ENDBRANCH  21  24
ENDBRANCH   3  20
TORSDOF 5
ENDMDL
MODEL 7
REMARK VINA RESULT:      -8.8      2.567      3.545
REMARK  5 active torsions:
REMARK  status: ('A' for Active; 'I' for Inactive)
REMARK    1  A    between atoms: C_5  and  N_6 
REMARK       I    between atoms: N_6  and  C_7 
REMARK       I    between atoms: C_7  and  N_8 
REMARK    2  A    between atoms: N_8  and  C_9 
REMARK    3  A    between atoms: C_11  and  C_12 
REMARK       I    between atoms: C_12  and  N_13 
REMARK    4  A    between atoms: N_13  and  C_14 
REMARK    5  A    between atoms: C_14  and  C_15 
ROOT
HETATM    1  C   UNL     1      26.408  43.150  51.248  1.00  0.00     0.175 A 
HETATM    2  S   UNL     1      24.928  42.710  50.540  1.00  0.00    -0.044 SA
HETATM    3  C   UNL     1      24.888  44.219  49.714  1.00  0.00     0.100 A 
HETATM    4  C   UNL     1      26.005  44.966  50.072  1.00  0.00     0.056 A 
HETATM    5  C   UNL     1      26.353  46.335  49.603  1.00  0.00     0.072 C 
HETATM    6  N   UNL     1      26.874  44.337  50.955  1.00  0.00    -0.228 NA
ENDROOT
BRANCH   1   7
HETATM    7  N   UNL     1      26.974  42.206  52.050  1.00  0.00    -0.287 N 
HETATM    8  C   UNL     1      27.686  42.439  53.195  1.00  0.00     0.326 C 
HETATM    9  N   UNL     1      27.808  43.745  53.589  1.00  0.00    -0.309 N 
HETATM   10  O   UNL     1      28.166  41.462  53.767  1.00  0.00    -0.247 OA
HETATM   11  H   UNL     1      27.287  44.412  53.026  1.00  0.00     0.170 HD
HETATM   12  H   UNL     1      26.920  41.240  51.767  1.00  0.00     0.172 HD
BRANCH   9  13
HETATM   13  C   UNL     1      28.554  44.275  54.658  1.00  0.00     0.036 A 
HETATM   14  C   UNL     1      29.830  43.837  55.013  1.00  0.00     0.030 A 
HETATM   15  C   UNL     1      30.517  44.440  56.073  1.00  0.00     0.009 A 
HETATM   16  C   UNL     1      29.941  45.493  56.792  1.00  0.00    -0.062 A 
HETATM   17  C   UNL     1      30.681  46.118  57.936  1.00  0.00     0.048 C 
HETATM   18  C   UNL     1      28.656  45.920  56.447  1.00  0.00     0.009 A 
HETATM   19  C   UNL     1      27.972  45.320  55.385  1.00  0.00     0.030 A 
ENDBRANCH   9  13
ENDBRANCH   1   7
BRANCH   3  20
HETATM   20  C   UNL     1      23.824  44.584  48.795  1.00  0.00     0.260 C 
HETATM   21  N   UNL     1      22.840  45.406  49.300  1.00  0.00    -0.352 N 
HETATM   22  H   UNL     1      22.846  45.625  50.288  1.00  0.00     0.163 HD
HETATM   23  O   UNL     1      23.777  44.183  47.634  1.00  0.00    -0.267 OA
BRANCH  21  24
HETATM   24  C   UNL     1      21.666  45.730  48.525  1.00  0.00     0.161 C 
BRANCH  24  25
HETATM   25  C   UNL     1      21.409  47.213  48.526  1.00  0.00    -0.040 A 
HETATM   26  C   UNL     1      20.094  47.698  48.450  1.00  0.00     0.010 A 
HETATM   27  C   UNL     1      19.843  49.072  48.451  1.00  0.00     0.024 A 
HETATM   28  C   UNL     1      20.907  49.968  48.526  1.00  0.00     0.034 A 
HETATM   29 CL   UNL     1      20.599  51.661  48.532  1.00  0.00    -0.084 Cl
HETATM   30  C   UNL     1      22.218  49.503  48.596  1.00  0.00     0.024 A 
HETATM   31  C   UNL     1      22.470  48.128  48.593  1.00  0.00     0.010 A 
ENDBRANCH  24  25
ENDBRANCH  21  24
ENDBRANCH   3  20
TORSDOF 5
ENDMDL
MODEL 8
REMARK VINA RESULT:      -8.6      2.266      2.842
REMARK  5 active torsions:
REMARK  status: ('A' for Active; 'I' for Inactive)
REMARK    1  A    between atoms: C_5  and  N_6 
REMARK       I    between atoms: N_6  and  C_7 
REMARK       I    between atoms: C_7  and  N_8 
REMARK    2  A    between atoms: N_8  and  C_9 
REMARK    3  A    between atoms: C_11  and  C_12 
REMARK       I    between atoms: C_12  and  N_13 
REMARK    4  A    between atoms: N_13  and  C_14 
REMARK    5  A    between atoms: C_14  and  C_15 
ROOT
HETATM    1  C   UNL     1      24.765  43.718  49.917  1.00  0.00     0.175 A 
HETATM    2  S   UNL     1      23.371  43.618  48.953  1.00  0.00    -0.044 SA
HETATM    3  C   UNL     1      23.222  45.332  49.014  1.00  0.00     0.100 A 
HETATM    4  C   UNL     1      24.241  45.852  49.803  1.00  0.00     0.056 A 
HETATM    5  C   UNL     1      24.476  47.285  50.132  1.00  0.00     0.072 C 
HETATM    6  N   UNL     1      25.126  44.910  50.315  1.00  0.00    -0.228 NA
ENDROOT
BRANCH   1   7
HETATM    7  N   UNL     1      25.384  42.531  50.172  1.00  0.00    -0.287 N 
HETATM    8  C   UNL     1      26.378  42.317  51.086  1.00  0.00     0.326 C 
HETATM    9  N   UNL     1      26.762  43.392  51.842  1.00  0.00    -0.309 N 
HETATM   10  O   UNL     1      26.852  41.184  51.147  1.00  0.00    -0.247 OA
HETATM   11  H   UNL     1      26.210  44.235  51.699  1.00  0.00     0.170 HD
HETATM   12  H   UNL     1      25.137  41.730  49.611  1.00  0.00     0.172 HD
BRANCH   9  13
HETATM   13  C   UNL     1      27.809  43.482  52.777  1.00  0.00     0.036 A 
HETATM   14  C   UNL     1      29.030  42.820  52.649  1.00  0.00     0.030 A 
HETATM   15  C   UNL     1      30.032  42.988  53.611  1.00  0.00     0.009 A 
HETATM   16  C   UNL     1      29.831  43.823  54.715  1.00  0.00    -0.062 A 
HETATM   17  C   UNL     1      30.906  43.980  55.748  1.00  0.00     0.048 C 
HETATM   18  C   UNL     1      28.602  44.473  54.854  1.00  0.00     0.009 A 
HETATM   19  C   UNL     1      27.602  44.308  53.888  1.00  0.00     0.030 A 
ENDBRANCH   9  13
ENDBRANCH   1   7
BRANCH   3  20
HETATM   20  C   UNL     1      22.170  46.054  48.319  1.00  0.00     0.260 C 
HETATM   21  N   UNL     1      20.899  45.923  48.834  1.00  0.00    -0.352 N 
HETATM   22  H   UNL     1      20.742  45.265  49.586  1.00  0.00     0.163 HD
HETATM   23  O   UNL     1      22.379  46.738  47.318  1.00  0.00    -0.267 OA
BRANCH  21  24
HETATM   24  C   UNL     1      19.756  46.486  48.155  1.00  0.00     0.161 C 
BRANCH  24  25
HETATM   25  C   UNL     1      19.493  47.895  48.617  1.00  0.00    -0.040 A 
HETATM   26  C   UNL     1      19.086  48.136  49.939  1.00  0.00     0.010 A 
HETATM   27  C   UNL     1      18.839  49.438  50.379  1.00  0.00     0.024 A 
HETATM   28  C   UNL     1      18.995  50.506  49.498  1.00  0.00     0.034 A 
HETATM   29 CL   UNL     1      18.696  52.112  50.040  1.00  0.00    -0.084 Cl
HETATM   30  C   UNL     1      19.393  50.283  48.181  1.00  0.00     0.024 A 
HETATM   31  C   UNL     1      19.638  48.980  47.740  1.00  0.00     0.010 A 
ENDBRANCH  24  25
ENDBRANCH  21  24
ENDBRANCH   3  20
TORSDOF 5
ENDMDL
MODEL 9
REMARK VINA RESULT:      -8.2      6.589     12.682
REMARK  5 active torsions:
REMARK  status: ('A' for Active; 'I' for Inactive)
REMARK    1  A    between atoms: C_5  and  N_6 
REMARK       I    between atoms: N_6  and  C_7 
REMARK       I    between atoms: C_7  and  N_8 
REMARK    2  A    between atoms: N_8  and  C_9 
REMARK    3  A    between atoms: C_11  and  C_12 
REMARK       I    between atoms: C_12  and  N_13 
REMARK    4  A    between atoms: N_13  and  C_14 
REMARK    5  A    between atoms: C_14  and  C_15 
ROOT
HETATM    1  C   UNL     1      15.759  52.068  49.708  1.00  0.00     0.175 A 
HETATM    2  S   UNL     1      15.765  50.950  48.430  1.00  0.00    -0.044 SA
HETATM    3  C   UNL     1      17.482  50.869  48.527  1.00  0.00     0.100 A 
HETATM    4  C   UNL     1      17.926  51.738  49.517  1.00  0.00     0.056 A 
HETATM    5  C   UNL     1      19.336  51.990  49.920  1.00  0.00     0.072 C 
HETATM    6  N   UNL     1      16.921  52.421  50.193  1.00  0.00    -0.228 NA
ENDROOT
BRANCH   1   7
HETATM    7  N   UNL     1      14.525  52.482  50.114  1.00  0.00    -0.287 N 
HETATM    8  C   UNL     1      14.217  53.703  50.646  1.00  0.00     0.326 C 
HETATM    9  N   UNL     1      15.240  54.608  50.745  1.00  0.00    -0.309 N 
HETATM   10  O   UNL     1      13.053  53.884  51.001  1.00  0.00    -0.247 OA
HETATM   11  H   UNL     1      16.121  54.304  50.338  1.00  0.00     0.170 HD
HETATM   12  H   UNL     1      13.761  51.825  50.075  1.00  0.00     0.172 HD
BRANCH   9  13
HETATM   13  C   UNL     1      15.230  55.887  51.331  1.00  0.00     0.036 A 
HETATM   14  C   UNL     1      15.198  57.078  50.607  1.00  0.00     0.030 A 
HETATM   15  C   UNL     1      15.159  58.311  51.270  1.00  0.00     0.009 A 
HETATM   16  C   UNL     1      15.147  58.371  52.668  1.00  0.00    -0.062 A 
HETATM   17  C   UNL     1      15.124  59.698  53.365  1.00  0.00     0.048 C 
HETATM   18  C   UNL     1      15.197  57.178  53.394  1.00  0.00     0.009 A 
HETATM   19  C   UNL     1      15.231  55.947  52.730  1.00  0.00     0.030 A 
ENDBRANCH   9  13
ENDBRANCH   1   7
BRANCH   3  20
HETATM   20  C   UNL     1      18.277  49.999  47.677  1.00  0.00     0.260 C 
HETATM   21  N   UNL     1      19.049  49.058  48.322  1.00  0.00    -0.352 N 
HETATM   22  H   UNL     1      19.108  49.083  49.331  1.00  0.00     0.163 HD
HETATM   23  O   UNL     1      18.285  50.091  46.450  1.00  0.00    -0.267 OA
BRANCH  21  24
HETATM   24  C   UNL     1      19.977  48.227  47.593  1.00  0.00     0.161 C 
BRANCH  24  25
HETATM   25  C   UNL     1      21.399  48.644  47.858  1.00  0.00    -0.040 A 
HETATM   26  C   UNL     1      22.303  47.735  48.429  1.00  0.00     0.010 A 
HETATM   27  C   UNL     1      23.625  48.111  48.679  1.00  0.00     0.024 A 
HETATM   28  C   UNL     1      24.049  49.399  48.360  1.00  0.00     0.034 A 
HETATM   29 CL   UNL     1      25.679  49.861  48.662  1.00  0.00    -0.084 Cl
HETATM   30  C   UNL     1      23.162  50.315  47.797  1.00  0.00     0.024 A 
HETATM   31  C   UNL     1      21.839  49.940  47.550  1.00  0.00     0.010 A 
ENDBRANCH  24  25
ENDBRANCH  21  24
ENDBRANCH   3  20
TORSDOF 5
ENDMDL
MODEL 10
REMARK VINA RESULT:      -8.1      7.147      9.401
REMARK  5 active torsions:
REMARK  status: ('A' for Active; 'I' for Inactive)
REMARK    1  A    between atoms: C_5  and  N_6 
REMARK       I    between atoms: N_6  and  C_7 
REMARK       I    between atoms: C_7  and  N_8 
REMARK    2  A    between atoms: N_8  and  C_9 
REMARK    3  A    between atoms: C_11  and  C_12 
REMARK       I    between atoms: C_12  and  N_13 
REMARK    4  A    between atoms: N_13  and  C_14 
REMARK    5  A    between atoms: C_14  and  C_15 
ROOT
HETATM    1  C   UNL     1      25.230  42.021  50.563  1.00  0.00     0.175 A 
HETATM    2  S   UNL     1      24.637  42.258  48.989  1.00  0.00    -0.044 SA
HETATM    3  C   UNL     1      25.472  40.843  48.475  1.00  0.00     0.100 A 
HETATM    4  C   UNL     1      26.176  40.312  49.550  1.00  0.00     0.056 A 
HETATM    5  C   UNL     1      27.042  39.101  49.542  1.00  0.00     0.072 C 
HETATM    6  N   UNL     1      26.025  40.999  50.749  1.00  0.00    -0.228 NA
ENDROOT
BRANCH   1   7
HETATM    7  N   UNL     1      24.803  42.925  51.489  1.00  0.00    -0.287 N 
HETATM    8  C   UNL     1      25.569  43.514  52.457  1.00  0.00     0.326 C 
HETATM    9  N   UNL     1      26.899  43.191  52.472  1.00  0.00    -0.309 N 
HETATM   10  O   UNL     1      24.999  44.274  53.239  1.00  0.00    -0.247 OA
HETATM   11  H   UNL     1      27.203  42.595  51.705  1.00  0.00     0.170 HD
HETATM   12  H   UNL     1      23.822  43.160  51.515  1.00  0.00     0.172 HD
BRANCH   9  13
HETATM   13  C   UNL     1      27.886  43.568  53.401  1.00  0.00     0.036 A 
HETATM   14  C   UNL     1      27.892  44.784  54.083  1.00  0.00     0.030 A 
HETATM   15  C   UNL     1      28.897  45.069  55.015  1.00  0.00     0.009 A 
HETATM   16  C   UNL     1      29.909  44.141  55.282  1.00  0.00    -0.062 A 
HETATM   17  C   UNL     1      30.989  44.466  56.270  1.00  0.00     0.048 C 
HETATM   18  C   UNL     1      29.913  42.930  54.586  1.00  0.00     0.009 A 
HETATM   19  C   UNL     1      28.906  42.644  53.658  1.00  0.00     0.030 A 
ENDBRANCH   9  13
ENDBRANCH   1   7
BRANCH   3  20
HETATM   20  C   UNL     1      25.402  40.340  47.115  1.00  0.00     0.260 C 
HETATM   21  N   UNL     1      26.059  41.082  46.157  1.00  0.00    -0.352 N 
HETATM   22  H   UNL     1      26.459  41.973  46.419  1.00  0.00     0.163 HD
HETATM   23  O   UNL     1      24.786  39.320  46.811  1.00  0.00    -0.267 OA
BRANCH  21  24
HETATM   24  C   UNL     1      25.952  40.755  44.755  1.00  0.00     0.161 C 
BRANCH  24  25
HETATM   25  C   UNL     1      27.287  40.345  44.192  1.00  0.00    -0.040 A 
HETATM   26  C   UNL     1      28.060  41.271  43.474  1.00  0.00     0.010 A 
HETATM   27  C   UNL     1      29.300  40.902  42.946  1.00  0.00     0.024 A 
HETATM   28  C   UNL     1      29.772  39.605  43.134  1.00  0.00     0.034 A 
HETATM   29 CL   UNL     1      31.302  39.152  42.490  1.00  0.00    -0.084 Cl
HETATM   30  C   UNL     1      29.014  38.673  43.839  1.00  0.00     0.024 A 
HETATM   31  C   UNL     1      27.773  39.041  44.365  1.00  0.00     0.010 A 
ENDBRANCH  24  25
ENDBRANCH  21  24
ENDBRANCH   3  20
TORSDOF 5
ENDMDL
