MODEL 1
REMARK VINA RESULT:      -8.9      0.000      0.000
REMARK  8 active torsions:
REMARK  status: ('A' for Active; 'I' for Inactive)
REMARK    1  A    between atoms: C_6  and  C_7 
REMARK    2  A    between atoms: C_12  and  C_13 
REMARK    3  A    between atoms: C_13  and  N_14 
REMARK    4  A    between atoms: N_14  and  C_16 
REMARK    5  A    between atoms: N_14  and  C_23 
REMARK    6  A    between atoms: C_16  and  C_17 
REMARK    7  A    between atoms: C_23  and  C_24 
REMARK    8  A    between atoms: C_24  and  O_25 
ROOT
HETATM    1  C   UNL     1      27.322  46.167  54.449  1.00  0.00     0.069 A 
HETATM    2  N   UNL     1      26.730  47.295  54.966  1.00  0.00    -0.277 N 
HETATM    3  H   UNL     1      26.969  47.792  55.820  1.00  0.00     0.189 HD
HETATM    4  N   UNL     1      25.732  47.770  54.208  1.00  0.00    -0.186 NA
HETATM    5  C   UNL     1      25.714  46.962  53.152  1.00  0.00     0.149 A 
HETATM    6  C   UNL     1      26.656  45.912  53.257  1.00  0.00     0.016 A 
ENDROOT
BRANCH   6   7
HETATM    7  C   UNL     1      26.866  44.816  52.280  1.00  0.00     0.277 C 
BRANCH   7   8
HETATM    8  N   UNL     1      26.220  45.052  50.942  1.00  0.00    -0.061 N 
HETATM    9  H   UNL     1      25.430  45.703  51.121  1.00  0.00     0.280 HD
BRANCH   8  10
HETATM   10  C   UNL     1      27.075  45.775  49.932  1.00  0.00     0.273 C 
BRANCH  10  11
HETATM   11  C   UNL     1      26.607  47.153  49.541  1.00  0.00    -0.033 A 
HETATM   12  C   UNL     1      25.248  47.502  49.560  1.00  0.00     0.009 A 
HETATM   13  C   UNL     1      24.836  48.778  49.172  1.00  0.00     0.001 A 
HETATM   14  C   UNL     1      25.775  49.725  48.770  1.00  0.00     0.000 A 
HETATM   15  C   UNL     1      27.128  49.401  48.766  1.00  0.00     0.001 A 
HETATM   16  C   UNL     1      27.543  48.127  49.154  1.00  0.00     0.009 A 
ENDBRANCH  10  11
ENDBRANCH   8  10
BRANCH   8  17
HETATM   17  C   UNL     1      25.503  43.829  50.399  1.00  0.00     0.261 C 
BRANCH  17  18
HETATM   18  C   UNL     1      24.035  44.204  50.169  1.00  0.00     0.192 C 
BRANCH  18  19
HETATM   19  O   UNL     1      23.514  44.614  51.436  1.00  0.00    -0.399 OA
HETATM   20  H   UNL     1      24.231  44.523  52.097  1.00  0.00     0.209 HD
ENDBRANCH  18  19
ENDBRANCH  17  18
ENDBRANCH   8  17
ENDBRANCH   7   8
ENDBRANCH   6   7
BRANCH   1  21
HETATM   21  C   UNL     1      28.442  45.511  55.105  1.00  0.00    -0.007 A 
HETATM   22  C   UNL     1      28.961  46.018  56.302  1.00  0.00     0.021 A 
HETATM   23  C   UNL     1      30.048  45.400  56.942  1.00  0.00    -0.055 A 
HETATM   24  C   UNL     1      30.635  44.259  56.360  1.00  0.00    -0.056 A 
HETATM   25  C   UNL     1      30.591  46.001  58.212  1.00  0.00     0.049 C 
HETATM   26  C   UNL     1      31.802  43.555  57.003  1.00  0.00     0.049 C 
HETATM   27  C   UNL     1      30.108  43.752  55.163  1.00  0.00     0.008 A 
HETATM   28  C   UNL     1      29.025  44.375  54.539  1.00  0.00     0.014 A 
ENDBRANCH   1  21
TORSDOF 8
ENDMDL
MODEL 2
REMARK VINA RESULT:      -8.9      0.893      1.654
REMARK  8 active torsions:
REMARK  status: ('A' for Active; 'I' for Inactive)
REMARK    1  A    between atoms: C_6  and  C_7 
REMARK    2  A    between atoms: C_12  and  C_13 
REMARK    3  A    between atoms: C_13  and  N_14 
REMARK    4  A    between atoms: N_14  and  C_16 
REMARK    5  A    between atoms: N_14  and  C_23 
REMARK    6  A    between atoms: C_16  and  C_17 
REMARK    7  A    between atoms: C_23  and  C_24 
REMARK    8  A    between atoms: C_24  and  O_25 
ROOT
HETATM    1  C   UNL     1      27.444  46.593  55.048  1.00  0.00     0.069 A 
HETATM    2  N   UNL     1      27.003  47.706  55.724  1.00  0.00    -0.277 N 
HETATM    3  H   UNL     1      27.369  48.100  56.586  1.00  0.00     0.189 HD
HETATM    4  N   UNL     1      25.974  48.322  55.125  1.00  0.00    -0.186 NA
HETATM    5  C   UNL     1      25.781  47.621  54.011  1.00  0.00     0.149 A 
HETATM    6  C   UNL     1      26.639  46.502  53.919  1.00  0.00     0.016 A 
ENDROOT
BRANCH   6   7
HETATM    7  C   UNL     1      26.657  45.492  52.833  1.00  0.00     0.277 C 
BRANCH   7   8
HETATM    8  N   UNL     1      25.741  45.809  51.682  1.00  0.00    -0.061 N 
HETATM    9  H   UNL     1      25.298  46.719  51.917  1.00  0.00     0.280 HD
BRANCH   8  10
HETATM   10  C   UNL     1      26.428  46.062  50.363  1.00  0.00     0.273 C 
BRANCH  10  11
HETATM   11  C   UNL     1      26.148  47.396  49.721  1.00  0.00    -0.033 A 
HETATM   12  C   UNL     1      24.838  47.860  49.528  1.00  0.00     0.009 A 
HETATM   13  C   UNL     1      24.601  49.090  48.910  1.00  0.00     0.001 A 
HETATM   14  C   UNL     1      25.669  49.877  48.488  1.00  0.00     0.000 A 
HETATM   15  C   UNL     1      26.975  49.441  48.691  1.00  0.00     0.001 A 
HETATM   16  C   UNL     1      27.214  48.212  49.308  1.00  0.00     0.009 A 
ENDBRANCH  10  11
ENDBRANCH   8  10
BRANCH   8  17
HETATM   17  C   UNL     1      24.541  44.884  51.600  1.00  0.00     0.261 C 
BRANCH  17  18
HETATM   18  C   UNL     1      24.893  43.735  50.648  1.00  0.00     0.192 C 
BRANCH  18  19
HETATM   19  O   UNL     1      24.821  42.531  51.418  1.00  0.00    -0.399 OA
HETATM   20  H   UNL     1      24.229  41.910  50.945  1.00  0.00     0.209 HD
ENDBRANCH  18  19
ENDBRANCH  17  18
ENDBRANCH   8  17
ENDBRANCH   7   8
ENDBRANCH   6   7
BRANCH   1  21
HETATM   21  C   UNL     1      28.569  45.799  55.516  1.00  0.00    -0.007 A 
HETATM   22  C   UNL     1      29.026  44.706  54.769  1.00  0.00     0.021 A 
HETATM   23  C   UNL     1      30.106  43.924  55.212  1.00  0.00    -0.055 A 
HETATM   24  C   UNL     1      30.728  44.237  56.437  1.00  0.00    -0.056 A 
HETATM   25  C   UNL     1      30.541  42.740  54.390  1.00  0.00     0.049 C 
HETATM   26  C   UNL     1      31.891  43.434  56.960  1.00  0.00     0.049 C 
HETATM   27  C   UNL     1      30.270  45.336  57.178  1.00  0.00     0.008 A 
HETATM   28  C   UNL     1      29.197  46.106  56.724  1.00  0.00     0.014 A 
ENDBRANCH   1  21
TORSDOF 8
ENDMDL
MODEL 3
REMARK VINA RESULT:      -8.5     12.753     14.383
REMARK  8 active torsions:
REMARK  status: ('A' for Active; 'I' for Inactive)
REMARK    1  A    between atoms: C_6  and  C_7 
REMARK    2  A    between atoms: C_12  and  C_13 
REMARK    3  A    between atoms: C_13  and  N_14 
REMARK    4  A    between atoms: N_14  and  C_16 
REMARK    5  A    between atoms: N_14  and  C_23 
REMARK    6  A    between atoms: C_16  and  C_17 
REMARK    7  A    between atoms: C_23  and  C_24 
REMARK    8  A    between atoms: C_24  and  O_25 
ROOT
HETATM    1  C   UNL     1      27.232  50.033  40.237  1.00  0.00     0.069 A 
HETATM    2  N   UNL     1      25.968  50.189  39.719  1.00  0.00    -0.277 N 
HETATM    3  H   UNL     1      25.537  51.039  39.367  1.00  0.00     0.189 HD
HETATM    4  N   UNL     1      25.263  49.049  39.678  1.00  0.00    -0.186 NA
HETATM    5  C   UNL     1      26.108  48.129  40.132  1.00  0.00     0.149 A 
HETATM    6  C   UNL     1      27.345  48.681  40.538  1.00  0.00     0.016 A 
ENDROOT
BRANCH   6   7
HETATM    7  C   UNL     1      28.488  47.944  41.128  1.00  0.00     0.277 C 
BRANCH   7   8
HETATM    8  N   UNL     1      29.649  47.755  40.189  1.00  0.00    -0.061 N 
HETATM    9  H   UNL     1      29.473  48.395  39.391  1.00  0.00     0.280 HD
BRANCH   8  10
HETATM   10  C   UNL     1      30.989  48.191  40.726  1.00  0.00     0.273 C 
BRANCH  10  11
HETATM   11  C   UNL     1      31.598  49.403  40.069  1.00  0.00    -0.033 A 
HETATM   12  C   UNL     1      31.225  49.805  38.777  1.00  0.00     0.009 A 
HETATM   13  C   UNL     1      31.818  50.919  38.179  1.00  0.00     0.001 A 
HETATM   14  C   UNL     1      32.783  51.651  38.867  1.00  0.00     0.000 A 
HETATM   15  C   UNL     1      33.148  51.278  40.157  1.00  0.00     0.001 A 
HETATM   16  C   UNL     1      32.556  50.165  40.757  1.00  0.00     0.009 A 
ENDBRANCH  10  11
ENDBRANCH   8  10
BRANCH   8  17
HETATM   17  C   UNL     1      29.654  46.397  39.510  1.00  0.00     0.261 C 
BRANCH  17  18
HETATM   18  C   UNL     1      29.225  46.596  38.052  1.00  0.00     0.192 C 
BRANCH  18  19
HETATM   19  O   UNL     1      29.690  45.452  37.329  1.00  0.00    -0.399 OA
HETATM   20  H   UNL     1      28.912  44.892  37.127  1.00  0.00     0.209 HD
ENDBRANCH  18  19
ENDBRANCH  17  18
ENDBRANCH   8  17
ENDBRANCH   7   8
ENDBRANCH   6   7
BRANCH   1  21
HETATM   21  C   UNL     1      28.167  51.142  40.343  1.00  0.00    -0.007 A 
HETATM   22  C   UNL     1      28.930  51.319  41.503  1.00  0.00     0.021 A 
HETATM   23  C   UNL     1      29.831  52.391  41.623  1.00  0.00    -0.055 A 
HETATM   24  C   UNL     1      29.958  53.309  40.562  1.00  0.00    -0.056 A 
HETATM   25  C   UNL     1      30.607  52.558  42.903  1.00  0.00     0.049 C 
HETATM   26  C   UNL     1      30.909  54.475  40.635  1.00  0.00     0.049 C 
HETATM   27  C   UNL     1      29.195  53.122  39.399  1.00  0.00     0.008 A 
HETATM   28  C   UNL     1      28.305  52.052  39.293  1.00  0.00     0.014 A 
ENDBRANCH   1  21
TORSDOF 8
ENDMDL
MODEL 4
REMARK VINA RESULT:      -8.5      1.823      3.280
REMARK  8 active torsions:
REMARK  status: ('A' for Active; 'I' for Inactive)
REMARK    1  A    between atoms: C_6  and  C_7 
REMARK    2  A    between atoms: C_12  and  C_13 
REMARK    3  A    between atoms: C_13  and  N_14 
REMARK    4  A    between atoms: N_14  and  C_16 
REMARK    5  A    between atoms: N_14  and  C_23 
REMARK    6  A    between atoms: C_16  and  C_17 
REMARK    7  A    between atoms: C_23  and  C_24 
REMARK    8  A    between atoms: C_24  and  O_25 
ROOT
HETATM    1  C   UNL     1      28.634  43.560  53.289  1.00  0.00     0.069 A 
HETATM    2  N   UNL     1      29.265  42.546  52.608  1.00  0.00    -0.277 N 
HETATM    3  H   UNL     1      30.146  42.092  52.836  1.00  0.00     0.189 HD
HETATM    4  N   UNL     1      28.590  42.126  51.529  1.00  0.00    -0.186 NA
HETATM    5  C   UNL     1      27.474  42.850  51.544  1.00  0.00     0.149 A 
HETATM    6  C   UNL     1      27.454  43.795  52.595  1.00  0.00     0.016 A 
ENDROOT
BRANCH   6   7
HETATM    7  C   UNL     1      26.384  44.784  52.871  1.00  0.00     0.277 C 
BRANCH   7   8
HETATM    8  N   UNL     1      26.494  46.051  52.065  1.00  0.00    -0.061 N 
HETATM    9  H   UNL     1      27.466  46.068  51.698  1.00  0.00     0.280 HD
BRANCH   8  10
HETATM   10  C   UNL     1      25.630  46.105  50.830  1.00  0.00     0.273 C 
BRANCH  10  11
HETATM   11  C   UNL     1      25.757  47.351  49.992  1.00  0.00    -0.033 A 
HETATM   12  C   UNL     1      27.008  47.837  49.580  1.00  0.00     0.009 A 
HETATM   13  C   UNL     1      27.103  49.007  48.823  1.00  0.00     0.001 A 
HETATM   14  C   UNL     1      25.951  49.699  48.459  1.00  0.00     0.000 A 
HETATM   15  C   UNL     1      24.703  49.219  48.842  1.00  0.00     0.001 A 
HETATM   16  C   UNL     1      24.604  48.050  49.598  1.00  0.00     0.009 A 
ENDBRANCH  10  11
ENDBRANCH   8  10
BRANCH   8  17
HETATM   17  C   UNL     1      26.456  47.307  52.916  1.00  0.00     0.261 C 
BRANCH  17  18
HETATM   18  C   UNL     1      25.751  46.964  54.234  1.00  0.00     0.192 C 
BRANCH  18  19
HETATM   19  O   UNL     1      25.826  48.134  55.054  1.00  0.00    -0.399 OA
HETATM   20  H   UNL     1      24.914  48.373  55.316  1.00  0.00     0.209 HD
ENDBRANCH  18  19
ENDBRANCH  17  18
ENDBRANCH   8  17
ENDBRANCH   7   8
ENDBRANCH   6   7
BRANCH   1  21
HETATM   21  C   UNL     1      29.187  44.138  54.504  1.00  0.00    -0.007 A 
HETATM   22  C   UNL     1      30.231  43.498  55.184  1.00  0.00     0.021 A 
HETATM   23  C   UNL     1      30.769  44.039  56.363  1.00  0.00    -0.055 A 
HETATM   24  C   UNL     1      30.239  45.239  56.878  1.00  0.00    -0.056 A 
HETATM   25  C   UNL     1      31.870  43.298  57.076  1.00  0.00     0.049 C 
HETATM   26  C   UNL     1      30.778  45.865  58.137  1.00  0.00     0.049 C 
HETATM   27  C   UNL     1      29.197  45.878  56.190  1.00  0.00     0.008 A 
HETATM   28  C   UNL     1      28.673  45.330  55.017  1.00  0.00     0.014 A 
ENDBRANCH   1  21
TORSDOF 8
ENDMDL
MODEL 5
REMARK VINA RESULT:      -8.5      1.827      3.021
REMARK  8 active torsions:
REMARK  status: ('A' for Active; 'I' for Inactive)
REMARK    1  A    between atoms: C_6  and  C_7 
REMARK    2  A    between atoms: C_12  and  C_13 
REMARK    3  A    between atoms: C_13  and  N_14 
REMARK    4  A    between atoms: N_14  and  C_16 
REMARK    5  A    between atoms: N_14  and  C_23 
REMARK    6  A    between atoms: C_16  and  C_17 
REMARK    7  A    between atoms: C_23  and  C_24 
REMARK    8  A    between atoms: C_24  and  O_25 
ROOT
HETATM    1  C   UNL     1      28.625  42.796  52.964  1.00  0.00     0.069 A 
HETATM    2  N   UNL     1      28.766  41.429  52.940  1.00  0.00    -0.277 N 
HETATM    3  H   UNL     1      29.170  40.828  53.654  1.00  0.00     0.189 HD
HETATM    4  N   UNL     1      28.279  40.861  51.827  1.00  0.00    -0.186 NA
HETATM    5  C   UNL     1      27.767  41.879  51.142  1.00  0.00     0.149 A 
HETATM    6  C   UNL     1      27.984  43.124  51.776  1.00  0.00     0.016 A 
ENDROOT
BRANCH   6   7
HETATM    7  C   UNL     1      27.584  44.457  51.264  1.00  0.00     0.277 C 
BRANCH   7   8
HETATM    8  N   UNL     1      26.102  44.717  51.318  1.00  0.00    -0.061 N 
HETATM    9  H   UNL     1      25.729  44.070  52.040  1.00  0.00     0.280 HD
BRANCH   8  10
HETATM   10  C   UNL     1      25.707  46.088  51.808  1.00  0.00     0.273 C 
BRANCH  10  11
HETATM   11  C   UNL     1      25.572  47.151  50.748  1.00  0.00    -0.033 A 
HETATM   12  C   UNL     1      24.320  47.531  50.243  1.00  0.00     0.009 A 
HETATM   13  C   UNL     1      24.220  48.503  49.245  1.00  0.00     0.001 A 
HETATM   14  C   UNL     1      25.368  49.115  48.748  1.00  0.00     0.000 A 
HETATM   15  C   UNL     1      26.616  48.764  49.254  1.00  0.00     0.001 A 
HETATM   16  C   UNL     1      26.719  47.793  50.251  1.00  0.00     0.009 A 
ENDBRANCH  10  11
ENDBRANCH   8  10
BRANCH   8  17
HETATM   17  C   UNL     1      25.367  44.257  50.072  1.00  0.00     0.261 C 
BRANCH  17  18
HETATM   18  C   UNL     1      24.003  43.706  50.504  1.00  0.00     0.192 C 
BRANCH  18  19
HETATM   19  O   UNL     1      24.248  42.817  51.598  1.00  0.00    -0.399 OA
HETATM   20  H   UNL     1      24.355  43.361  52.405  1.00  0.00     0.209 HD
ENDBRANCH  18  19
ENDBRANCH  17  18
ENDBRANCH   8  17
ENDBRANCH   7   8
ENDBRANCH   6   7
BRANCH   1  21
HETATM   21  C   UNL     1      29.064  43.599  54.095  1.00  0.00    -0.007 A 
HETATM   22  C   UNL     1      30.150  43.190  54.878  1.00  0.00     0.021 A 
HETATM   23  C   UNL     1      30.579  43.951  55.979  1.00  0.00    -0.055 A 
HETATM   24  C   UNL     1      29.894  45.137  56.308  1.00  0.00    -0.056 A 
HETATM   25  C   UNL     1      31.732  43.454  56.810  1.00  0.00     0.049 C 
HETATM   26  C   UNL     1      30.311  45.993  57.475  1.00  0.00     0.049 C 
HETATM   27  C   UNL     1      28.810  45.545  55.516  1.00  0.00     0.008 A 
HETATM   28  C   UNL     1      28.395  44.780  54.424  1.00  0.00     0.014 A 
ENDBRANCH   1  21
TORSDOF 8
ENDMDL
MODEL 6
REMARK VINA RESULT:      -8.4     12.233     15.160
REMARK  8 active torsions:
REMARK  status: ('A' for Active; 'I' for Inactive)
REMARK    1  A    between atoms: C_6  and  C_7 
REMARK    2  A    between atoms: C_12  and  C_13 
REMARK    3  A    between atoms: C_13  and  N_14 
REMARK    4  A    between atoms: N_14  and  C_16 
REMARK    5  A    between atoms: N_14  and  C_23 
REMARK    6  A    between atoms: C_16  and  C_17 
REMARK    7  A    between atoms: C_23  and  C_24 
REMARK    8  A    between atoms: C_24  and  O_25 
ROOT
HETATM    1  C   UNL     1      33.431  52.328  39.707  1.00  0.00     0.069 A 
HETATM    2  N   UNL     1      34.134  53.436  39.298  1.00  0.00    -0.277 N 
HETATM    3  H   UNL     1      33.798  54.224  38.750  1.00  0.00     0.189 HD
HETATM    4  N   UNL     1      35.410  53.443  39.712  1.00  0.00    -0.186 NA
HETATM    5  C   UNL     1      35.517  52.340  40.447  1.00  0.00     0.149 A 
HETATM    6  C   UNL     1      34.329  51.574  40.454  1.00  0.00     0.016 A 
ENDROOT
BRANCH   6   7
HETATM    7  C   UNL     1      34.122  50.274  41.135  1.00  0.00     0.277 C 
BRANCH   7   8
HETATM    8  N   UNL     1      32.963  50.259  42.096  1.00  0.00    -0.061 N 
HETATM    9  H   UNL     1      32.243  50.879  41.677  1.00  0.00     0.280 HD
BRANCH   8  10
HETATM   10  C   UNL     1      32.268  48.930  42.246  1.00  0.00     0.273 C 
BRANCH  10  11
HETATM   11  C   UNL     1      31.037  48.732  41.399  1.00  0.00    -0.033 A 
HETATM   12  C   UNL     1      29.753  49.016  41.889  1.00  0.00     0.009 A 
HETATM   13  C   UNL     1      28.625  48.804  41.094  1.00  0.00     0.001 A 
HETATM   14  C   UNL     1      28.765  48.318  39.797  1.00  0.00     0.000 A 
HETATM   15  C   UNL     1      30.033  48.051  39.289  1.00  0.00     0.001 A 
HETATM   16  C   UNL     1      31.162  48.262  40.081  1.00  0.00     0.009 A 
ENDBRANCH  10  11
ENDBRANCH   8  10
BRANCH   8  17
HETATM   17  C   UNL     1      33.263  50.965  43.406  1.00  0.00     0.261 C 
BRANCH  17  18
HETATM   18  C   UNL     1      32.034  51.799  43.786  1.00  0.00     0.192 C 
BRANCH  18  19
HETATM   19  O   UNL     1      32.052  51.927  45.211  1.00  0.00    -0.399 OA
HETATM   20  H   UNL     1      32.313  52.847  45.424  1.00  0.00     0.209 HD
ENDBRANCH  18  19
ENDBRANCH  17  18
ENDBRANCH   8  17
ENDBRANCH   7   8
ENDBRANCH   6   7
BRANCH   1  21
HETATM   21  C   UNL     1      32.024  52.143  39.388  1.00  0.00    -0.007 A 
HETATM   22  C   UNL     1      31.033  52.508  40.307  1.00  0.00     0.021 A 
HETATM   23  C   UNL     1      29.671  52.326  40.017  1.00  0.00    -0.055 A 
HETATM   24  C   UNL     1      29.298  51.753  38.785  1.00  0.00    -0.056 A 
HETATM   25  C   UNL     1      28.643  52.705  41.050  1.00  0.00     0.049 C 
HETATM   26  C   UNL     1      27.852  51.537  38.419  1.00  0.00     0.049 C 
HETATM   27  C   UNL     1      30.295  51.395  37.865  1.00  0.00     0.008 A 
HETATM   28  C   UNL     1      31.645  51.583  38.167  1.00  0.00     0.014 A 
ENDBRANCH   1  21
TORSDOF 8
ENDMDL
MODEL 7
REMARK VINA RESULT:      -8.3     12.444     14.173
REMARK  8 active torsions:
REMARK  status: ('A' for Active; 'I' for Inactive)
REMARK    1  A    between atoms: C_6  and  C_7 
REMARK    2  A    between atoms: C_12  and  C_13 
REMARK    3  A    between atoms: C_13  and  N_14 
REMARK    4  A    between atoms: N_14  and  C_16 
REMARK    5  A    between atoms: N_14  and  C_23 
REMARK    6  A    between atoms: C_16  and  C_17 
REMARK    7  A    between atoms: C_23  and  C_24 
REMARK    8  A    between atoms: C_24  and  O_25 
ROOT
HETATM    1  C   UNL     1      29.139  47.756  39.121  1.00  0.00     0.069 A 
HETATM    2  N   UNL     1      29.732  46.964  38.167  1.00  0.00    -0.277 N 
HETATM    3  H   UNL     1      30.724  46.811  38.008  1.00  0.00     0.189 HD
HETATM    4  N   UNL     1      28.852  46.319  37.387  1.00  0.00    -0.186 NA
HETATM    5  C   UNL     1      27.667  46.663  37.883  1.00  0.00     0.149 A 
HETATM    6  C   UNL     1      27.771  47.592  38.943  1.00  0.00     0.016 A 
ENDROOT
BRANCH   6   7
HETATM    7  C   UNL     1      26.648  48.212  39.686  1.00  0.00     0.277 C 
BRANCH   7   8
HETATM    8  N   UNL     1      26.026  49.393  38.989  1.00  0.00    -0.061 N 
HETATM    9  H   UNL     1      25.634  49.990  39.743  1.00  0.00     0.280 HD
BRANCH   8  10
HETATM   10  C   UNL     1      26.993  50.295  38.265  1.00  0.00     0.273 C 
BRANCH  10  11
HETATM   11  C   UNL     1      27.760  51.264  39.128  1.00  0.00    -0.033 A 
HETATM   12  C   UNL     1      28.675  52.175  38.578  1.00  0.00     0.009 A 
HETATM   13  C   UNL     1      29.391  53.048  39.399  1.00  0.00     0.001 A 
HETATM   14  C   UNL     1      29.195  53.031  40.778  1.00  0.00     0.000 A 
HETATM   15  C   UNL     1      28.276  52.149  41.336  1.00  0.00     0.001 A 
HETATM   16  C   UNL     1      27.558  51.274  40.518  1.00  0.00     0.009 A 
ENDBRANCH  10  11
ENDBRANCH   8  10
BRANCH   8  17
HETATM   17  C   UNL     1      24.784  49.032  38.194  1.00  0.00     0.261 C 
BRANCH  17  18
HETATM   18  C   UNL     1      23.602  49.811  38.784  1.00  0.00     0.192 C 
BRANCH  18  19
HETATM   19  O   UNL     1      23.488  51.018  38.025  1.00  0.00    -0.399 OA
HETATM   20  H   UNL     1      22.650  51.454  38.282  1.00  0.00     0.209 HD
ENDBRANCH  18  19
ENDBRANCH  17  18
ENDBRANCH   8  17
ENDBRANCH   7   8
ENDBRANCH   6   7
BRANCH   1  21
HETATM   21  C   UNL     1      29.917  48.518  40.086  1.00  0.00    -0.007 A 
HETATM   22  C   UNL     1      30.850  49.469  39.654  1.00  0.00     0.021 A 
HETATM   23  C   UNL     1      31.615  50.206  40.574  1.00  0.00    -0.055 A 
HETATM   24  C   UNL     1      31.449  49.973  41.954  1.00  0.00    -0.056 A 
HETATM   25  C   UNL     1      32.628  51.194  40.060  1.00  0.00     0.049 C 
HETATM   26  C   UNL     1      32.241  50.735  42.984  1.00  0.00     0.049 C 
HETATM   27  C   UNL     1      30.509  49.024  42.380  1.00  0.00     0.008 A 
HETATM   28  C   UNL     1      29.754  48.300  41.455  1.00  0.00     0.014 A 
ENDBRANCH   1  21
TORSDOF 8
ENDMDL
MODEL 8
REMARK VINA RESULT:      -8.3     11.799     13.768
REMARK  8 active torsions:
REMARK  status: ('A' for Active; 'I' for Inactive)
REMARK    1  A    between atoms: C_6  and  C_7 
REMARK    2  A    between atoms: C_12  and  C_13 
REMARK    3  A    between atoms: C_13  and  N_14 
REMARK    4  A    between atoms: N_14  and  C_16 
REMARK    5  A    between atoms: N_14  and  C_23 
REMARK    6  A    between atoms: C_16  and  C_17 
REMARK    7  A    between atoms: C_23  and  C_24 
REMARK    8  A    between atoms: C_24  and  O_25 
ROOT
HETATM    1  C   UNL     1      29.784  52.000  39.755  1.00  0.00     0.069 A 
HETATM    2  N   UNL     1      30.155  52.444  38.508  1.00  0.00    -0.277 N 
HETATM    3  H   UNL     1      31.060  52.802  38.215  1.00  0.00     0.189 HD
HETATM    4  N   UNL     1      29.175  52.360  37.597  1.00  0.00    -0.186 NA
HETATM    5  C   UNL     1      28.166  51.800  38.258  1.00  0.00     0.149 A 
HETATM    6  C   UNL     1      28.464  51.586  39.624  1.00  0.00     0.016 A 
ENDROOT
BRANCH   6   7
HETATM    7  C   UNL     1      27.551  51.023  40.647  1.00  0.00     0.277 C 
BRANCH   7   8
HETATM    8  N   UNL     1      27.623  49.525  40.780  1.00  0.00    -0.061 N 
HETATM    9  H   UNL     1      28.157  49.195  39.952  1.00  0.00     0.280 HD
BRANCH   8  10
HETATM   10  C   UNL     1      28.416  49.021  41.959  1.00  0.00     0.273 C 
BRANCH  10  11
HETATM   11  C   UNL     1      29.842  48.627  41.673  1.00  0.00    -0.033 A 
HETATM   12  C   UNL     1      30.257  48.249  40.387  1.00  0.00     0.009 A 
HETATM   13  C   UNL     1      31.579  47.867  40.150  1.00  0.00     0.001 A 
HETATM   14  C   UNL     1      32.505  47.867  41.190  1.00  0.00     0.000 A 
HETATM   15  C   UNL     1      32.113  48.260  42.466  1.00  0.00     0.001 A 
HETATM   16  C   UNL     1      30.793  48.643  42.707  1.00  0.00     0.009 A 
ENDBRANCH  10  11
ENDBRANCH   8  10
BRANCH   8  17
HETATM   17  C   UNL     1      26.282  48.842  40.582  1.00  0.00     0.261 C 
BRANCH  17  18
HETATM   18  C   UNL     1      25.713  49.298  39.233  1.00  0.00     0.192 C 
BRANCH  18  19
HETATM   19  O   UNL     1      24.540  50.065  39.522  1.00  0.00    -0.399 OA
HETATM   20  H   UNL     1      23.763  49.536  39.248  1.00  0.00     0.209 HD
ENDBRANCH  18  19
ENDBRANCH  17  18
ENDBRANCH   8  17
ENDBRANCH   7   8
ENDBRANCH   6   7
BRANCH   1  21
HETATM   21  C   UNL     1      30.709  51.982  40.877  1.00  0.00    -0.007 A 
HETATM   22  C   UNL     1      32.042  51.595  40.693  1.00  0.00     0.021 A 
HETATM   23  C   UNL     1      32.944  51.563  41.769  1.00  0.00    -0.055 A 
HETATM   24  C   UNL     1      32.495  51.914  43.058  1.00  0.00    -0.056 A 
HETATM   25  C   UNL     1      34.360  51.110  41.527  1.00  0.00     0.049 C 
HETATM   26  C   UNL     1      33.419  51.900  44.248  1.00  0.00     0.049 C 
HETATM   27  C   UNL     1      31.160  52.307  43.235  1.00  0.00     0.008 A 
HETATM   28  C   UNL     1      30.274  52.335  42.157  1.00  0.00     0.014 A 
ENDBRANCH   1  21
TORSDOF 8
ENDMDL
MODEL 9
REMARK VINA RESULT:      -8.3     12.329     14.102
REMARK  8 active torsions:
REMARK  status: ('A' for Active; 'I' for Inactive)
REMARK    1  A    between atoms: C_6  and  C_7 
REMARK    2  A    between atoms: C_12  and  C_13 
REMARK    3  A    between atoms: C_13  and  N_14 
REMARK    4  A    between atoms: N_14  and  C_16 
REMARK    5  A    between atoms: N_14  and  C_23 
REMARK    6  A    between atoms: C_16  and  C_17 
REMARK    7  A    between atoms: C_23  and  C_24 
REMARK    8  A    between atoms: C_24  and  O_25 
ROOT
HETATM    1  C   UNL     1      28.525  47.039  39.577  1.00  0.00     0.069 A 
HETATM    2  N   UNL     1      28.557  45.783  40.135  1.00  0.00    -0.277 N 
HETATM    3  H   UNL     1      29.271  45.385  40.740  1.00  0.00     0.189 HD
HETATM    4  N   UNL     1      27.487  45.035  39.831  1.00  0.00    -0.186 NA
HETATM    5  C   UNL     1      26.723  45.844  39.103  1.00  0.00     0.149 A 
HETATM    6  C   UNL     1      27.330  47.100  38.871  1.00  0.00     0.016 A 
ENDROOT
BRANCH   6   7
HETATM    7  C   UNL     1      26.772  48.214  38.066  1.00  0.00     0.277 C 
BRANCH   7   8
HETATM    8  N   UNL     1      26.437  49.444  38.866  1.00  0.00    -0.061 N 
HETATM    9  H   UNL     1      26.900  49.316  39.787  1.00  0.00     0.280 HD
BRANCH   8  10
HETATM   10  C   UNL     1      27.014  50.733  38.337  1.00  0.00     0.273 C 
BRANCH  10  11
HETATM   11  C   UNL     1      27.902  51.495  39.286  1.00  0.00    -0.033 A 
HETATM   12  C   UNL     1      27.811  51.325  40.676  1.00  0.00     0.009 A 
HETATM   13  C   UNL     1      28.628  52.058  41.538  1.00  0.00     0.001 A 
HETATM   14  C   UNL     1      29.554  52.962  41.024  1.00  0.00     0.000 A 
HETATM   15  C   UNL     1      29.672  53.127  39.647  1.00  0.00     0.001 A 
HETATM   16  C   UNL     1      28.856  52.395  38.783  1.00  0.00     0.009 A 
ENDBRANCH  10  11
ENDBRANCH   8  10
BRANCH   8  17
HETATM   17  C   UNL     1      24.973  49.523  39.257  1.00  0.00     0.261 C 
BRANCH  17  18
HETATM   18  C   UNL     1      24.146  49.654  37.973  1.00  0.00     0.192 C 
BRANCH  18  19
HETATM   19  O   UNL     1      23.511  50.935  38.024  1.00  0.00    -0.399 OA
HETATM   20  H   UNL     1      24.194  51.614  37.844  1.00  0.00     0.209 HD
ENDBRANCH  18  19
ENDBRANCH  17  18
ENDBRANCH   8  17
ENDBRANCH   7   8
ENDBRANCH   6   7
BRANCH   1  21
HETATM   21  C   UNL     1      29.578  48.016  39.808  1.00  0.00    -0.007 A 
HETATM   22  C   UNL     1      29.993  48.318  41.111  1.00  0.00     0.021 A 
HETATM   23  C   UNL     1      31.002  49.266  41.350  1.00  0.00    -0.055 A 
HETATM   24  C   UNL     1      31.595  49.933  40.259  1.00  0.00    -0.056 A 
HETATM   25  C   UNL     1      31.393  49.580  42.770  1.00  0.00     0.049 C 
HETATM   26  C   UNL     1      32.683  50.957  40.456  1.00  0.00     0.049 C 
HETATM   27  C   UNL     1      31.179  49.622  38.957  1.00  0.00     0.008 A 
HETATM   28  C   UNL     1      30.176  48.676  38.734  1.00  0.00     0.014 A 
ENDBRANCH   1  21
TORSDOF 8
ENDMDL
MODEL 10
REMARK VINA RESULT:      -8.3      2.940      8.516
REMARK  8 active torsions:
REMARK  status: ('A' for Active; 'I' for Inactive)
REMARK    1  A    between atoms: C_6  and  C_7 
REMARK    2  A    between atoms: C_12  and  C_13 
REMARK    3  A    between atoms: C_13  and  N_14 
REMARK    4  A    between atoms: N_14  and  C_16 
REMARK    5  A    between atoms: N_14  and  C_23 
REMARK    6  A    between atoms: C_16  and  C_17 
REMARK    7  A    between atoms: C_23  and  C_24 
REMARK    8  A    between atoms: C_24  and  O_25 
ROOT
HETATM    1  C   UNL     1      24.933  49.174  48.837  1.00  0.00     0.069 A 
HETATM    2  N   UNL     1      26.012  49.808  48.270  1.00  0.00    -0.277 N 
HETATM    3  H   UNL     1      26.009  50.590  47.620  1.00  0.00     0.189 HD
HETATM    4  N   UNL     1      27.193  49.312  48.667  1.00  0.00    -0.186 NA
HETATM    5  C   UNL     1      26.869  48.371  49.549  1.00  0.00     0.149 A 
HETATM    6  C   UNL     1      25.470  48.203  49.674  1.00  0.00     0.016 A 
ENDROOT
BRANCH   6   7
HETATM    7  C   UNL     1      24.774  47.215  50.533  1.00  0.00     0.277 C 
BRANCH   7   8
HETATM    8  N   UNL     1      25.619  46.031  50.918  1.00  0.00    -0.061 N 
HETATM    9  H   UNL     1      26.601  46.370  50.908  1.00  0.00     0.280 HD
BRANCH   8  10
HETATM   10  C   UNL     1      25.415  45.524  52.323  1.00  0.00     0.273 C 
BRANCH  10  11
HETATM   11  C   UNL     1      26.465  45.926  53.326  1.00  0.00    -0.033 A 
HETATM   12  C   UNL     1      26.539  47.233  53.831  1.00  0.00     0.009 A 
HETATM   13  C   UNL     1      27.534  47.588  54.743  1.00  0.00     0.001 A 
HETATM   14  C   UNL     1      28.461  46.641  55.171  1.00  0.00     0.000 A 
HETATM   15  C   UNL     1      28.388  45.335  54.697  1.00  0.00     0.001 A 
HETATM   16  C   UNL     1      27.394  44.977  53.785  1.00  0.00     0.009 A 
ENDBRANCH  10  11
ENDBRANCH   8  10
BRANCH   8  17
HETATM   17  C   UNL     1      25.650  44.947  49.855  1.00  0.00     0.261 C 
BRANCH  17  18
HETATM   18  C   UNL     1      26.977  44.190  49.990  1.00  0.00     0.192 C 
BRANCH  18  19
HETATM   19  O   UNL     1      26.980  43.186  48.971  1.00  0.00    -0.399 OA
HETATM   20  H   UNL     1      27.773  43.328  48.415  1.00  0.00     0.209 HD
ENDBRANCH  18  19
ENDBRANCH  17  18
ENDBRANCH   8  17
ENDBRANCH   7   8
ENDBRANCH   6   7
BRANCH   1  21
HETATM   21  C   UNL     1      23.564  49.579  48.560  1.00  0.00    -0.007 A 
HETATM   22  C   UNL     1      22.636  48.654  48.064  1.00  0.00     0.021 A 
HETATM   23  C   UNL     1      21.313  49.033  47.783  1.00  0.00    -0.055 A 
HETATM   24  C   UNL     1      20.918  50.370  47.990  1.00  0.00    -0.056 A 
HETATM   25  C   UNL     1      20.360  48.010  47.221  1.00  0.00     0.049 C 
HETATM   26  C   UNL     1      19.512  50.831  47.708  1.00  0.00     0.049 C 
HETATM   27  C   UNL     1      21.850  51.290  48.492  1.00  0.00     0.008 A 
HETATM   28  C   UNL     1      23.161  50.899  48.769  1.00  0.00     0.014 A 
ENDBRANCH   1  21
TORSDOF 8
ENDMDL
