MODEL 1
REMARK VINA RESULT:      -8.4      0.000      0.000
REMARK  6 active torsions:
REMARK  status: ('A' for Active; 'I' for Inactive)
REMARK    1  A    between atoms: N_2  and  C_4 
REMARK    2  A    between atoms: C_4  and  C_5 
REMARK    3  A    between atoms: C_5  and  N_6 
REMARK    4  A    between atoms: C_5  and  C_21 
REMARK       I    between atoms: N_6  and  C_7 
REMARK       I    between atoms: C_7  and  N_8 
REMARK    5  A    between atoms: N_8  and  C_9 
REMARK    6  A    between atoms: C_12  and  C_13 
ROOT
HETATM    1  N   UNL     1      24.852  45.478  50.812  1.00  0.00    -0.333 N 
HETATM    2  C   UNL     1      24.261  44.296  51.133  1.00  0.00     0.322 C 
HETATM    3  N   UNL     1      25.010  43.365  51.775  1.00  0.00    -0.287 N 
HETATM    4  O   UNL     1      23.063  44.094  50.947  1.00  0.00    -0.247 OA
HETATM    5  H   UNL     1      25.871  45.450  50.818  1.00  0.00     0.165 HD
HETATM    6  H   UNL     1      24.546  42.503  52.026  1.00  0.00     0.172 HD
ENDROOT
BRANCH   1   7
HETATM    7  C   UNL     1      24.231  46.540  50.032  1.00  0.00     0.145 C 
BRANCH   7   8
HETATM    8  C   UNL     1      23.294  46.095  48.866  1.00  0.00     0.263 C 
BRANCH   8   9
HETATM    9  N   UNL     1      21.800  46.356  49.076  1.00  0.00    -0.076 N 
HETATM   10  C   UNL     1      20.900  45.298  48.513  1.00  0.00     0.269 C 
HETATM   11  H   UNL     1      21.683  46.313  50.096  1.00  0.00     0.279 HD
HETATM   12  C   UNL     1      21.352  47.739  48.702  1.00  0.00     0.269 C 
ENDBRANCH   8   9
ENDBRANCH   7   8
BRANCH   7  13
HETATM   13  C   UNL     1      25.248  47.568  49.560  1.00  0.00    -0.034 A 
HETATM   14  C   UNL     1      26.623  47.299  49.688  1.00  0.00     0.009 A 
HETATM   15  C   UNL     1      27.575  48.248  49.307  1.00  0.00     0.001 A 
HETATM   16  C   UNL     1      27.169  49.473  48.784  1.00  0.00     0.000 A 
HETATM   17  C   UNL     1      25.813  49.749  48.636  1.00  0.00     0.001 A 
HETATM   18  C   UNL     1      24.859  48.804  49.020  1.00  0.00     0.009 A 
ENDBRANCH   7  13
ENDBRANCH   1   7
BRANCH   3  19
HETATM   19  C   UNL     1      26.304  43.522  52.182  1.00  0.00     0.175 A 
HETATM   20  S   UNL     1      27.471  42.910  51.105  1.00  0.00    -0.061 SA
HETATM   21  C   UNL     1      28.696  43.333  52.233  1.00  0.00     0.086 A 
HETATM   22  C   UNL     1      28.120  43.933  53.337  1.00  0.00     0.078 A 
HETATM   23  N   UNL     1      26.738  44.047  53.302  1.00  0.00    -0.223 NA
BRANCH  22  24
HETATM   24  C   UNL     1      28.889  44.431  54.458  1.00  0.00     0.011 A 
HETATM   25  C   UNL     1      28.550  45.612  55.109  1.00  0.00     0.130 A 
HETATM   26  N   UNL     1      29.233  46.121  56.161  1.00  0.00    -0.272 NA
HETATM   27  C   UNL     1      30.297  45.410  56.596  1.00  0.00     0.116 A 
HETATM   28  C   UNL     1      30.717  44.224  56.014  1.00  0.00     0.020 A 
HETATM   29  C   UNL     1      30.006  43.733  54.921  1.00  0.00     0.017 A 
ENDBRANCH  22  24
ENDBRANCH   3  19
TORSDOF 6
ENDMDL
MODEL 2
REMARK VINA RESULT:      -8.3      3.424      6.803
REMARK  6 active torsions:
REMARK  status: ('A' for Active; 'I' for Inactive)
REMARK    1  A    between atoms: N_2  and  C_4 
REMARK    2  A    between atoms: C_4  and  C_5 
REMARK    3  A    between atoms: C_5  and  N_6 
REMARK    4  A    between atoms: C_5  and  C_21 
REMARK       I    between atoms: N_6  and  C_7 
REMARK       I    between atoms: C_7  and  N_8 
REMARK    5  A    between atoms: N_8  and  C_9 
REMARK    6  A    between atoms: C_12  and  C_13 
ROOT
HETATM    1  N   UNL     1      26.822  44.065  53.304  1.00  0.00    -0.333 N 
HETATM    2  C   UNL     1      25.497  43.873  53.070  1.00  0.00     0.322 C 
HETATM    3  N   UNL     1      25.143  43.163  51.970  1.00  0.00    -0.287 N 
HETATM    4  O   UNL     1      24.634  44.238  53.866  1.00  0.00    -0.247 OA
HETATM    5  H   UNL     1      27.417  43.913  52.489  1.00  0.00     0.165 HD
HETATM    6  H   UNL     1      24.154  43.011  51.827  1.00  0.00     0.172 HD
ENDROOT
BRANCH   1   7
HETATM    7  C   UNL     1      27.374  44.889  54.371  1.00  0.00     0.145 C 
BRANCH   7   8
HETATM    8  C   UNL     1      27.424  46.428  54.112  1.00  0.00     0.263 C 
BRANCH   8   9
HETATM    9  N   UNL     1      26.099  47.176  54.286  1.00  0.00    -0.076 N 
HETATM   10  C   UNL     1      25.410  47.526  53.002  1.00  0.00     0.269 C 
HETATM   11  H   UNL     1      25.491  46.493  54.756  1.00  0.00     0.279 HD
HETATM   12  C   UNL     1      26.163  48.340  55.232  1.00  0.00     0.269 C 
ENDBRANCH   8   9
ENDBRANCH   7   8
BRANCH   7  13
HETATM   13  C   UNL     1      28.719  44.368  54.855  1.00  0.00    -0.034 A 
HETATM   14  C   UNL     1      29.435  45.086  55.830  1.00  0.00     0.009 A 
HETATM   15  C   UNL     1      30.693  44.653  56.255  1.00  0.00     0.001 A 
HETATM   16  C   UNL     1      31.251  43.495  55.720  1.00  0.00     0.000 A 
HETATM   17  C   UNL     1      30.548  42.764  54.767  1.00  0.00     0.001 A 
HETATM   18  C   UNL     1      29.291  43.196  54.337  1.00  0.00     0.009 A 
ENDBRANCH   7  13
ENDBRANCH   1   7
BRANCH   3  19
HETATM   19  C   UNL     1      26.002  42.568  51.091  1.00  0.00     0.175 A 
HETATM   20  S   UNL     1      26.085  43.309  49.561  1.00  0.00    -0.061 SA
HETATM   21  C   UNL     1      27.159  42.071  49.049  1.00  0.00     0.086 A 
HETATM   22  C   UNL     1      27.392  41.198  50.096  1.00  0.00     0.078 A 
HETATM   23  N   UNL     1      26.727  41.492  51.277  1.00  0.00    -0.223 NA
BRANCH  22  24
HETATM   24  C   UNL     1      28.279  40.059  49.994  1.00  0.00     0.011 A 
HETATM   25  C   UNL     1      28.565  39.464  48.770  1.00  0.00     0.130 A 
HETATM   26  N   UNL     1      29.388  38.399  48.618  1.00  0.00    -0.272 NA
HETATM   27  C   UNL     1      29.964  37.912  49.739  1.00  0.00     0.116 A 
HETATM   28  C   UNL     1      29.740  38.431  51.005  1.00  0.00     0.020 A 
HETATM   29  C   UNL     1      28.875  39.516  51.133  1.00  0.00     0.017 A 
ENDBRANCH  22  24
ENDBRANCH   3  19
TORSDOF 6
ENDMDL
MODEL 3
REMARK VINA RESULT:      -8.3      2.969      4.958
REMARK  6 active torsions:
REMARK  status: ('A' for Active; 'I' for Inactive)
REMARK    1  A    between atoms: N_2  and  C_4 
REMARK    2  A    between atoms: C_4  and  C_5 
REMARK    3  A    between atoms: C_5  and  N_6 
REMARK    4  A    between atoms: C_5  and  C_21 
REMARK       I    between atoms: N_6  and  C_7 
REMARK       I    between atoms: C_7  and  N_8 
REMARK    5  A    between atoms: N_8  and  C_9 
REMARK    6  A    between atoms: C_12  and  C_13 
ROOT
HETATM    1  N   UNL     1      26.548  45.080  52.341  1.00  0.00    -0.333 N 
HETATM    2  C   UNL     1      26.145  46.359  52.120  1.00  0.00     0.322 C 
HETATM    3  N   UNL     1      26.389  47.278  53.088  1.00  0.00    -0.287 N 
HETATM    4  O   UNL     1      25.661  46.716  51.048  1.00  0.00    -0.247 OA
HETATM    5  H   UNL     1      26.733  44.863  53.320  1.00  0.00     0.165 HD
HETATM    6  H   UNL     1      26.102  48.228  52.895  1.00  0.00     0.172 HD
ENDROOT
BRANCH   1   7
HETATM    7  C   UNL     1      26.273  43.952  51.462  1.00  0.00     0.145 C 
BRANCH   7   8
HETATM    8  C   UNL     1      24.779  43.521  51.324  1.00  0.00     0.263 C 
BRANCH   8   9
HETATM    9  N   UNL     1      24.011  44.147  50.156  1.00  0.00    -0.076 N 
HETATM   10  C   UNL     1      22.626  43.608  49.964  1.00  0.00     0.269 C 
HETATM   11  H   UNL     1      23.895  45.129  50.435  1.00  0.00     0.279 HD
HETATM   12  C   UNL     1      24.779  44.208  48.868  1.00  0.00     0.269 C 
ENDBRANCH   8   9
ENDBRANCH   7   8
BRANCH   7  13
HETATM   13  C   UNL     1      27.164  42.758  51.772  1.00  0.00    -0.034 A 
HETATM   14  C   UNL     1      27.861  42.706  52.992  1.00  0.00     0.009 A 
HETATM   15  C   UNL     1      28.723  41.645  53.279  1.00  0.00     0.001 A 
HETATM   16  C   UNL     1      28.894  40.616  52.356  1.00  0.00     0.000 A 
HETATM   17  C   UNL     1      28.199  40.644  51.151  1.00  0.00     0.001 A 
HETATM   18  C   UNL     1      27.340  41.706  50.860  1.00  0.00     0.009 A 
ENDBRANCH   7  13
ENDBRANCH   1   7
BRANCH   3  19
HETATM   19  C   UNL     1      27.057  47.050  54.257  1.00  0.00     0.175 A 
HETATM   20  S   UNL     1      26.624  48.081  55.540  1.00  0.00    -0.061 SA
HETATM   21  C   UNL     1      27.828  47.335  56.511  1.00  0.00     0.086 A 
HETATM   22  C   UNL     1      28.453  46.336  55.788  1.00  0.00     0.078 A 
HETATM   23  N   UNL     1      28.000  46.170  54.487  1.00  0.00    -0.223 NA
BRANCH  22  24
HETATM   24  C   UNL     1      29.498  45.498  56.335  1.00  0.00     0.011 A 
HETATM   25  C   UNL     1      30.020  45.717  57.605  1.00  0.00     0.130 A 
HETATM   26  N   UNL     1      30.996  44.963  58.164  1.00  0.00    -0.272 NA
HETATM   27  C   UNL     1      31.465  43.933  57.428  1.00  0.00     0.116 A 
HETATM   28  C   UNL     1      31.014  43.634  56.152  1.00  0.00     0.020 A 
HETATM   29  C   UNL     1      30.021  44.436  55.594  1.00  0.00     0.017 A 
ENDBRANCH  22  24
ENDBRANCH   3  19
TORSDOF 6
ENDMDL
MODEL 4
REMARK VINA RESULT:      -8.2      2.234      7.290
REMARK  6 active torsions:
REMARK  status: ('A' for Active; 'I' for Inactive)
REMARK    1  A    between atoms: N_2  and  C_4 
REMARK    2  A    between atoms: C_4  and  C_5 
REMARK    3  A    between atoms: C_5  and  N_6 
REMARK    4  A    between atoms: C_5  and  C_21 
REMARK       I    between atoms: N_6  and  C_7 
REMARK       I    between atoms: C_7  and  N_8 
REMARK    5  A    between atoms: N_8  and  C_9 
REMARK    6  A    between atoms: C_12  and  C_13 
ROOT
HETATM    1  N   UNL     1      27.257  43.923  52.903  1.00  0.00    -0.333 N 
HETATM    2  C   UNL     1      26.185  44.041  53.732  1.00  0.00     0.322 C 
HETATM    3  N   UNL     1      25.139  44.796  53.313  1.00  0.00    -0.287 N 
HETATM    4  O   UNL     1      26.103  43.415  54.786  1.00  0.00    -0.247 OA
HETATM    5  H   UNL     1      27.304  44.639  52.178  1.00  0.00     0.165 HD
HETATM    6  H   UNL     1      24.342  44.851  53.932  1.00  0.00     0.172 HD
ENDROOT
BRANCH   1   7
HETATM    7  C   UNL     1      28.502  43.246  53.236  1.00  0.00     0.145 C 
BRANCH   7   8
HETATM    8  C   UNL     1      28.419  41.704  53.467  1.00  0.00     0.263 C 
BRANCH   8   9
HETATM    9  N   UNL     1      28.116  40.860  52.226  1.00  0.00    -0.076 N 
HETATM   10  C   UNL     1      29.095  39.754  51.973  1.00  0.00     0.269 C 
HETATM   11  H   UNL     1      27.224  40.401  52.452  1.00  0.00     0.279 HD
HETATM   12  C   UNL     1      27.828  41.657  50.988  1.00  0.00     0.269 C 
ENDBRANCH   8   9
ENDBRANCH   7   8
BRANCH   7  13
HETATM   13  C   UNL     1      29.238  43.935  54.375  1.00  0.00    -0.034 A 
HETATM   14  C   UNL     1      30.262  43.254  55.057  1.00  0.00     0.009 A 
HETATM   15  C   UNL     1      30.919  43.847  56.138  1.00  0.00     0.001 A 
HETATM   16  C   UNL     1      30.570  45.132  56.546  1.00  0.00     0.000 A 
HETATM   17  C   UNL     1      29.571  45.826  55.872  1.00  0.00     0.001 A 
HETATM   18  C   UNL     1      28.909  45.233  54.794  1.00  0.00     0.009 A 
ENDBRANCH   7  13
ENDBRANCH   1   7
BRANCH   3  19
HETATM   19  C   UNL     1      25.033  45.414  52.100  1.00  0.00     0.175 A 
HETATM   20  S   UNL     1      24.085  44.586  50.955  1.00  0.00    -0.061 SA
HETATM   21  C   UNL     1      24.476  45.792  49.797  1.00  0.00     0.086 A 
HETATM   22  C   UNL     1      25.283  46.751  50.382  1.00  0.00     0.078 A 
HETATM   23  N   UNL     1      25.597  46.533  51.715  1.00  0.00    -0.223 NA
BRANCH  22  24
HETATM   24  C   UNL     1      25.764  47.918  49.675  1.00  0.00     0.011 A 
HETATM   25  C   UNL     1      24.898  48.773  49.001  1.00  0.00     0.130 A 
HETATM   26  N   UNL     1      25.295  49.878  48.326  1.00  0.00    -0.272 NA
HETATM   27  C   UNL     1      26.617  50.153  48.337  1.00  0.00     0.116 A 
HETATM   28  C   UNL     1      27.561  49.363  48.975  1.00  0.00     0.020 A 
HETATM   29  C   UNL     1      27.126  48.223  49.647  1.00  0.00     0.017 A 
ENDBRANCH  22  24
ENDBRANCH   3  19
TORSDOF 6
ENDMDL
MODEL 5
REMARK VINA RESULT:      -8.0      3.303      8.260
REMARK  6 active torsions:
REMARK  status: ('A' for Active; 'I' for Inactive)
REMARK    1  A    between atoms: N_2  and  C_4 
REMARK    2  A    between atoms: C_4  and  C_5 
REMARK    3  A    between atoms: C_5  and  N_6 
REMARK    4  A    between atoms: C_5  and  C_21 
REMARK       I    between atoms: N_6  and  C_7 
REMARK       I    between atoms: C_7  and  N_8 
REMARK    5  A    between atoms: N_8  and  C_9 
REMARK    6  A    between atoms: C_12  and  C_13 
ROOT
HETATM    1  N   UNL     1      23.543  46.512  49.449  1.00  0.00    -0.333 N 
HETATM    2  C   UNL     1      22.864  45.339  49.345  1.00  0.00     0.322 C 
HETATM    3  N   UNL     1      21.595  45.380  48.867  1.00  0.00    -0.287 N 
HETATM    4  O   UNL     1      23.394  44.254  49.579  1.00  0.00    -0.247 OA
HETATM    5  H   UNL     1      22.950  47.341  49.436  1.00  0.00     0.165 HD
HETATM    6  H   UNL     1      21.116  44.495  48.775  1.00  0.00     0.172 HD
ENDROOT
BRANCH   1   7
HETATM    7  C   UNL     1      24.866  46.663  50.040  1.00  0.00     0.145 C 
BRANCH   7   8
HETATM    8  C   UNL     1      24.950  46.588  51.597  1.00  0.00     0.263 C 
BRANCH   8   9
HETATM    9  N   UNL     1      25.870  45.502  52.162  1.00  0.00    -0.076 N 
HETATM   10  C   UNL     1      26.565  44.674  51.123  1.00  0.00     0.269 C 
HETATM   11  H   UNL     1      26.609  46.031  52.642  1.00  0.00     0.279 HD
HETATM   12  C   UNL     1      25.249  44.659  53.237  1.00  0.00     0.269 C 
ENDBRANCH   8   9
ENDBRANCH   7   8
BRANCH   7  13
HETATM   13  C   UNL     1      25.589  47.892  49.508  1.00  0.00    -0.034 A 
HETATM   14  C   UNL     1      24.858  48.909  48.868  1.00  0.00     0.009 A 
HETATM   15  C   UNL     1      25.505  50.023  48.329  1.00  0.00     0.001 A 
HETATM   16  C   UNL     1      26.889  50.143  48.429  1.00  0.00     0.000 A 
HETATM   17  C   UNL     1      27.626  49.154  49.073  1.00  0.00     0.001 A 
HETATM   18  C   UNL     1      26.981  48.036  49.610  1.00  0.00     0.009 A 
ENDBRANCH   7  13
ENDBRANCH   1   7
BRANCH   3  19
HETATM   19  C   UNL     1      20.944  46.495  48.423  1.00  0.00     0.175 A 
HETATM   20  S   UNL     1      20.641  46.526  46.748  1.00  0.00    -0.061 SA
HETATM   21  C   UNL     1      19.973  48.099  46.925  1.00  0.00     0.086 A 
HETATM   22  C   UNL     1      20.009  48.470  48.257  1.00  0.00     0.078 A 
HETATM   23  N   UNL     1      20.565  47.537  49.121  1.00  0.00    -0.223 NA
BRANCH  22  24
HETATM   24  C   UNL     1      19.493  49.732  48.741  1.00  0.00     0.011 A 
HETATM   25  C   UNL     1      18.531  49.792  49.743  1.00  0.00     0.130 A 
HETATM   26  N   UNL     1      18.016  50.945  50.233  1.00  0.00    -0.272 NA
HETATM   27  C   UNL     1      18.496  52.094  49.709  1.00  0.00     0.116 A 
HETATM   28  C   UNL     1      19.451  52.141  48.706  1.00  0.00     0.020 A 
HETATM   29  C   UNL     1      19.950  50.939  48.209  1.00  0.00     0.017 A 
ENDBRANCH  22  24
ENDBRANCH   3  19
TORSDOF 6
ENDMDL
MODEL 6
REMARK VINA RESULT:      -7.8      2.403      3.965
REMARK  6 active torsions:
REMARK  status: ('A' for Active; 'I' for Inactive)
REMARK    1  A    between atoms: N_2  and  C_4 
REMARK    2  A    between atoms: C_4  and  C_5 
REMARK    3  A    between atoms: C_5  and  N_6 
REMARK    4  A    between atoms: C_5  and  C_21 
REMARK       I    between atoms: N_6  and  C_7 
REMARK       I    between atoms: C_7  and  N_8 
REMARK    5  A    between atoms: N_8  and  C_9 
REMARK    6  A    between atoms: C_12  and  C_13 
ROOT
HETATM    1  N   UNL     1      25.260  46.126  51.201  1.00  0.00    -0.333 N 
HETATM    2  C   UNL     1      25.483  46.521  52.482  1.00  0.00     0.322 C 
HETATM    3  N   UNL     1      26.117  45.655  53.312  1.00  0.00    -0.287 N 
HETATM    4  O   UNL     1      25.217  47.656  52.872  1.00  0.00    -0.247 OA
HETATM    5  H   UNL     1      25.323  45.118  51.057  1.00  0.00     0.165 HD
HETATM    6  H   UNL     1      26.294  45.976  54.254  1.00  0.00     0.172 HD
ENDROOT
BRANCH   1   7
HETATM    7  C   UNL     1      24.503  46.881  50.212  1.00  0.00     0.145 C 
BRANCH   7   8
HETATM    8  C   UNL     1      23.724  46.051  49.144  1.00  0.00     0.263 C 
BRANCH   8   9
HETATM    9  N   UNL     1      22.197  46.130  49.223  1.00  0.00    -0.076 N 
HETATM   10  C   UNL     1      21.492  44.851  48.886  1.00  0.00     0.269 C 
HETATM   11  H   UNL     1      22.011  46.301  50.219  1.00  0.00     0.279 HD
HETATM   12  C   UNL     1      21.598  47.311  48.518  1.00  0.00     0.269 C 
ENDBRANCH   8   9
ENDBRANCH   7   8
BRANCH   7  13
HETATM   13  C   UNL     1      25.345  47.967  49.559  1.00  0.00    -0.034 A 
HETATM   14  C   UNL     1      26.747  47.918  49.659  1.00  0.00     0.009 A 
HETATM   15  C   UNL     1      27.539  48.929  49.110  1.00  0.00     0.001 A 
HETATM   16  C   UNL     1      26.944  49.999  48.446  1.00  0.00     0.000 A 
HETATM   17  C   UNL     1      25.559  50.055  48.323  1.00  0.00     0.001 A 
HETATM   18  C   UNL     1      24.765  49.046  48.875  1.00  0.00     0.009 A 
ENDBRANCH   7  13
ENDBRANCH   1   7
BRANCH   3  19
HETATM   19  C   UNL     1      26.606  44.428  52.966  1.00  0.00     0.175 A 
HETATM   20  S   UNL     1      27.192  43.500  54.267  1.00  0.00    -0.061 SA
HETATM   21  C   UNL     1      27.677  42.289  53.150  1.00  0.00     0.086 A 
HETATM   22  C   UNL     1      27.331  42.676  51.868  1.00  0.00     0.078 A 
HETATM   23  N   UNL     1      26.705  43.910  51.767  1.00  0.00    -0.223 NA
BRANCH  22  24
HETATM   24  C   UNL     1      27.579  41.858  50.700  1.00  0.00     0.011 A 
HETATM   25  C   UNL     1      27.223  42.281  49.424  1.00  0.00     0.130 A 
HETATM   26  N   UNL     1      27.434  41.557  48.299  1.00  0.00    -0.272 NA
HETATM   27  C   UNL     1      28.042  40.360  48.452  1.00  0.00     0.116 A 
HETATM   28  C   UNL     1      28.431  39.848  49.680  1.00  0.00     0.020 A 
HETATM   29  C   UNL     1      28.186  40.607  50.823  1.00  0.00     0.017 A 
ENDBRANCH  22  24
ENDBRANCH   3  19
TORSDOF 6
ENDMDL
MODEL 7
REMARK VINA RESULT:      -7.7      2.521      7.376
REMARK  6 active torsions:
REMARK  status: ('A' for Active; 'I' for Inactive)
REMARK    1  A    between atoms: N_2  and  C_4 
REMARK    2  A    between atoms: C_4  and  C_5 
REMARK    3  A    between atoms: C_5  and  N_6 
REMARK    4  A    between atoms: C_5  and  C_21 
REMARK       I    between atoms: N_6  and  C_7 
REMARK       I    between atoms: C_7  and  N_8 
REMARK    5  A    between atoms: N_8  and  C_9 
REMARK    6  A    between atoms: C_12  and  C_13 
ROOT
HETATM    1  N   UNL     1      26.595  44.135  51.477  1.00  0.00    -0.333 N 
HETATM    2  C   UNL     1      26.733  43.239  50.463  1.00  0.00     0.322 C 
HETATM    3  N   UNL     1      25.809  43.259  49.470  1.00  0.00    -0.287 N 
HETATM    4  O   UNL     1      27.706  42.494  50.377  1.00  0.00    -0.247 OA
HETATM    5  H   UNL     1      25.662  44.540  51.553  1.00  0.00     0.165 HD
HETATM    6  H   UNL     1      25.942  42.601  48.713  1.00  0.00     0.172 HD
ENDROOT
BRANCH   1   7
HETATM    7  C   UNL     1      27.428  44.182  52.670  1.00  0.00     0.145 C 
BRANCH   7   8
HETATM    8  C   UNL     1      27.458  42.896  53.554  1.00  0.00     0.263 C 
BRANCH   8   9
HETATM    9  N   UNL     1      28.786  42.133  53.575  1.00  0.00    -0.076 N 
HETATM   10  C   UNL     1      29.952  42.901  53.028  1.00  0.00     0.269 C 
HETATM   11  H   UNL     1      28.979  42.001  54.575  1.00  0.00     0.279 HD
HETATM   12  C   UNL     1      28.712  40.741  53.017  1.00  0.00     0.269 C 
ENDBRANCH   8   9
ENDBRANCH   7   8
BRANCH   7  13
HETATM   13  C   UNL     1      27.150  45.420  53.509  1.00  0.00    -0.034 A 
HETATM   14  C   UNL     1      26.098  46.283  53.153  1.00  0.00     0.009 A 
HETATM   15  C   UNL     1      25.855  47.451  53.879  1.00  0.00     0.001 A 
HETATM   16  C   UNL     1      26.651  47.770  54.976  1.00  0.00     0.000 A 
HETATM   17  C   UNL     1      27.685  46.919  55.352  1.00  0.00     0.001 A 
HETATM   18  C   UNL     1      27.934  45.752  54.625  1.00  0.00     0.009 A 
ENDBRANCH   7  13
ENDBRANCH   1   7
BRANCH   3  19
HETATM   19  C   UNL     1      24.769  44.137  49.360  1.00  0.00     0.175 A 
HETATM   20  S   UNL     1      23.242  43.415  49.159  1.00  0.00    -0.061 SA
HETATM   21  C   UNL     1      22.551  44.980  49.006  1.00  0.00     0.086 A 
HETATM   22  C   UNL     1      23.539  45.938  49.146  1.00  0.00     0.078 A 
HETATM   23  N   UNL     1      24.819  45.447  49.357  1.00  0.00    -0.223 NA
BRANCH  22  24
HETATM   24  C   UNL     1      23.276  47.360  49.095  1.00  0.00     0.011 A 
HETATM   25  C   UNL     1      24.271  48.296  49.354  1.00  0.00     0.130 A 
HETATM   26  N   UNL     1      24.079  49.636  49.318  1.00  0.00    -0.272 NA
HETATM   27  C   UNL     1      22.839  50.064  48.994  1.00  0.00     0.116 A 
HETATM   28  C   UNL     1      21.780  49.212  48.723  1.00  0.00     0.020 A 
HETATM   29  C   UNL     1      22.002  47.837  48.783  1.00  0.00     0.017 A 
ENDBRANCH  22  24
ENDBRANCH   3  19
TORSDOF 6
ENDMDL
MODEL 8
REMARK VINA RESULT:      -7.5      3.616      6.479
REMARK  6 active torsions:
REMARK  status: ('A' for Active; 'I' for Inactive)
REMARK    1  A    between atoms: N_2  and  C_4 
REMARK    2  A    between atoms: C_4  and  C_5 
REMARK    3  A    between atoms: C_5  and  N_6 
REMARK    4  A    between atoms: C_5  and  C_21 
REMARK       I    between atoms: N_6  and  C_7 
REMARK       I    between atoms: C_7  and  N_8 
REMARK    5  A    between atoms: N_8  and  C_9 
REMARK    6  A    between atoms: C_12  and  C_13 
ROOT
HETATM    1  N   UNL     1      25.996  43.594  51.280  1.00  0.00    -0.333 N 
HETATM    2  C   UNL     1      24.654  43.514  51.076  1.00  0.00     0.322 C 
HETATM    3  N   UNL     1      24.199  42.578  50.206  1.00  0.00    -0.287 N 
HETATM    4  O   UNL     1      23.854  44.189  51.720  1.00  0.00    -0.247 OA
HETATM    5  H   UNL     1      26.556  43.149  50.553  1.00  0.00     0.165 HD
HETATM    6  H   UNL     1      23.197  42.519  50.086  1.00  0.00     0.172 HD
ENDROOT
BRANCH   1   7
HETATM    7  C   UNL     1      26.660  44.604  52.092  1.00  0.00     0.145 C 
BRANCH   7   8
HETATM    8  C   UNL     1      26.994  45.957  51.390  1.00  0.00     0.263 C 
BRANCH   8   9
HETATM    9  N   UNL     1      26.048  47.121  51.702  1.00  0.00    -0.076 N 
HETATM   10  C   UNL     1      25.574  47.171  53.122  1.00  0.00     0.269 C 
HETATM   11  H   UNL     1      26.633  47.956  51.569  1.00  0.00     0.279 HD
HETATM   12  C   UNL     1      24.924  47.287  50.722  1.00  0.00     0.269 C 
ENDBRANCH   8   9
ENDBRANCH   7   8
BRANCH   7  13
HETATM   13  C   UNL     1      27.876  44.043  52.815  1.00  0.00    -0.034 A 
HETATM   14  C   UNL     1      28.209  44.522  54.095  1.00  0.00     0.009 A 
HETATM   15  C   UNL     1      29.347  44.058  54.757  1.00  0.00     0.001 A 
HETATM   16  C   UNL     1      30.164  43.104  54.157  1.00  0.00     0.000 A 
HETATM   17  C   UNL     1      29.841  42.607  52.898  1.00  0.00     0.001 A 
HETATM   18  C   UNL     1      28.705  43.073  52.231  1.00  0.00     0.009 A 
ENDBRANCH   7  13
ENDBRANCH   1   7
BRANCH   3  19
HETATM   19  C   UNL     1      24.964  41.660  49.545  1.00  0.00     0.175 A 
HETATM   20  S   UNL     1      24.351  41.175  48.033  1.00  0.00    -0.061 SA
HETATM   21  C   UNL     1      25.655  40.066  47.891  1.00  0.00     0.086 A 
HETATM   22  C   UNL     1      26.474  40.169  49.000  1.00  0.00     0.078 A 
HETATM   23  N   UNL     1      26.075  41.097  49.951  1.00  0.00    -0.223 NA
BRANCH  22  24
HETATM   24  C   UNL     1      27.678  39.385  49.170  1.00  0.00     0.011 A 
HETATM   25  C   UNL     1      28.189  38.598  48.143  1.00  0.00     0.130 A 
HETATM   26  N   UNL     1      29.311  37.847  48.249  1.00  0.00    -0.272 NA
HETATM   27  C   UNL     1      29.964  37.895  49.431  1.00  0.00     0.116 A 
HETATM   28  C   UNL     1      29.535  38.644  50.515  1.00  0.00     0.020 A 
HETATM   29  C   UNL     1      28.368  39.393  50.384  1.00  0.00     0.017 A 
ENDBRANCH  22  24
ENDBRANCH   3  19
TORSDOF 6
ENDMDL
MODEL 9
REMARK VINA RESULT:      -7.4      2.424      3.425
REMARK  6 active torsions:
REMARK  status: ('A' for Active; 'I' for Inactive)
REMARK    1  A    between atoms: N_2  and  C_4 
REMARK    2  A    between atoms: C_4  and  C_5 
REMARK    3  A    between atoms: C_5  and  N_6 
REMARK    4  A    between atoms: C_5  and  C_21 
REMARK       I    between atoms: N_6  and  C_7 
REMARK       I    between atoms: C_7  and  N_8 
REMARK    5  A    between atoms: N_8  and  C_9 
REMARK    6  A    between atoms: C_12  and  C_13 
ROOT
HETATM    1  N   UNL     1      22.632  46.056  49.171  1.00  0.00    -0.333 N 
HETATM    2  C   UNL     1      22.405  44.722  49.308  1.00  0.00     0.322 C 
HETATM    3  N   UNL     1      23.331  43.986  49.973  1.00  0.00    -0.287 N 
HETATM    4  O   UNL     1      21.358  44.196  48.938  1.00  0.00    -0.247 OA
HETATM    5  H   UNL     1      23.602  46.332  49.320  1.00  0.00     0.165 HD
HETATM    6  H   UNL     1      23.133  43.002  50.084  1.00  0.00     0.172 HD
ENDROOT
BRANCH   1   7
HETATM    7  C   UNL     1      21.802  46.971  48.400  1.00  0.00     0.145 C 
BRANCH   7   8
HETATM    8  C   UNL     1      21.580  46.616  46.896  1.00  0.00     0.263 C 
BRANCH   8   9
HETATM    9  N   UNL     1      20.282  45.870  46.572  1.00  0.00    -0.076 N 
HETATM   10  C   UNL     1      20.135  45.477  45.133  1.00  0.00     0.269 C 
HETATM   11  H   UNL     1      20.365  44.991  47.097  1.00  0.00     0.279 HD
HETATM   12  C   UNL     1      19.042  46.519  47.112  1.00  0.00     0.269 C 
ENDBRANCH   8   9
ENDBRANCH   7   8
BRANCH   7  13
HETATM   13  C   UNL     1      22.244  48.417  48.565  1.00  0.00    -0.034 A 
HETATM   14  C   UNL     1      21.280  49.424  48.752  1.00  0.00     0.009 A 
HETATM   15  C   UNL     1      21.659  50.765  48.857  1.00  0.00     0.001 A 
HETATM   16  C   UNL     1      23.004  51.118  48.787  1.00  0.00     0.000 A 
HETATM   17  C   UNL     1      23.972  50.132  48.619  1.00  0.00     0.001 A 
HETATM   18  C   UNL     1      23.596  48.791  48.509  1.00  0.00     0.009 A 
ENDBRANCH   7  13
ENDBRANCH   1   7
BRANCH   3  19
HETATM   19  C   UNL     1      24.459  44.470  50.571  1.00  0.00     0.175 A 
HETATM   20  S   UNL     1      25.909  44.124  49.749  1.00  0.00    -0.061 SA
HETATM   21  C   UNL     1      26.780  44.876  51.024  1.00  0.00     0.086 A 
HETATM   22  C   UNL     1      25.893  45.357  51.970  1.00  0.00     0.078 A 
HETATM   23  N   UNL     1      24.552  45.127  51.701  1.00  0.00    -0.223 NA
BRANCH  22  24
HETATM   24  C   UNL     1      26.313  46.070  53.157  1.00  0.00     0.011 A 
HETATM   25  C   UNL     1      25.670  47.230  53.578  1.00  0.00     0.130 A 
HETATM   26  N   UNL     1      26.021  47.933  54.681  1.00  0.00    -0.272 NA
HETATM   27  C   UNL     1      27.052  47.449  55.408  1.00  0.00     0.116 A 
HETATM   28  C   UNL     1      27.758  46.305  55.071  1.00  0.00     0.020 A 
HETATM   29  C   UNL     1      27.387  45.611  53.921  1.00  0.00     0.017 A 
ENDBRANCH  22  24
ENDBRANCH   3  19
TORSDOF 6
ENDMDL
MODEL 10
REMARK VINA RESULT:      -7.4      3.973      8.481
REMARK  6 active torsions:
REMARK  status: ('A' for Active; 'I' for Inactive)
REMARK    1  A    between atoms: N_2  and  C_4 
REMARK    2  A    between atoms: C_4  and  C_5 
REMARK    3  A    between atoms: C_5  and  N_6 
REMARK    4  A    between atoms: C_5  and  C_21 
REMARK       I    between atoms: N_6  and  C_7 
REMARK       I    between atoms: C_7  and  N_8 
REMARK    5  A    between atoms: N_8  and  C_9 
REMARK    6  A    between atoms: C_12  and  C_13 
ROOT
HETATM    1  N   UNL     1      24.272  47.404  49.706  1.00  0.00    -0.333 N 
HETATM    2  C   UNL     1      24.725  48.591  49.222  1.00  0.00     0.322 C 
HETATM    3  N   UNL     1      23.808  49.534  48.893  1.00  0.00    -0.287 N 
HETATM    4  O   UNL     1      25.924  48.859  49.168  1.00  0.00    -0.247 OA
HETATM    5  H   UNL     1      23.289  47.220  49.507  1.00  0.00     0.165 HD
HETATM    6  H   UNL     1      24.165  50.418  48.557  1.00  0.00     0.172 HD
ENDROOT
BRANCH   1   7
HETATM    7  C   UNL     1      25.106  46.249  50.006  1.00  0.00     0.145 C 
BRANCH   7   8
HETATM    8  C   UNL     1      24.716  44.905  49.313  1.00  0.00     0.263 C 
BRANCH   8   9
HETATM    9  N   UNL     1      23.230  44.730  48.988  1.00  0.00    -0.076 N 
HETATM   10  C   UNL     1      22.551  43.639  49.759  1.00  0.00     0.269 C 
HETATM   11  H   UNL     1      22.803  45.609  49.308  1.00  0.00     0.279 HD
HETATM   12  C   UNL     1      22.917  44.669  47.522  1.00  0.00     0.269 C 
ENDBRANCH   8   9
ENDBRANCH   7   8
BRANCH   7  13
HETATM   13  C   UNL     1      25.300  46.060  51.503  1.00  0.00    -0.034 A 
HETATM   14  C   UNL     1      25.728  47.142  52.293  1.00  0.00     0.009 A 
HETATM   15  C   UNL     1      25.960  46.981  53.661  1.00  0.00     0.001 A 
HETATM   16  C   UNL     1      25.759  45.740  54.262  1.00  0.00     0.000 A 
HETATM   17  C   UNL     1      25.321  44.663  53.498  1.00  0.00     0.001 A 
HETATM   18  C   UNL     1      25.092  44.821  52.128  1.00  0.00     0.009 A 
ENDBRANCH   7  13
ENDBRANCH   1   7
BRANCH   3  19
HETATM   19  C   UNL     1      22.456  49.426  49.052  1.00  0.00     0.175 A 
HETATM   20  S   UNL     1      21.728  50.722  49.881  1.00  0.00    -0.061 SA
HETATM   21  C   UNL     1      20.222  49.901  49.789  1.00  0.00     0.086 A 
HETATM   22  C   UNL     1      20.386  48.708  49.109  1.00  0.00     0.078 A 
HETATM   23  N   UNL     1      21.678  48.440  48.679  1.00  0.00    -0.223 NA
BRANCH  22  24
HETATM   24  C   UNL     1      19.297  47.795  48.840  1.00  0.00     0.011 A 
HETATM   25  C   UNL     1      19.522  46.515  48.343  1.00  0.00     0.130 A 
HETATM   26  N   UNL     1      18.541  45.622  48.075  1.00  0.00    -0.272 NA
HETATM   27  C   UNL     1      17.274  46.017  48.329  1.00  0.00     0.116 A 
HETATM   28  C   UNL     1      16.945  47.271  48.820  1.00  0.00     0.020 A 
HETATM   29  C   UNL     1      17.974  48.176  49.071  1.00  0.00     0.017 A 
ENDBRANCH  22  24
ENDBRANCH   3  19
TORSDOF 6
ENDMDL
