MODEL 1
REMARK VINA RESULT:      -9.2      0.000      0.000
REMARK  4 active torsions:
REMARK  status: ('A' for Active; 'I' for Inactive)
REMARK    1  A    between atoms: O_2  and  C_3 
REMARK    2  A    between atoms: C_4  and  C_5 
REMARK    3  A    between atoms: C_9  and  N_10 
REMARK    4  A    between atoms: C_13  and  C_14 
ROOT
HETATM    1  C   UNL     1      25.369  46.772  50.784  1.00  0.00     0.167 C 
HETATM    2  N   UNL     1      25.473  45.441  50.179  1.00  0.00    -0.074 N 
HETATM    3  C   UNL     1      26.112  44.376  50.765  1.00  0.00     0.736 A 
HETATM    4  N   UNL     1      25.925  43.309  50.034  1.00  0.00     0.131 NA
HETATM    5  C   UNL     1      25.096  43.754  49.049  1.00  0.00     0.753 A 
HETATM    6  N   UNL     1      24.766  45.041  49.105  1.00  0.00     0.037 NA
HETATM    7  N   UNL     1      26.769  44.509  51.937  1.00  0.00    -0.214 N 
HETATM    8  C   UNL     1      26.360  45.612  52.798  1.00  0.00     0.135 C 
HETATM    9  C   UNL     1      26.350  46.906  51.971  1.00  0.00     0.063 C 
HETATM   10  H   UNL     1      26.978  43.638  52.420  1.00  0.00     0.178 HD
ENDROOT
BRANCH   1  11
HETATM   11  C   UNL     1      25.573  47.931  49.810  1.00  0.00     0.001 A 
HETATM   12  C   UNL     1      24.448  48.572  49.249  1.00  0.00     0.076 A 
HETATM   13  C   UNL     1      24.612  49.633  48.351  1.00  0.00     0.037 A 
HETATM   14  C   UNL     1      25.888  50.097  48.034  1.00  0.00     0.003 A 
HETATM   15  C   UNL     1      27.004  49.503  48.613  1.00  0.00     0.001 A 
HETATM   16  C   UNL     1      26.850  48.434  49.497  1.00  0.00     0.012 A 
BRANCH  12  17
HETATM   17  O   UNL     1      23.218  48.079  49.608  1.00  0.00    -0.355 OA
HETATM   18  C   UNL     1      22.322  47.839  48.524  1.00  0.00     0.210 C 
ENDBRANCH  12  17
ENDBRANCH   1  11
BRANCH   8  19
HETATM   19  C   UNL     1      27.284  45.698  53.997  1.00  0.00    -0.035 A 
HETATM   20  C   UNL     1      27.186  46.746  54.928  1.00  0.00     0.010 A 
HETATM   21  C   UNL     1      28.034  46.799  56.037  1.00  0.00     0.019 A 
HETATM   22  C   UNL     1      28.995  45.808  56.220  1.00  0.00     0.011 A 
HETATM   23 BR   UNL     1      30.141  45.875  57.721  1.00  0.00    -0.051 Br
HETATM   24  C   UNL     1      29.119  44.768  55.301  1.00  0.00     0.019 A 
HETATM   25  C   UNL     1      28.268  44.715  54.195  1.00  0.00     0.010 A 
ENDBRANCH   8  19
BRANCH   5  26
HETATM   26  N   UNL     1      24.693  42.892  48.120  1.00  0.00    -0.229 N 
HETATM   27  H   UNL     1      23.938  43.193  47.521  1.00  0.00     0.174 HD
HETATM   28  H   UNL     1      24.667  41.917  48.387  1.00  0.00     0.174 HD
ENDBRANCH   5  26
TORSDOF 4
ENDMDL
MODEL 2
REMARK VINA RESULT:      -8.2      4.163      6.053
REMARK  4 active torsions:
REMARK  status: ('A' for Active; 'I' for Inactive)
REMARK    1  A    between atoms: O_2  and  C_3 
REMARK    2  A    between atoms: C_4  and  C_5 
REMARK    3  A    between atoms: C_9  and  N_10 
REMARK    4  A    between atoms: C_13  and  C_14 
ROOT
HETATM    1  C   UNL     1      27.627  42.067  50.270  1.00  0.00     0.167 C 
HETATM    2  N   UNL     1      26.172  42.207  50.377  1.00  0.00    -0.074 N 
HETATM    3  C   UNL     1      25.534  42.877  51.392  1.00  0.00     0.736 A 
HETATM    4  N   UNL     1      24.253  42.924  51.136  1.00  0.00     0.131 NA
HETATM    5  C   UNL     1      24.164  42.337  49.910  1.00  0.00     0.753 A 
HETATM    6  N   UNL     1      25.309  41.906  49.388  1.00  0.00     0.037 NA
HETATM    7  N   UNL     1      26.222  43.403  52.428  1.00  0.00    -0.214 N 
HETATM    8  C   UNL     1      27.630  43.703  52.197  1.00  0.00     0.135 C 
HETATM    9  C   UNL     1      28.308  42.460  51.601  1.00  0.00     0.063 C 
HETATM   10  H   UNL     1      25.718  44.093  52.979  1.00  0.00     0.178 HD
ENDROOT
BRANCH   1  11
HETATM   11  C   UNL     1      28.103  40.683  49.833  1.00  0.00     0.001 A 
HETATM   12  C   UNL     1      28.285  40.414  48.461  1.00  0.00     0.076 A 
HETATM   13  C   UNL     1      28.716  39.151  48.037  1.00  0.00     0.037 A 
HETATM   14  C   UNL     1      29.013  38.160  48.971  1.00  0.00     0.003 A 
HETATM   15  C   UNL     1      28.881  38.425  50.329  1.00  0.00     0.001 A 
HETATM   16  C   UNL     1      28.435  39.676  50.758  1.00  0.00     0.012 A 
BRANCH  12  17
HETATM   17  O   UNL     1      27.989  41.433  47.590  1.00  0.00    -0.355 OA
HETATM   18  C   UNL     1      27.966  41.066  46.212  1.00  0.00     0.210 C 
ENDBRANCH  12  17
ENDBRANCH   1  11
BRANCH   8  19
HETATM   19  C   UNL     1      28.279  44.153  53.491  1.00  0.00    -0.035 A 
HETATM   20  C   UNL     1      29.403  43.495  54.018  1.00  0.00     0.010 A 
HETATM   21  C   UNL     1      29.999  43.936  55.202  1.00  0.00     0.019 A 
HETATM   22  C   UNL     1      29.469  45.033  55.876  1.00  0.00     0.011 A 
HETATM   23 BR   UNL     1      30.276  45.633  57.476  1.00  0.00    -0.051 Br
HETATM   24  C   UNL     1      28.346  45.691  55.379  1.00  0.00     0.019 A 
HETATM   25  C   UNL     1      27.754  45.251  54.192  1.00  0.00     0.010 A 
ENDBRANCH   8  19
BRANCH   5  26
HETATM   26  N   UNL     1      22.967  42.232  49.342  1.00  0.00    -0.229 N 
HETATM   27  H   UNL     1      22.168  42.413  49.933  1.00  0.00     0.174 HD
HETATM   28  H   UNL     1      22.846  41.482  48.675  1.00  0.00     0.174 HD
ENDBRANCH   5  26
TORSDOF 4
ENDMDL
MODEL 3
REMARK VINA RESULT:      -8.2      1.172      1.962
REMARK  4 active torsions:
REMARK  status: ('A' for Active; 'I' for Inactive)
REMARK    1  A    between atoms: O_2  and  C_3 
REMARK    2  A    between atoms: C_4  and  C_5 
REMARK    3  A    between atoms: C_9  and  N_10 
REMARK    4  A    between atoms: C_13  and  C_14 
ROOT
HETATM    1  C   UNL     1      24.349  46.812  50.476  1.00  0.00     0.167 C 
HETATM    2  N   UNL     1      24.590  45.600  49.688  1.00  0.00    -0.074 N 
HETATM    3  C   UNL     1      25.449  44.596  50.062  1.00  0.00     0.736 A 
HETATM    4  N   UNL     1      25.349  43.608  49.212  1.00  0.00     0.131 NA
HETATM    5  C   UNL     1      24.357  44.022  48.377  1.00  0.00     0.753 A 
HETATM    6  N   UNL     1      23.838  45.219  48.639  1.00  0.00     0.037 NA
HETATM    7  N   UNL     1      26.205  44.696  51.176  1.00  0.00    -0.214 N 
HETATM    8  C   UNL     1      25.728  45.603  52.214  1.00  0.00     0.135 C 
HETATM    9  C   UNL     1      25.424  46.966  51.576  1.00  0.00     0.063 C 
HETATM   10  H   UNL     1      26.599  43.821  51.515  1.00  0.00     0.178 HD
ENDROOT
BRANCH   1  11
HETATM   11  C   UNL     1      24.260  48.097  49.656  1.00  0.00     0.001 A 
HETATM   12  C   UNL     1      25.434  48.650  49.102  1.00  0.00     0.076 A 
HETATM   13  C   UNL     1      25.376  49.829  48.351  1.00  0.00     0.037 A 
HETATM   14  C   UNL     1      24.151  50.448  48.105  1.00  0.00     0.003 A 
HETATM   15  C   UNL     1      22.981  49.891  48.608  1.00  0.00     0.001 A 
HETATM   16  C   UNL     1      23.032  48.724  49.372  1.00  0.00     0.012 A 
BRANCH  12  17
HETATM   17  O   UNL     1      26.608  47.989  49.367  1.00  0.00    -0.355 OA
HETATM   18  C   UNL     1      27.795  48.742  49.125  1.00  0.00     0.210 C 
ENDBRANCH  12  17
ENDBRANCH   1  11
BRANCH   8  19
HETATM   19  C   UNL     1      26.756  45.699  53.325  1.00  0.00    -0.035 A 
HETATM   20  C   UNL     1      26.894  46.862  54.101  1.00  0.00     0.010 A 
HETATM   21  C   UNL     1      27.833  46.925  55.133  1.00  0.00     0.019 A 
HETATM   22  C   UNL     1      28.652  45.828  55.391  1.00  0.00     0.011 A 
HETATM   23 BR   UNL     1      29.922  45.911  56.788  1.00  0.00    -0.051 Br
HETATM   24  C   UNL     1      28.542  44.670  54.623  1.00  0.00     0.019 A 
HETATM   25  C   UNL     1      27.599  44.608  53.595  1.00  0.00     0.010 A 
ENDBRANCH   8  19
BRANCH   5  26
HETATM   26  N   UNL     1      23.991  43.222  47.379  1.00  0.00    -0.229 N 
HETATM   27  H   UNL     1      23.778  43.667  46.498  1.00  0.00     0.174 HD
HETATM   28  H   UNL     1      23.398  42.440  47.619  1.00  0.00     0.174 HD
ENDBRANCH   5  26
TORSDOF 4
ENDMDL
MODEL 4
REMARK VINA RESULT:      -8.1      4.772      8.456
REMARK  4 active torsions:
REMARK  status: ('A' for Active; 'I' for Inactive)
REMARK    1  A    between atoms: O_2  and  C_3 
REMARK    2  A    between atoms: C_4  and  C_5 
REMARK    3  A    between atoms: C_9  and  N_10 
REMARK    4  A    between atoms: C_13  and  C_14 
ROOT
HETATM    1  C   UNL     1      23.915  47.949  49.800  1.00  0.00     0.167 C 
HETATM    2  N   UNL     1      25.019  48.675  49.166  1.00  0.00    -0.074 N 
HETATM    3  C   UNL     1      24.857  49.776  48.361  1.00  0.00     0.736 A 
HETATM    4  N   UNL     1      26.032  50.259  48.054  1.00  0.00     0.131 NA
HETATM    5  C   UNL     1      26.884  49.467  48.762  1.00  0.00     0.753 A 
HETATM    6  N   UNL     1      26.317  48.501  49.481  1.00  0.00     0.037 NA
HETATM    7  N   UNL     1      23.630  50.229  48.030  1.00  0.00    -0.214 N 
HETATM    8  C   UNL     1      22.536  49.878  48.928  1.00  0.00     0.135 C 
HETATM    9  C   UNL     1      22.565  48.363  49.172  1.00  0.00     0.063 C 
HETATM   10  H   UNL     1      23.600  51.178  47.663  1.00  0.00     0.178 HD
ENDROOT
BRANCH   1  11
HETATM   11  C   UNL     1      24.055  46.428  49.773  1.00  0.00     0.001 A 
HETATM   12  C   UNL     1      24.621  45.764  50.881  1.00  0.00     0.076 A 
HETATM   13  C   UNL     1      24.763  44.372  50.876  1.00  0.00     0.037 A 
HETATM   14  C   UNL     1      24.307  43.622  49.793  1.00  0.00     0.003 A 
HETATM   15  C   UNL     1      23.707  44.259  48.712  1.00  0.00     0.001 A 
HETATM   16  C   UNL     1      23.577  45.649  48.703  1.00  0.00     0.012 A 
BRANCH  12  17
HETATM   17  O   UNL     1      25.040  46.554  51.923  1.00  0.00    -0.355 OA
HETATM   18  C   UNL     1      26.107  46.016  52.700  1.00  0.00     0.210 C 
ENDBRANCH  12  17
ENDBRANCH   1  11
BRANCH   8  19
HETATM   19  C   UNL     1      21.218  50.346  48.340  1.00  0.00    -0.035 A 
HETATM   20  C   UNL     1      20.535  49.591  47.372  1.00  0.00     0.010 A 
HETATM   21  C   UNL     1      19.313  50.028  46.857  1.00  0.00     0.019 A 
HETATM   22  C   UNL     1      18.767  51.231  47.297  1.00  0.00     0.011 A 
HETATM   23 BR   UNL     1      17.112  51.824  46.603  1.00  0.00    -0.051 Br
HETATM   24  C   UNL     1      19.435  52.003  48.245  1.00  0.00     0.019 A 
HETATM   25  C   UNL     1      20.656  51.562  48.763  1.00  0.00     0.010 A 
ENDBRANCH   8  19
BRANCH   5  26
HETATM   26  N   UNL     1      28.190  49.705  48.679  1.00  0.00    -0.229 N 
HETATM   27  H   UNL     1      28.463  50.646  48.437  1.00  0.00     0.174 HD
HETATM   28  H   UNL     1      28.759  48.974  48.273  1.00  0.00     0.174 HD
ENDBRANCH   5  26
TORSDOF 4
ENDMDL
MODEL 5
REMARK VINA RESULT:      -8.0      1.665      2.183
REMARK  4 active torsions:
REMARK  status: ('A' for Active; 'I' for Inactive)
REMARK    1  A    between atoms: O_2  and  C_3 
REMARK    2  A    between atoms: C_4  and  C_5 
REMARK    3  A    between atoms: C_9  and  N_10 
REMARK    4  A    between atoms: C_13  and  C_14 
ROOT
HETATM    1  C   UNL     1      25.896  44.761  51.107  1.00  0.00     0.167 C 
HETATM    2  N   UNL     1      26.320  43.686  50.207  1.00  0.00    -0.074 N 
HETATM    3  C   UNL     1      27.334  42.802  50.486  1.00  0.00     0.736 A 
HETATM    4  N   UNL     1      27.384  41.897  49.544  1.00  0.00     0.131 NA
HETATM    5  C   UNL     1      26.328  42.223  48.750  1.00  0.00     0.753 A 
HETATM    6  N   UNL     1      25.626  43.290  49.124  1.00  0.00     0.037 NA
HETATM    7  N   UNL     1      28.077  42.916  51.607  1.00  0.00    -0.214 N 
HETATM    8  C   UNL     1      27.473  43.631  52.726  1.00  0.00     0.135 C 
HETATM    9  C   UNL     1      26.945  44.982  52.221  1.00  0.00     0.063 C 
HETATM   10  H   UNL     1      28.612  42.089  51.861  1.00  0.00     0.178 HD
ENDROOT
BRANCH   1  11
HETATM   11  C   UNL     1      25.590  46.088  50.414  1.00  0.00     0.001 A 
HETATM   12  C   UNL     1      24.281  46.347  49.959  1.00  0.00     0.076 A 
HETATM   13  C   UNL     1      23.979  47.554  49.317  1.00  0.00     0.037 A 
HETATM   14  C   UNL     1      24.960  48.531  49.159  1.00  0.00     0.003 A 
HETATM   15  C   UNL     1      26.245  48.308  49.642  1.00  0.00     0.001 A 
HETATM   16  C   UNL     1      26.558  47.100  50.268  1.00  0.00     0.012 A 
BRANCH  12  17
HETATM   17  O   UNL     1      23.354  45.353  50.154  1.00  0.00    -0.355 OA
HETATM   18  C   UNL     1      22.568  45.024  49.010  1.00  0.00     0.210 C 
ENDBRANCH  12  17
ENDBRANCH   1  11
BRANCH   8  19
HETATM   19  C   UNL     1      28.486  43.785  53.844  1.00  0.00    -0.035 A 
HETATM   20  C   UNL     1      28.483  44.908  54.689  1.00  0.00     0.010 A 
HETATM   21  C   UNL     1      29.411  45.024  55.726  1.00  0.00     0.019 A 
HETATM   22  C   UNL     1      30.359  44.022  55.921  1.00  0.00     0.011 A 
HETATM   23 BR   UNL     1      31.615  44.176  57.325  1.00  0.00    -0.051 Br
HETATM   24  C   UNL     1      30.389  42.908  55.085  1.00  0.00     0.019 A 
HETATM   25  C   UNL     1      29.457  42.792  54.051  1.00  0.00     0.010 A 
ENDBRANCH   8  19
BRANCH   5  26
HETATM   26  N   UNL     1      26.084  41.473  47.678  1.00  0.00    -0.229 N 
HETATM   27  H   UNL     1      26.227  41.910  46.779  1.00  0.00     0.174 HD
HETATM   28  H   UNL     1      25.289  40.851  47.732  1.00  0.00     0.174 HD
ENDBRANCH   5  26
TORSDOF 4
ENDMDL
MODEL 6
REMARK VINA RESULT:      -7.9      3.321      6.597
REMARK  4 active torsions:
REMARK  status: ('A' for Active; 'I' for Inactive)
REMARK    1  A    between atoms: O_2  and  C_3 
REMARK    2  A    between atoms: C_4  and  C_5 
REMARK    3  A    between atoms: C_9  and  N_10 
REMARK    4  A    between atoms: C_13  and  C_14 
ROOT
HETATM    1  C   UNL     1      27.874  43.635  51.225  1.00  0.00     0.167 C 
HETATM    2  N   UNL     1      26.973  42.501  51.002  1.00  0.00    -0.074 N 
HETATM    3  C   UNL     1      25.733  42.604  50.420  1.00  0.00     0.736 A 
HETATM    4  N   UNL     1      25.236  41.406  50.255  1.00  0.00     0.131 NA
HETATM    5  C   UNL     1      26.244  40.595  50.680  1.00  0.00     0.753 A 
HETATM    6  N   UNL     1      27.339  41.210  51.120  1.00  0.00     0.037 NA
HETATM    7  N   UNL     1      25.218  43.802  50.072  1.00  0.00    -0.214 N 
HETATM    8  C   UNL     1      26.168  44.884  49.842  1.00  0.00     0.135 C 
HETATM    9  C   UNL     1      27.118  44.971  51.045  1.00  0.00     0.063 C 
HETATM   10  H   UNL     1      24.436  43.768  49.422  1.00  0.00     0.178 HD
ENDROOT
BRANCH   1  11
HETATM   11  C   UNL     1      28.591  43.622  52.574  1.00  0.00     0.001 A 
HETATM   12  C   UNL     1      27.931  44.126  53.715  1.00  0.00     0.076 A 
HETATM   13  C   UNL     1      28.570  44.129  54.960  1.00  0.00     0.037 A 
HETATM   14  C   UNL     1      29.850  43.594  55.095  1.00  0.00     0.003 A 
HETATM   15  C   UNL     1      30.496  43.054  53.988  1.00  0.00     0.001 A 
HETATM   16  C   UNL     1      29.871  43.063  52.739  1.00  0.00     0.012 A 
BRANCH  12  17
HETATM   17  O   UNL     1      26.667  44.627  53.522  1.00  0.00    -0.355 OA
HETATM   18  C   UNL     1      25.663  44.086  54.378  1.00  0.00     0.210 C 
ENDBRANCH  12  17
ENDBRANCH   1  11
BRANCH   8  19
HETATM   19  C   UNL     1      25.421  46.181  49.599  1.00  0.00    -0.035 A 
HETATM   20  C   UNL     1      24.029  46.204  49.408  1.00  0.00     0.010 A 
HETATM   21  C   UNL     1      23.355  47.410  49.204  1.00  0.00     0.019 A 
HETATM   22  C   UNL     1      24.069  48.606  49.180  1.00  0.00     0.011 A 
HETATM   23 BR   UNL     1      23.159  50.240  48.907  1.00  0.00    -0.051 Br
HETATM   24  C   UNL     1      25.452  48.605  49.352  1.00  0.00     0.019 A 
HETATM   25  C   UNL     1      26.123  47.397  49.560  1.00  0.00     0.010 A 
ENDBRANCH   8  19
BRANCH   5  26
HETATM   26  N   UNL     1      26.062  39.279  50.633  1.00  0.00    -0.229 N 
HETATM   27  H   UNL     1      25.564  38.863  51.408  1.00  0.00     0.174 HD
HETATM   28  H   UNL     1      26.829  38.728  50.271  1.00  0.00     0.174 HD
ENDBRANCH   5  26
TORSDOF 4
ENDMDL
MODEL 7
REMARK VINA RESULT:      -7.7      5.176      8.647
REMARK  4 active torsions:
REMARK  status: ('A' for Active; 'I' for Inactive)
REMARK    1  A    between atoms: O_2  and  C_3 
REMARK    2  A    between atoms: C_4  and  C_5 
REMARK    3  A    between atoms: C_9  and  N_10 
REMARK    4  A    between atoms: C_13  and  C_14 
ROOT
HETATM    1  C   UNL     1      22.920  48.072  49.299  1.00  0.00     0.167 C 
HETATM    2  N   UNL     1      23.941  48.977  48.764  1.00  0.00    -0.074 N 
HETATM    3  C   UNL     1      23.714  50.294  48.447  1.00  0.00     0.736 A 
HETATM    4  N   UNL     1      24.846  50.855  48.112  1.00  0.00     0.131 NA
HETATM    5  C   UNL     1      25.753  49.860  48.317  1.00  0.00     0.753 A 
HETATM    6  N   UNL     1      25.259  48.700  48.742  1.00  0.00     0.037 NA
HETATM    7  N   UNL     1      22.482  50.836  48.540  1.00  0.00    -0.214 N 
HETATM    8  C   UNL     1      21.544  50.186  49.447  1.00  0.00     0.135 C 
HETATM    9  C   UNL     1      21.511  48.684  49.129  1.00  0.00     0.063 C 
HETATM   10  H   UNL     1      22.453  51.853  48.545  1.00  0.00     0.178 HD
ENDROOT
BRANCH   1  11
HETATM   11  C   UNL     1      22.947  46.663  48.710  1.00  0.00     0.001 A 
HETATM   12  C   UNL     1      23.648  45.642  49.386  1.00  0.00     0.076 A 
HETATM   13  C   UNL     1      23.690  44.345  48.862  1.00  0.00     0.037 A 
HETATM   14  C   UNL     1      23.003  44.037  47.689  1.00  0.00     0.003 A 
HETATM   15  C   UNL     1      22.271  45.022  47.035  1.00  0.00     0.001 A 
HETATM   16  C   UNL     1      22.239  46.323  47.542  1.00  0.00     0.012 A 
BRANCH  12  17
HETATM   17  O   UNL     1      24.294  46.002  50.542  1.00  0.00    -0.355 OA
HETATM   18  C   UNL     1      24.552  44.933  51.450  1.00  0.00     0.210 C 
ENDBRANCH  12  17
ENDBRANCH   1  11
BRANCH   8  19
HETATM   19  C   UNL     1      20.178  50.834  49.327  1.00  0.00    -0.035 A 
HETATM   20  C   UNL     1      19.963  51.950  48.500  1.00  0.00     0.010 A 
HETATM   21  C   UNL     1      18.694  52.522  48.387  1.00  0.00     0.019 A 
HETATM   22  C   UNL     1      17.629  51.989  49.109  1.00  0.00     0.011 A 
HETATM   23 BR   UNL     1      15.910  52.760  48.956  1.00  0.00    -0.051 Br
HETATM   24  C   UNL     1      17.823  50.893  49.947  1.00  0.00     0.019 A 
HETATM   25  C   UNL     1      19.093  50.320  50.055  1.00  0.00     0.010 A 
ENDBRANCH   8  19
BRANCH   5  26
HETATM   26  N   UNL     1      27.037  50.111  48.075  1.00  0.00    -0.229 N 
HETATM   27  H   UNL     1      27.237  50.875  47.445  1.00  0.00     0.174 HD
HETATM   28  H   UNL     1      27.646  49.310  47.985  1.00  0.00     0.174 HD
ENDBRANCH   5  26
TORSDOF 4
ENDMDL
MODEL 8
REMARK VINA RESULT:      -7.4      2.592      4.962
REMARK  4 active torsions:
REMARK  status: ('A' for Active; 'I' for Inactive)
REMARK    1  A    between atoms: O_2  and  C_3 
REMARK    2  A    between atoms: C_4  and  C_5 
REMARK    3  A    between atoms: C_9  and  N_10 
REMARK    4  A    between atoms: C_13  and  C_14 
ROOT
HETATM    1  C   UNL     1      26.156  44.183  49.913  1.00  0.00     0.167 C 
HETATM    2  N   UNL     1      25.395  45.380  50.280  1.00  0.00    -0.074 N 
HETATM    3  C   UNL     1      25.625  46.124  51.412  1.00  0.00     0.736 A 
HETATM    4  N   UNL     1      24.864  47.187  51.388  1.00  0.00     0.131 NA
HETATM    5  C   UNL     1      24.242  47.091  50.180  1.00  0.00     0.753 A 
HETATM    6  N   UNL     1      24.550  46.022  49.450  1.00  0.00     0.037 NA
HETATM    7  N   UNL     1      26.545  45.748  52.324  1.00  0.00    -0.214 N 
HETATM    8  C   UNL     1      27.616  44.875  51.857  1.00  0.00     0.135 C 
HETATM    9  C   UNL     1      26.992  43.684  51.114  1.00  0.00     0.063 C 
HETATM   10  H   UNL     1      26.833  46.473  52.977  1.00  0.00     0.178 HD
ENDROOT
BRANCH   1  11
HETATM   11  C   UNL     1      25.313  43.037  49.358  1.00  0.00     0.001 A 
HETATM   12  C   UNL     1      25.940  42.003  48.632  1.00  0.00     0.076 A 
HETATM   13  C   UNL     1      25.186  40.945  48.110  1.00  0.00     0.037 A 
HETATM   14  C   UNL     1      23.812  40.880  48.338  1.00  0.00     0.003 A 
HETATM   15  C   UNL     1      23.187  41.870  49.089  1.00  0.00     0.001 A 
HETATM   16  C   UNL     1      23.930  42.937  49.599  1.00  0.00     0.012 A 
BRANCH  12  17
HETATM   17  O   UNL     1      27.296  42.114  48.451  1.00  0.00    -0.355 OA
HETATM   18  C   UNL     1      27.963  40.903  48.103  1.00  0.00     0.210 C 
ENDBRANCH  12  17
ENDBRANCH   1  11
BRANCH   8  19
HETATM   19  C   UNL     1      28.475  44.442  53.029  1.00  0.00    -0.035 A 
HETATM   20  C   UNL     1      28.410  45.096  54.270  1.00  0.00     0.010 A 
HETATM   21  C   UNL     1      29.195  44.671  55.344  1.00  0.00     0.019 A 
HETATM   22  C   UNL     1      30.061  43.592  55.183  1.00  0.00     0.011 A 
HETATM   23 BR   UNL     1      31.122  43.013  56.636  1.00  0.00    -0.051 Br
HETATM   24  C   UNL     1      30.152  42.938  53.956  1.00  0.00     0.019 A 
HETATM   25  C   UNL     1      29.363  43.363  52.884  1.00  0.00     0.010 A 
ENDBRANCH   8  19
BRANCH   5  26
HETATM   26  N   UNL     1      23.385  48.046  49.830  1.00  0.00    -0.229 N 
HETATM   27  H   UNL     1      22.406  47.797  49.828  1.00  0.00     0.174 HD
HETATM   28  H   UNL     1      23.673  48.660  49.080  1.00  0.00     0.174 HD
ENDBRANCH   5  26
TORSDOF 4
ENDMDL
MODEL 9
REMARK VINA RESULT:      -7.3      4.317      7.628
REMARK  4 active torsions:
REMARK  status: ('A' for Active; 'I' for Inactive)
REMARK    1  A    between atoms: O_2  and  C_3 
REMARK    2  A    between atoms: C_4  and  C_5 
REMARK    3  A    between atoms: C_9  and  N_10 
REMARK    4  A    between atoms: C_13  and  C_14 
ROOT
HETATM    1  C   UNL     1      26.981  43.146  51.975  1.00  0.00     0.167 C 
HETATM    2  N   UNL     1      26.796  44.275  51.059  1.00  0.00    -0.074 N 
HETATM    3  C   UNL     1      26.454  44.146  49.735  1.00  0.00     0.736 A 
HETATM    4  N   UNL     1      26.248  45.333  49.228  1.00  0.00     0.131 NA
HETATM    5  C   UNL     1      26.400  46.155  50.302  1.00  0.00     0.753 A 
HETATM    6  N   UNL     1      26.707  45.560  51.452  1.00  0.00     0.037 NA
HETATM    7  N   UNL     1      26.335  42.932  49.156  1.00  0.00    -0.214 N 
HETATM    8  C   UNL     1      26.062  41.806  50.040  1.00  0.00     0.135 C 
HETATM    9  C   UNL     1      27.083  41.821  51.187  1.00  0.00     0.063 C 
HETATM   10  H   UNL     1      25.831  42.920  48.272  1.00  0.00     0.178 HD
ENDROOT
BRANCH   1  11
HETATM   11  C   UNL     1      28.175  43.281  52.919  1.00  0.00     0.001 A 
HETATM   12  C   UNL     1      27.996  43.882  54.182  1.00  0.00     0.076 A 
HETATM   13  C   UNL     1      29.077  44.020  55.061  1.00  0.00     0.037 A 
HETATM   14  C   UNL     1      30.333  43.527  54.714  1.00  0.00     0.003 A 
HETATM   15  C   UNL     1      30.515  42.894  53.489  1.00  0.00     0.001 A 
HETATM   16  C   UNL     1      29.446  42.767  52.601  1.00  0.00     0.012 A 
BRANCH  12  17
HETATM   17  O   UNL     1      26.733  44.336  54.473  1.00  0.00    -0.355 OA
HETATM   18  C   UNL     1      26.649  45.722  54.799  1.00  0.00     0.210 C 
ENDBRANCH  12  17
ENDBRANCH   1  11
BRANCH   8  19
HETATM   19  C   UNL     1      26.096  40.512  49.251  1.00  0.00    -0.035 A 
HETATM   20  C   UNL     1      25.512  40.412  47.976  1.00  0.00     0.010 A 
HETATM   21  C   UNL     1      25.570  39.217  47.256  1.00  0.00     0.019 A 
HETATM   22  C   UNL     1      26.204  38.107  47.807  1.00  0.00     0.011 A 
HETATM   23 BR   UNL     1      26.287  36.490  46.832  1.00  0.00    -0.051 Br
HETATM   24  C   UNL     1      26.777  38.179  49.075  1.00  0.00     0.019 A 
HETATM   25  C   UNL     1      26.721  39.377  49.793  1.00  0.00     0.010 A 
ENDBRANCH   8  19
BRANCH   5  26
HETATM   26  N   UNL     1      26.242  47.464  50.127  1.00  0.00    -0.229 N 
HETATM   27  H   UNL     1      26.946  47.935  49.577  1.00  0.00     0.174 HD
HETATM   28  H   UNL     1      25.894  47.989  50.918  1.00  0.00     0.174 HD
ENDBRANCH   5  26
TORSDOF 4
ENDMDL
MODEL 10
REMARK VINA RESULT:      -7.3     11.749     13.368
REMARK  4 active torsions:
REMARK  status: ('A' for Active; 'I' for Inactive)
REMARK    1  A    between atoms: O_2  and  C_3 
REMARK    2  A    between atoms: C_4  and  C_5 
REMARK    3  A    between atoms: C_9  and  N_10 
REMARK    4  A    between atoms: C_13  and  C_14 
ROOT
HETATM    1  C   UNL     1      30.574  50.913  42.124  1.00  0.00     0.167 C 
HETATM    2  N   UNL     1      30.082  51.820  41.084  1.00  0.00    -0.074 N 
HETATM    3  C   UNL     1      29.334  51.420  40.003  1.00  0.00     0.736 A 
HETATM    4  N   UNL     1      28.953  52.475  39.332  1.00  0.00     0.131 NA
HETATM    5  C   UNL     1      29.426  53.506  40.086  1.00  0.00     0.753 A 
HETATM    6  N   UNL     1      30.098  53.163  41.182  1.00  0.00     0.037 NA
HETATM    7  N   UNL     1      29.060  50.118  39.782  1.00  0.00    -0.214 N 
HETATM    8  C   UNL     1      29.109  49.230  40.938  1.00  0.00     0.135 C 
HETATM    9  C   UNL     1      30.444  49.443  41.666  1.00  0.00     0.063 C 
HETATM   10  H   UNL     1      28.299  49.937  39.131  1.00  0.00     0.178 HD
ENDROOT
BRANCH   1  11
HETATM   11  C   UNL     1      32.005  51.188  42.583  1.00  0.00     0.001 A 
HETATM   12  C   UNL     1      33.069  51.031  41.669  1.00  0.00     0.076 A 
HETATM   13  C   UNL     1      34.388  51.273  42.069  1.00  0.00     0.037 A 
HETATM   14  C   UNL     1      34.661  51.714  43.363  1.00  0.00     0.003 A 
HETATM   15  C   UNL     1      33.619  51.915  44.262  1.00  0.00     0.001 A 
HETATM   16  C   UNL     1      32.302  51.660  43.875  1.00  0.00     0.012 A 
BRANCH  12  17
HETATM   17  O   UNL     1      32.736  50.607  40.407  1.00  0.00    -0.355 OA
HETATM   18  C   UNL     1      33.145  51.474  39.350  1.00  0.00     0.210 C 
ENDBRANCH  12  17
ENDBRANCH   1  11
BRANCH   8  19
HETATM   19  C   UNL     1      28.913  47.794  40.493  1.00  0.00    -0.035 A 
HETATM   20  C   UNL     1      29.849  47.144  39.672  1.00  0.00     0.010 A 
HETATM   21  C   UNL     1      29.661  45.815  39.288  1.00  0.00     0.019 A 
HETATM   22  C   UNL     1      28.529  45.125  39.713  1.00  0.00     0.011 A 
HETATM   23 BR   UNL     1      28.274  43.325  39.197  1.00  0.00    -0.051 Br
HETATM   24  C   UNL     1      27.580  45.755  40.516  1.00  0.00     0.019 A 
HETATM   25  C   UNL     1      27.772  47.084  40.902  1.00  0.00     0.010 A 
ENDBRANCH   8  19
BRANCH   5  26
HETATM   26  N   UNL     1      29.194  54.750  39.678  1.00  0.00    -0.229 N 
HETATM   27  H   UNL     1      30.003  55.337  39.536  1.00  0.00     0.174 HD
HETATM   28  H   UNL     1      28.391  55.216  40.079  1.00  0.00     0.174 HD
ENDBRANCH   5  26
TORSDOF 4
ENDMDL
