MODEL 1
REMARK VINA RESULT:     -10.0      0.000      0.000
REMARK  5 active torsions:
REMARK  status: ('A' for Active; 'I' for Inactive)
REMARK    1  A    between atoms: C_3  and  N_4 
REMARK    2  A    between atoms: N_5  and  C_6 
REMARK    3  A    between atoms: C_6  and  C_7 
REMARK    4  A    between atoms: C_7  and  C_8 
REMARK    5  A    between atoms: C_17  and  C_18 
ROOT
HETATM    1  C   UNL     1      26.520  44.574  49.736  1.00  0.00     0.175 C 
HETATM    2  N   UNL     1      26.389  45.272  51.007  1.00  0.00    -0.186 N 
HETATM    3  C   UNL     1      26.633  44.715  52.190  1.00  0.00     0.680 A 
HETATM    4  N   UNL     1      26.633  45.659  53.124  1.00  0.00    -0.184 N 
HETATM    5  C   UNL     1      26.349  46.869  52.519  1.00  0.00     0.140 A 
HETATM    6  C   UNL     1      26.134  46.650  51.173  1.00  0.00     0.077 A 
ENDROOT
BRANCH   4   7
HETATM    7  C   UNL     1      26.798  45.478  54.580  1.00  0.00     0.231 C 
BRANCH   7   8
HETATM    8  C   UNL     1      28.074  46.122  55.109  1.00  0.00     0.178 C 
HETATM    9  O   UNL     1      28.199  47.349  55.153  1.00  0.00    -0.290 OA
BRANCH   8  10
HETATM   10  C   UNL     1      29.175  45.254  55.603  1.00  0.00     0.012 A 
HETATM   11  C   UNL     1      29.579  44.103  54.915  1.00  0.00     0.018 A 
HETATM   12  C   UNL     1      30.613  43.317  55.430  1.00  0.00     0.043 A 
HETATM   13  C   UNL     1      31.238  43.686  56.617  1.00  0.00     0.116 A 
HETATM   14  F   UNL     1      32.224  42.924  57.106  1.00  0.00    -0.206 F 
HETATM   15  C   UNL     1      30.857  44.834  57.298  1.00  0.00     0.043 A 
HETATM   16  C   UNL     1      29.826  45.627  56.789  1.00  0.00     0.018 A 
ENDBRANCH   8  10
ENDBRANCH   7   8
ENDBRANCH   4   7
BRANCH   3  17
HETATM   17  N   UNL     1      26.857  43.421  52.392  1.00  0.00    -0.234 N 
HETATM   18  H   UNL     1      27.746  42.987  52.211  1.00  0.00     0.174 HD
HETATM   19  H   UNL     1      26.178  42.879  52.929  1.00  0.00     0.174 HD
ENDBRANCH   3  17
BRANCH   6  20
HETATM   20  C   UNL     1      25.733  47.707  50.177  1.00  0.00    -0.004 A 
HETATM   21  C   UNL     1      24.372  47.902  49.889  1.00  0.00     0.053 A 
HETATM   22  C   UNL     1      24.033  48.875  48.972  1.00  0.00     0.106 A 
HETATM   23  C   UNL     1      24.980  49.641  48.340  1.00  0.00     0.105 A 
HETATM   24  O   UNL     1      22.768  49.195  48.590  1.00  0.00    -0.323 OA
HETATM   25  O   UNL     1      24.433  50.537  47.480  1.00  0.00    -0.323 OA
HETATM   26  C   UNL     1      26.322  49.467  48.584  1.00  0.00     0.040 A 
HETATM   27  C   UNL     1      23.027  50.252  47.640  1.00  0.00     0.352 A 
HETATM   28  C   UNL     1      26.701  48.484  49.509  1.00  0.00     0.017 A 
ENDBRANCH   6  20
TORSDOF 5
ENDMDL
MODEL 2
REMARK VINA RESULT:      -9.7      2.078      2.985
REMARK  5 active torsions:
REMARK  status: ('A' for Active; 'I' for Inactive)
REMARK    1  A    between atoms: C_3  and  N_4 
REMARK    2  A    between atoms: N_5  and  C_6 
REMARK    3  A    between atoms: C_6  and  C_7 
REMARK    4  A    between atoms: C_7  and  C_8 
REMARK    5  A    between atoms: C_17  and  C_18 
ROOT
HETATM    1  C   UNL     1      25.867  42.568  49.632  1.00  0.00     0.175 C 
HETATM    2  N   UNL     1      26.476  42.975  50.891  1.00  0.00    -0.186 N 
HETATM    3  C   UNL     1      27.033  42.130  51.755  1.00  0.00     0.680 A 
HETATM    4  N   UNL     1      27.681  42.821  52.685  1.00  0.00    -0.184 N 
HETATM    5  C   UNL     1      27.510  44.168  52.422  1.00  0.00     0.140 A 
HETATM    6  C   UNL     1      26.699  44.302  51.313  1.00  0.00     0.077 A 
ENDROOT
BRANCH   4   7
HETATM    7  C   UNL     1      28.386  42.290  53.868  1.00  0.00     0.231 C 
BRANCH   7   8
HETATM    8  C   UNL     1      29.780  42.881  54.033  1.00  0.00     0.178 C 
HETATM    9  O   UNL     1      30.649  42.718  53.172  1.00  0.00    -0.290 OA
BRANCH   8  10
HETATM   10  C   UNL     1      30.090  43.687  55.243  1.00  0.00     0.012 A 
HETATM   11  C   UNL     1      31.030  43.268  56.194  1.00  0.00     0.018 A 
HETATM   12  C   UNL     1      31.274  44.060  57.320  1.00  0.00     0.043 A 
HETATM   13  C   UNL     1      30.589  45.259  57.484  1.00  0.00     0.116 A 
HETATM   14  F   UNL     1      30.825  46.008  58.568  1.00  0.00    -0.206 F 
HETATM   15  C   UNL     1      29.668  45.692  56.539  1.00  0.00     0.043 A 
HETATM   16  C   UNL     1      29.420  44.908  55.411  1.00  0.00     0.018 A 
ENDBRANCH   8  10
ENDBRANCH   7   8
ENDBRANCH   4   7
BRANCH   3  17
HETATM   17  N   UNL     1      26.960  40.805  51.681  1.00  0.00    -0.234 N 
HETATM   18  H   UNL     1      26.425  40.327  50.977  1.00  0.00     0.174 HD
HETATM   19  H   UNL     1      27.614  40.242  52.227  1.00  0.00     0.174 HD
ENDBRANCH   3  17
BRANCH   6  20
HETATM   20  C   UNL     1      26.222  45.613  50.743  1.00  0.00    -0.004 A 
HETATM   21  C   UNL     1      27.099  46.385  49.963  1.00  0.00     0.053 A 
HETATM   22  C   UNL     1      26.637  47.582  49.455  1.00  0.00     0.106 A 
HETATM   23  C   UNL     1      25.364  48.031  49.696  1.00  0.00     0.105 A 
HETATM   24  O   UNL     1      27.352  48.439  48.679  1.00  0.00    -0.323 OA
HETATM   25  O   UNL     1      25.114  49.227  49.104  1.00  0.00    -0.323 OA
HETATM   26  C   UNL     1      24.482  47.310  50.468  1.00  0.00     0.040 A 
HETATM   27  C   UNL     1      26.379  49.485  48.458  1.00  0.00     0.352 A 
HETATM   28  C   UNL     1      24.921  46.090  51.002  1.00  0.00     0.017 A 
ENDBRANCH   6  20
TORSDOF 5
ENDMDL
MODEL 3
REMARK VINA RESULT:      -9.6      1.152      1.512
REMARK  5 active torsions:
REMARK  status: ('A' for Active; 'I' for Inactive)
REMARK    1  A    between atoms: C_3  and  N_4 
REMARK    2  A    between atoms: N_5  and  C_6 
REMARK    3  A    between atoms: C_6  and  C_7 
REMARK    4  A    between atoms: C_7  and  C_8 
REMARK    5  A    between atoms: C_17  and  C_18 
ROOT
HETATM    1  C   UNL     1      25.254  44.242  49.460  1.00  0.00     0.175 C 
HETATM    2  N   UNL     1      25.696  44.886  50.689  1.00  0.00    -0.186 N 
HETATM    3  C   UNL     1      26.104  44.224  51.769  1.00  0.00     0.680 A 
HETATM    4  N   UNL     1      26.638  45.083  52.629  1.00  0.00    -0.184 N 
HETATM    5  C   UNL     1      26.544  46.353  52.091  1.00  0.00     0.140 A 
HETATM    6  C   UNL     1      25.897  46.270  50.874  1.00  0.00     0.077 A 
ENDROOT
BRANCH   4   7
HETATM    7  C   UNL     1      27.158  44.791  53.980  1.00  0.00     0.231 C 
BRANCH   7   8
HETATM    8  C   UNL     1      28.601  44.303  53.959  1.00  0.00     0.178 C 
HETATM    9  O   UNL     1      29.094  43.810  52.941  1.00  0.00    -0.290 OA
BRANCH   8  10
HETATM   10  C   UNL     1      29.435  44.446  55.182  1.00  0.00     0.012 A 
HETATM   11  C   UNL     1      29.244  45.494  56.092  1.00  0.00     0.018 A 
HETATM   12  C   UNL     1      30.064  45.587  57.220  1.00  0.00     0.043 A 
HETATM   13  C   UNL     1      31.057  44.637  57.435  1.00  0.00     0.116 A 
HETATM   14  F   UNL     1      31.841  44.738  58.515  1.00  0.00    -0.206 F 
HETATM   15  C   UNL     1      31.244  43.585  56.548  1.00  0.00     0.043 A 
HETATM   16  C   UNL     1      30.427  43.483  55.419  1.00  0.00     0.018 A 
ENDBRANCH   8  10
ENDBRANCH   7   8
ENDBRANCH   4   7
BRANCH   3  17
HETATM   17  N   UNL     1      26.004  42.911  51.942  1.00  0.00    -0.234 N 
HETATM   18  H   UNL     1      25.340  42.493  52.572  1.00  0.00     0.174 HD
HETATM   19  H   UNL     1      26.472  42.287  51.283  1.00  0.00     0.174 HD
ENDBRANCH   3  17
BRANCH   6  20
HETATM   20  C   UNL     1      25.541  47.445  50.001  1.00  0.00    -0.004 A 
HETATM   21  C   UNL     1      24.192  47.688  49.690  1.00  0.00     0.053 A 
HETATM   22  C   UNL     1      23.893  48.769  48.888  1.00  0.00     0.106 A 
HETATM   23  C   UNL     1      24.868  49.596  48.388  1.00  0.00     0.105 A 
HETATM   24  O   UNL     1      22.645  49.146  48.502  1.00  0.00    -0.323 OA
HETATM   25  O   UNL     1      24.359  50.596  47.625  1.00  0.00    -0.323 OA
HETATM   26  C   UNL     1      26.200  49.380  48.658  1.00  0.00     0.040 A 
HETATM   27  C   UNL     1      22.946  50.309  47.698  1.00  0.00     0.352 A 
HETATM   28  C   UNL     1      26.538  48.287  49.469  1.00  0.00     0.017 A 
ENDBRANCH   6  20
TORSDOF 5
ENDMDL
MODEL 4
REMARK VINA RESULT:      -9.0      2.242      3.292
REMARK  5 active torsions:
REMARK  status: ('A' for Active; 'I' for Inactive)
REMARK    1  A    between atoms: C_3  and  N_4 
REMARK    2  A    between atoms: N_5  and  C_6 
REMARK    3  A    between atoms: C_6  and  C_7 
REMARK    4  A    between atoms: C_7  and  C_8 
REMARK    5  A    between atoms: C_17  and  C_18 
ROOT
HETATM    1  C   UNL     1      26.365  41.739  49.295  1.00  0.00     0.175 C 
HETATM    2  N   UNL     1      26.600  42.256  50.636  1.00  0.00    -0.186 N 
HETATM    3  C   UNL     1      27.334  41.633  51.554  1.00  0.00     0.680 A 
HETATM    4  N   UNL     1      27.532  42.451  52.581  1.00  0.00    -0.184 N 
HETATM    5  C   UNL     1      26.873  43.639  52.323  1.00  0.00     0.140 A 
HETATM    6  C   UNL     1      26.221  43.529  51.112  1.00  0.00     0.077 A 
ENDROOT
BRANCH   4   7
HETATM    7  C   UNL     1      28.236  42.150  53.843  1.00  0.00     0.231 C 
BRANCH   7   8
HETATM    8  C   UNL     1      29.603  42.818  53.925  1.00  0.00     0.178 C 
HETATM    9  O   UNL     1      30.454  42.640  53.049  1.00  0.00    -0.290 OA
BRANCH   8  10
HETATM   10  C   UNL     1      29.906  43.717  55.069  1.00  0.00     0.012 A 
HETATM   11  C   UNL     1      30.915  43.426  55.996  1.00  0.00     0.018 A 
HETATM   12  C   UNL     1      31.150  44.301  57.060  1.00  0.00     0.043 A 
HETATM   13  C   UNL     1      30.387  45.457  57.187  1.00  0.00     0.116 A 
HETATM   14  F   UNL     1      30.615  46.288  58.212  1.00  0.00    -0.206 F 
HETATM   15  C   UNL     1      29.396  45.765  56.264  1.00  0.00     0.043 A 
HETATM   16  C   UNL     1      29.156  44.897  55.197  1.00  0.00     0.018 A 
ENDBRANCH   8  10
ENDBRANCH   7   8
ENDBRANCH   4   7
BRANCH   3  17
HETATM   17  N   UNL     1      27.805  40.395  51.445  1.00  0.00    -0.234 N 
HETATM   18  H   UNL     1      27.218  39.606  51.235  1.00  0.00     0.174 HD
HETATM   19  H   UNL     1      28.814  40.253  51.377  1.00  0.00     0.174 HD
ENDBRANCH   3  17
BRANCH   6  20
HETATM   20  C   UNL     1      25.337  44.587  50.505  1.00  0.00    -0.004 A 
HETATM   21  C   UNL     1      25.727  45.935  50.579  1.00  0.00     0.053 A 
HETATM   22  C   UNL     1      24.898  46.884  50.017  1.00  0.00     0.106 A 
HETATM   23  C   UNL     1      23.717  46.548  49.403  1.00  0.00     0.105 A 
HETATM   24  O   UNL     1      25.130  48.223  49.994  1.00  0.00    -0.323 OA
HETATM   25  O   UNL     1      23.057  47.630  48.918  1.00  0.00    -0.323 OA
HETATM   26  C   UNL     1      23.296  45.240  49.327  1.00  0.00     0.040 A 
HETATM   27  C   UNL     1      23.957  48.694  49.295  1.00  0.00     0.352 A 
HETATM   28  C   UNL     1      24.114  44.251  49.890  1.00  0.00     0.017 A 
ENDBRANCH   6  20
TORSDOF 5
ENDMDL
MODEL 5
REMARK VINA RESULT:      -9.0      3.501      8.757
REMARK  5 active torsions:
REMARK  status: ('A' for Active; 'I' for Inactive)
REMARK    1  A    between atoms: C_3  and  N_4 
REMARK    2  A    between atoms: N_5  and  C_6 
REMARK    3  A    between atoms: C_6  and  C_7 
REMARK    4  A    between atoms: C_7  and  C_8 
REMARK    5  A    between atoms: C_17  and  C_18 
ROOT
HETATM    1  C   UNL     1      28.831  41.775  52.376  1.00  0.00     0.175 C 
HETATM    2  N   UNL     1      28.183  43.079  52.359  1.00  0.00    -0.186 N 
HETATM    3  C   UNL     1      27.306  43.461  51.434  1.00  0.00     0.680 A 
HETATM    4  N   UNL     1      26.742  44.602  51.814  1.00  0.00    -0.184 N 
HETATM    5  C   UNL     1      27.303  44.983  53.019  1.00  0.00     0.140 A 
HETATM    6  C   UNL     1      28.267  44.060  53.369  1.00  0.00     0.077 A 
ENDROOT
BRANCH   4   7
HETATM    7  C   UNL     1      25.763  45.411  51.062  1.00  0.00     0.231 C 
BRANCH   7   8
HETATM    8  C   UNL     1      26.410  46.237  49.957  1.00  0.00     0.178 C 
HETATM    9  O   UNL     1      27.462  45.876  49.423  1.00  0.00    -0.290 OA
BRANCH   8  10
HETATM   10  C   UNL     1      25.748  47.487  49.501  1.00  0.00     0.012 A 
HETATM   11  C   UNL     1      24.356  47.640  49.521  1.00  0.00     0.018 A 
HETATM   12  C   UNL     1      23.784  48.833  49.070  1.00  0.00     0.043 A 
HETATM   13  C   UNL     1      24.601  49.862  48.612  1.00  0.00     0.116 A 
HETATM   14  F   UNL     1      24.045  50.999  48.177  1.00  0.00    -0.206 F 
HETATM   15  C   UNL     1      25.983  49.727  48.604  1.00  0.00     0.043 A 
HETATM   16  C   UNL     1      26.562  48.540  49.055  1.00  0.00     0.018 A 
ENDBRANCH   8  10
ENDBRANCH   7   8
ENDBRANCH   4   7
BRANCH   3  17
HETATM   17  N   UNL     1      27.031  42.791  50.320  1.00  0.00    -0.234 N 
HETATM   18  H   UNL     1      26.754  43.244  49.466  1.00  0.00     0.174 HD
HETATM   19  H   UNL     1      27.291  41.806  50.258  1.00  0.00     0.174 HD
ENDBRANCH   3  17
BRANCH   6  20
HETATM   20  C   UNL     1      29.152  44.152  54.585  1.00  0.00    -0.004 A 
HETATM   21  C   UNL     1      28.949  45.192  55.507  1.00  0.00     0.053 A 
HETATM   22  C   UNL     1      29.775  45.254  56.611  1.00  0.00     0.106 A 
HETATM   23  C   UNL     1      30.778  44.342  56.821  1.00  0.00     0.105 A 
HETATM   24  O   UNL     1      29.708  46.188  57.597  1.00  0.00    -0.323 OA
HETATM   25  O   UNL     1      31.469  44.584  57.964  1.00  0.00    -0.323 OA
HETATM   26  C   UNL     1      31.017  43.320  55.932  1.00  0.00     0.040 A 
HETATM   27  C   UNL     1      30.788  45.758  58.456  1.00  0.00     0.352 A 
HETATM   28  C   UNL     1      30.197  43.230  54.798  1.00  0.00     0.017 A 
ENDBRANCH   6  20
TORSDOF 5
ENDMDL
MODEL 6
REMARK VINA RESULT:      -8.9      4.887      9.734
REMARK  5 active torsions:
REMARK  status: ('A' for Active; 'I' for Inactive)
REMARK    1  A    between atoms: C_3  and  N_4 
REMARK    2  A    between atoms: N_5  and  C_6 
REMARK    3  A    between atoms: C_6  and  C_7 
REMARK    4  A    between atoms: C_7  and  C_8 
REMARK    5  A    between atoms: C_17  and  C_18 
ROOT
HETATM    1  C   UNL     1      27.579  48.539  49.156  1.00  0.00     0.175 C 
HETATM    2  N   UNL     1      26.144  48.480  49.398  1.00  0.00    -0.186 N 
HETATM    3  C   UNL     1      25.243  49.169  48.701  1.00  0.00     0.680 A 
HETATM    4  N   UNL     1      24.027  48.738  49.015  1.00  0.00    -0.184 N 
HETATM    5  C   UNL     1      24.152  47.750  49.975  1.00  0.00     0.140 A 
HETATM    6  C   UNL     1      25.489  47.598  50.282  1.00  0.00     0.077 A 
ENDROOT
BRANCH   4   7
HETATM    7  C   UNL     1      22.737  49.264  48.529  1.00  0.00     0.231 C 
BRANCH   7   8
HETATM    8  C   UNL     1      22.257  50.469  49.329  1.00  0.00     0.178 C 
HETATM    9  O   UNL     1      23.054  51.196  49.929  1.00  0.00    -0.290 OA
BRANCH   8  10
HETATM   10  C   UNL     1      20.805  50.786  49.365  1.00  0.00     0.012 A 
HETATM   11  C   UNL     1      19.917  50.103  50.206  1.00  0.00     0.018 A 
HETATM   12  C   UNL     1      18.559  50.433  50.192  1.00  0.00     0.043 A 
HETATM   13  C   UNL     1      18.101  51.441  49.350  1.00  0.00     0.116 A 
HETATM   14  F   UNL     1      16.798  51.748  49.339  1.00  0.00    -0.206 F 
HETATM   15  C   UNL     1      18.975  52.136  48.525  1.00  0.00     0.043 A 
HETATM   16  C   UNL     1      20.334  51.814  48.535  1.00  0.00     0.018 A 
ENDBRANCH   8  10
ENDBRANCH   7   8
ENDBRANCH   4   7
BRANCH   3  17
HETATM   17  N   UNL     1      25.527  50.122  47.821  1.00  0.00    -0.234 N 
HETATM   18  H   UNL     1      26.263  50.037  47.142  1.00  0.00     0.174 HD
HETATM   19  H   UNL     1      24.863  50.888  47.690  1.00  0.00     0.174 HD
ENDBRANCH   3  17
BRANCH   6  20
HETATM   20  C   UNL     1      26.035  46.664  51.331  1.00  0.00    -0.004 A 
HETATM   21  C   UNL     1      26.427  45.366  50.960  1.00  0.00     0.053 A 
HETATM   22  C   UNL     1      26.922  44.531  51.941  1.00  0.00     0.106 A 
HETATM   23  C   UNL     1      27.032  44.930  53.249  1.00  0.00     0.105 A 
HETATM   24  O   UNL     1      27.352  43.256  51.749  1.00  0.00    -0.323 OA
HETATM   25  O   UNL     1      27.543  43.958  54.047  1.00  0.00    -0.323 OA
HETATM   26  C   UNL     1      26.643  46.186  53.651  1.00  0.00     0.040 A 
HETATM   27  C   UNL     1      27.745  42.894  53.092  1.00  0.00     0.352 A 
HETATM   28  C   UNL     1      26.133  47.059  52.680  1.00  0.00     0.017 A 
ENDBRANCH   6  20
TORSDOF 5
ENDMDL
MODEL 7
REMARK VINA RESULT:      -8.4      2.382      4.111
REMARK  5 active torsions:
REMARK  status: ('A' for Active; 'I' for Inactive)
REMARK    1  A    between atoms: C_3  and  N_4 
REMARK    2  A    between atoms: N_5  and  C_6 
REMARK    3  A    between atoms: C_6  and  C_7 
REMARK    4  A    between atoms: C_7  and  C_8 
REMARK    5  A    between atoms: C_17  and  C_18 
ROOT
HETATM    1  C   UNL     1      25.821  50.120  47.996  1.00  0.00     0.175 C 
HETATM    2  N   UNL     1      25.363  49.027  48.842  1.00  0.00    -0.186 N 
HETATM    3  C   UNL     1      26.176  48.229  49.530  1.00  0.00     0.680 A 
HETATM    4  N   UNL     1      25.455  47.484  50.360  1.00  0.00    -0.184 N 
HETATM    5  C   UNL     1      24.121  47.797  50.177  1.00  0.00     0.140 A 
HETATM    6  C   UNL     1      24.022  48.741  49.175  1.00  0.00     0.077 A 
ENDROOT
BRANCH   4   7
HETATM    7  C   UNL     1      25.941  46.421  51.262  1.00  0.00     0.231 C 
BRANCH   7   8
HETATM    8  C   UNL     1      26.064  46.889  52.707  1.00  0.00     0.178 C 
HETATM    9  O   UNL     1      25.323  47.766  53.159  1.00  0.00    -0.290 OA
BRANCH   8  10
HETATM   10  C   UNL     1      27.080  46.260  53.591  1.00  0.00     0.012 A 
HETATM   11  C   UNL     1      27.670  46.954  54.655  1.00  0.00     0.018 A 
HETATM   12  C   UNL     1      28.628  46.317  55.449  1.00  0.00     0.043 A 
HETATM   13  C   UNL     1      28.984  44.999  55.181  1.00  0.00     0.116 A 
HETATM   14  F   UNL     1      29.906  44.399  55.943  1.00  0.00    -0.206 F 
HETATM   15  C   UNL     1      28.392  44.297  54.139  1.00  0.00     0.043 A 
HETATM   16  C   UNL     1      27.432  44.925  53.343  1.00  0.00     0.018 A 
ENDBRANCH   8  10
ENDBRANCH   7   8
ENDBRANCH   4   7
BRANCH   3  17
HETATM   17  N   UNL     1      27.499  48.201  49.411  1.00  0.00    -0.234 N 
HETATM   18  H   UNL     1      27.982  47.516  48.856  1.00  0.00     0.174 HD
HETATM   19  H   UNL     1      28.042  49.007  49.727  1.00  0.00     0.174 HD
ENDBRANCH   3  17
BRANCH   6  20
HETATM   20  C   UNL     1      22.731  49.296  48.633  1.00  0.00    -0.004 A 
HETATM   21  C   UNL     1      21.860  48.449  47.926  1.00  0.00     0.053 A 
HETATM   22  C   UNL     1      20.685  48.983  47.439  1.00  0.00     0.106 A 
HETATM   23  C   UNL     1      20.356  50.302  47.619  1.00  0.00     0.105 A 
HETATM   24  O   UNL     1      19.735  48.301  46.746  1.00  0.00    -0.323 OA
HETATM   25  O   UNL     1      19.159  50.620  47.062  1.00  0.00    -0.323 OA
HETATM   26  C   UNL     1      21.191  51.165  48.290  1.00  0.00     0.040 A 
HETATM   27  C   UNL     1      18.766  49.346  46.507  1.00  0.00     0.352 A 
HETATM   28  C   UNL     1      22.394  50.655  48.797  1.00  0.00     0.017 A 
ENDBRANCH   6  20
TORSDOF 5
ENDMDL
MODEL 8
REMARK VINA RESULT:      -8.2      5.082      9.776
REMARK  5 active torsions:
REMARK  status: ('A' for Active; 'I' for Inactive)
REMARK    1  A    between atoms: C_3  and  N_4 
REMARK    2  A    between atoms: N_5  and  C_6 
REMARK    3  A    between atoms: C_6  and  C_7 
REMARK    4  A    between atoms: C_7  and  C_8 
REMARK    5  A    between atoms: C_17  and  C_18 
ROOT
HETATM    1  C   UNL     1      22.429  45.134  48.712  1.00  0.00     0.175 C 
HETATM    2  N   UNL     1      22.977  46.479  48.821  1.00  0.00    -0.186 N 
HETATM    3  C   UNL     1      22.372  47.568  48.354  1.00  0.00     0.680 A 
HETATM    4  N   UNL     1      23.012  48.645  48.797  1.00  0.00    -0.184 N 
HETATM    5  C   UNL     1      24.089  48.228  49.557  1.00  0.00     0.140 A 
HETATM    6  C   UNL     1      24.128  46.848  49.549  1.00  0.00     0.077 A 
ENDROOT
BRANCH   4   7
HETATM    7  C   UNL     1      22.722  50.055  48.473  1.00  0.00     0.231 C 
BRANCH   7   8
HETATM    8  C   UNL     1      21.978  50.772  49.592  1.00  0.00     0.178 C 
HETATM    9  O   UNL     1      22.573  51.190  50.590  1.00  0.00    -0.290 OA
BRANCH   8  10
HETATM   10  C   UNL     1      20.513  50.992  49.467  1.00  0.00     0.012 A 
HETATM   11  C   UNL     1      19.980  51.998  48.650  1.00  0.00     0.018 A 
HETATM   12  C   UNL     1      18.595  52.168  48.578  1.00  0.00     0.043 A 
HETATM   13  C   UNL     1      17.756  51.336  49.312  1.00  0.00     0.116 A 
HETATM   14  F   UNL     1      16.430  51.509  49.241  1.00  0.00    -0.206 F 
HETATM   15  C   UNL     1      18.273  50.325  50.111  1.00  0.00     0.043 A 
HETATM   16  C   UNL     1      19.655  50.146  50.187  1.00  0.00     0.018 A 
ENDBRANCH   8  10
ENDBRANCH   7   8
ENDBRANCH   4   7
BRANCH   3  17
HETATM   17  N   UNL     1      21.291  47.569  47.583  1.00  0.00    -0.234 N 
HETATM   18  H   UNL     1      20.999  46.766  47.052  1.00  0.00     0.174 HD
HETATM   19  H   UNL     1      20.620  48.334  47.671  1.00  0.00     0.174 HD
ENDBRANCH   3  17
BRANCH   6  20
HETATM   20  C   UNL     1      25.191  46.008  50.208  1.00  0.00    -0.004 A 
HETATM   21  C   UNL     1      25.434  46.161  51.584  1.00  0.00     0.053 A 
HETATM   22  C   UNL     1      26.414  45.381  52.162  1.00  0.00     0.106 A 
HETATM   23  C   UNL     1      27.150  44.479  51.435  1.00  0.00     0.105 A 
HETATM   24  O   UNL     1      26.767  45.399  53.475  1.00  0.00    -0.323 OA
HETATM   25  O   UNL     1      28.058  43.816  52.195  1.00  0.00    -0.323 OA
HETATM   26  C   UNL     1      26.951  44.314  50.083  1.00  0.00     0.040 A 
HETATM   27  C   UNL     1      27.813  44.402  53.492  1.00  0.00     0.352 A 
HETATM   28  C   UNL     1      25.964  45.094  49.464  1.00  0.00     0.017 A 
ENDBRANCH   6  20
TORSDOF 5
ENDMDL
MODEL 9
REMARK VINA RESULT:      -8.2      3.768      8.907
REMARK  5 active torsions:
REMARK  status: ('A' for Active; 'I' for Inactive)
REMARK    1  A    between atoms: C_3  and  N_4 
REMARK    2  A    between atoms: N_5  and  C_6 
REMARK    3  A    between atoms: C_6  and  C_7 
REMARK    4  A    between atoms: C_7  and  C_8 
REMARK    5  A    between atoms: C_17  and  C_18 
ROOT
HETATM    1  C   UNL     1      27.491  42.149  50.293  1.00  0.00     0.175 C 
HETATM    2  N   UNL     1      26.931  43.432  50.694  1.00  0.00    -0.186 N 
HETATM    3  C   UNL     1      25.935  44.040  50.055  1.00  0.00     0.680 A 
HETATM    4  N   UNL     1      25.515  45.069  50.782  1.00  0.00    -0.184 N 
HETATM    5  C   UNL     1      26.295  45.141  51.922  1.00  0.00     0.140 A 
HETATM    6  C   UNL     1      27.245  44.142  51.872  1.00  0.00     0.077 A 
ENDROOT
BRANCH   4   7
HETATM    7  C   UNL     1      24.474  46.053  50.425  1.00  0.00     0.231 C 
BRANCH   7   8
HETATM    8  C   UNL     1      25.042  47.274  49.712  1.00  0.00     0.178 C 
HETATM    9  O   UNL     1      26.257  47.406  49.541  1.00  0.00    -0.290 OA
BRANCH   8  10
HETATM   10  C   UNL     1      24.112  48.311  49.194  1.00  0.00     0.012 A 
HETATM   11  C   UNL     1      22.720  48.160  49.260  1.00  0.00     0.018 A 
HETATM   12  C   UNL     1      21.891  49.162  48.747  1.00  0.00     0.043 A 
HETATM   13  C   UNL     1      22.452  50.302  48.182  1.00  0.00     0.116 A 
HETATM   14  F   UNL     1      21.651  51.254  47.688  1.00  0.00    -0.206 F 
HETATM   15  C   UNL     1      23.830  50.469  48.126  1.00  0.00     0.043 A 
HETATM   16  C   UNL     1      24.665  49.475  48.639  1.00  0.00     0.018 A 
ENDBRANCH   8  10
ENDBRANCH   7   8
ENDBRANCH   4   7
BRANCH   3  17
HETATM   17  N   UNL     1      25.434  43.660  48.885  1.00  0.00    -0.234 N 
HETATM   18  H   UNL     1      25.493  44.227  48.056  1.00  0.00     0.174 HD
HETATM   19  H   UNL     1      25.151  42.687  48.760  1.00  0.00     0.174 HD
ENDBRANCH   3  17
BRANCH   6  20
HETATM   20  C   UNL     1      28.328  43.924  52.897  1.00  0.00    -0.004 A 
HETATM   21  C   UNL     1      28.340  44.709  54.062  1.00  0.00     0.053 A 
HETATM   22  C   UNL     1      29.344  44.491  54.983  1.00  0.00     0.106 A 
HETATM   23  C   UNL     1      30.318  43.545  54.788  1.00  0.00     0.105 A 
HETATM   24  O   UNL     1      29.494  45.154  56.161  1.00  0.00    -0.323 OA
HETATM   25  O   UNL     1      31.205  43.493  55.814  1.00  0.00    -0.323 OA
HETATM   26  C   UNL     1      30.348  42.770  53.652  1.00  0.00     0.040 A 
HETATM   27  C   UNL     1      30.680  44.517  56.686  1.00  0.00     0.352 A 
HETATM   28  C   UNL     1      29.343  42.968  52.694  1.00  0.00     0.017 A 
ENDBRANCH   6  20
TORSDOF 5
ENDMDL
MODEL 10
REMARK VINA RESULT:      -8.1      4.367      8.235
REMARK  5 active torsions:
REMARK  status: ('A' for Active; 'I' for Inactive)
REMARK    1  A    between atoms: C_3  and  N_4 
REMARK    2  A    between atoms: N_5  and  C_6 
REMARK    3  A    between atoms: C_6  and  C_7 
REMARK    4  A    between atoms: C_7  and  C_8 
REMARK    5  A    between atoms: C_17  and  C_18 
ROOT
HETATM    1  C   UNL     1      25.601  45.496  54.004  1.00  0.00     0.175 C 
HETATM    2  N   UNL     1      26.285  44.728  52.973  1.00  0.00    -0.186 N 
HETATM    3  C   UNL     1      25.762  44.452  51.781  1.00  0.00     0.680 A 
HETATM    4  N   UNL     1      26.704  43.932  51.002  1.00  0.00    -0.184 N 
HETATM    5  C   UNL     1      27.873  43.844  51.735  1.00  0.00     0.140 A 
HETATM    6  C   UNL     1      27.627  44.294  53.016  1.00  0.00     0.077 A 
ENDROOT
BRANCH   4   7
HETATM    7  C   UNL     1      26.548  43.425  49.625  1.00  0.00     0.231 C 
BRANCH   7   8
HETATM    8  C   UNL     1      25.911  42.041  49.579  1.00  0.00     0.178 C 
HETATM    9  O   UNL     1      24.695  41.893  49.725  1.00  0.00    -0.290 OA
BRANCH   8  10
HETATM   10  C   UNL     1      26.770  40.854  49.329  1.00  0.00     0.012 A 
HETATM   11  C   UNL     1      26.457  39.590  49.846  1.00  0.00     0.018 A 
HETATM   12  C   UNL     1      27.306  38.509  49.590  1.00  0.00     0.043 A 
HETATM   13  C   UNL     1      28.449  38.694  48.819  1.00  0.00     0.116 A 
HETATM   14  F   UNL     1      29.258  37.655  48.583  1.00  0.00    -0.206 F 
HETATM   15  C   UNL     1      28.759  39.939  48.287  1.00  0.00     0.043 A 
HETATM   16  C   UNL     1      27.915  41.023  48.537  1.00  0.00     0.018 A 
ENDBRANCH   8  10
ENDBRANCH   7   8
ENDBRANCH   4   7
BRANCH   3  17
HETATM   17  N   UNL     1      24.502  44.681  51.429  1.00  0.00    -0.234 N 
HETATM   18  H   UNL     1      23.718  44.357  51.969  1.00  0.00     0.174 HD
HETATM   19  H   UNL     1      24.308  45.368  50.699  1.00  0.00     0.174 HD
ENDBRANCH   3  17
BRANCH   6  20
HETATM   20  C   UNL     1      28.630  44.298  54.141  1.00  0.00    -0.004 A 
HETATM   21  C   UNL     1      28.549  45.290  55.133  1.00  0.00     0.053 A 
HETATM   22  C   UNL     1      29.481  45.271  56.150  1.00  0.00     0.106 A 
HETATM   23  C   UNL     1      30.473  44.326  56.210  1.00  0.00     0.105 A 
HETATM   24  O   UNL     1      29.537  46.149  57.186  1.00  0.00    -0.323 OA
HETATM   25  O   UNL     1      31.280  44.488  57.289  1.00  0.00    -0.323 OA
HETATM   26  C   UNL     1      30.594  43.350  55.248  1.00  0.00     0.040 A 
HETATM   27  C   UNL     1      30.684  45.648  57.909  1.00  0.00     0.352 A 
HETATM   28  C   UNL     1      29.664  43.342  54.199  1.00  0.00     0.017 A 
ENDBRANCH   6  20
TORSDOF 5
ENDMDL
