MODEL 1
REMARK VINA RESULT:      -9.1      0.000      0.000
REMARK  6 active torsions:
REMARK  status: ('A' for Active; 'I' for Inactive)
REMARK    1  A    between atoms: C_7  and  C_8 
REMARK    2  A    between atoms: N_9  and  N_10 
REMARK       I    between atoms: N_10  and  C_11 
REMARK    3  A    between atoms: C_11  and  C_12 
REMARK    4  A    between atoms: C_15  and  O_16 
REMARK    5  A    between atoms: O_16  and  C_17 
REMARK    6  A    between atoms: C_17  and  C_20 
ROOT
HETATM    1  N   UNL     1      25.507  46.529  51.982  1.00  0.00    -0.243 N 
HETATM    2  C   UNL     1      25.660  45.563  52.970  1.00  0.00     0.271 C 
HETATM    3  O   UNL     1      24.874  44.647  53.200  1.00  0.00    -0.266 OA
HETATM    4  H   UNL     1      26.143  47.315  51.934  1.00  0.00     0.192 HD
ENDROOT
BRANCH   1   5
HETATM    5  N   UNL     1      24.419  46.679  51.157  1.00  0.00    -0.183 NA
HETATM    6  C   UNL     1      24.507  47.482  50.145  1.00  0.00     0.153 C 
BRANCH   6   7
HETATM    7  C   UNL     1      23.383  47.628  49.233  1.00  0.00     0.018 A 
HETATM    8  C   UNL     1      22.843  46.578  48.500  1.00  0.00     0.018 A 
HETATM    9  C   UNL     1      23.219  45.141  48.437  1.00  0.00     0.069 C 
HETATM   10  N   UNL     1      21.806  47.077  47.754  1.00  0.00    -0.358 N 
HETATM   11  H   UNL     1      21.229  46.537  47.125  1.00  0.00     0.166 HD
HETATM   12  C   UNL     1      21.649  48.422  47.979  1.00  0.00     0.043 A 
HETATM   13  C   UNL     1      22.623  48.801  48.905  1.00  0.00     0.004 A 
HETATM   14  C   UNL     1      20.722  49.320  47.437  1.00  0.00     0.030 A 
HETATM   15  C   UNL     1      22.661  50.154  49.307  1.00  0.00     0.014 A 
HETATM   16  C   UNL     1      21.741  51.066  48.777  1.00  0.00     0.001 A 
HETATM   17  C   UNL     1      20.785  50.653  47.853  1.00  0.00     0.002 A 
ENDBRANCH   6   7
ENDBRANCH   1   5
BRANCH   2  18
HETATM   18  C   UNL     1      26.903  45.654  53.794  1.00  0.00     0.033 A 
HETATM   19  C   UNL     1      27.779  44.579  53.986  1.00  0.00     0.020 A 
HETATM   20  C   UNL     1      28.918  44.740  54.786  1.00  0.00     0.038 A 
HETATM   21  C   UNL     1      29.208  45.967  55.391  1.00  0.00     0.075 A 
HETATM   22  C   UNL     1      28.349  47.043  55.181  1.00  0.00     0.038 A 
HETATM   23  C   UNL     1      27.207  46.887  54.386  1.00  0.00     0.020 A 
BRANCH  21  24
HETATM   24  O   UNL     1      30.344  45.970  56.148  1.00  0.00    -0.279 OA
BRANCH  24  25
HETATM   25  C   UNL     1      30.232  45.707  57.550  1.00  0.00     0.418 C 
HETATM   26  F   UNL     1      30.759  46.745  58.249  1.00  0.00    -0.169 F 
HETATM   27  F   UNL     1      28.912  45.616  57.871  1.00  0.00    -0.169 F 
BRANCH  25  28
HETATM   28  C   UNL     1      30.934  44.395  57.900  1.00  0.00     0.455 C 
HETATM   29  F   UNL     1      31.260  43.693  56.781  1.00  0.00    -0.205 F 
HETATM   30  F   UNL     1      32.101  44.621  58.561  1.00  0.00    -0.205 F 
ENDBRANCH  25  28
ENDBRANCH  24  25
ENDBRANCH  21  24
ENDBRANCH   2  18
TORSDOF 6
ENDMDL
MODEL 2
REMARK VINA RESULT:      -9.1      6.013     10.543
REMARK  6 active torsions:
REMARK  status: ('A' for Active; 'I' for Inactive)
REMARK    1  A    between atoms: C_7  and  C_8 
REMARK    2  A    between atoms: N_9  and  N_10 
REMARK       I    between atoms: N_10  and  C_11 
REMARK    3  A    between atoms: C_11  and  C_12 
REMARK    4  A    between atoms: C_15  and  O_16 
REMARK    5  A    between atoms: O_16  and  C_17 
REMARK    6  A    between atoms: C_17  and  C_20 
ROOT
HETATM    1  N   UNL     1      25.150  47.236  50.531  1.00  0.00    -0.243 N 
HETATM    2  C   UNL     1      25.322  48.197  49.541  1.00  0.00     0.271 C 
HETATM    3  O   UNL     1      26.391  48.493  49.012  1.00  0.00    -0.266 OA
HETATM    4  H   UNL     1      24.255  47.134  50.993  1.00  0.00     0.192 HD
ENDROOT
BRANCH   1   5
HETATM    5  N   UNL     1      26.148  46.520  51.147  1.00  0.00    -0.183 NA
HETATM    6  C   UNL     1      25.827  45.658  52.058  1.00  0.00     0.153 C 
BRANCH   6   7
HETATM    7  C   UNL     1      26.861  44.858  52.697  1.00  0.00     0.018 A 
HETATM    8  C   UNL     1      27.201  43.572  52.293  1.00  0.00     0.018 A 
HETATM    9  C   UNL     1      26.663  42.721  51.200  1.00  0.00     0.069 C 
HETATM   10  N   UNL     1      28.206  43.127  53.115  1.00  0.00    -0.358 N 
HETATM   11  H   UNL     1      28.651  42.223  53.052  1.00  0.00     0.166 HD
HETATM   12  C   UNL     1      28.534  44.084  54.042  1.00  0.00     0.043 A 
HETATM   13  C   UNL     1      27.710  45.186  53.808  1.00  0.00     0.004 A 
HETATM   14  C   UNL     1      29.496  44.054  55.061  1.00  0.00     0.030 A 
HETATM   15  C   UNL     1      27.865  46.316  54.640  1.00  0.00     0.014 A 
HETATM   16  C   UNL     1      28.822  46.305  55.662  1.00  0.00     0.001 A 
HETATM   17  C   UNL     1      29.625  45.187  55.868  1.00  0.00     0.002 A 
ENDBRANCH   6   7
ENDBRANCH   1   5
BRANCH   2  18
HETATM   18  C   UNL     1      24.086  48.899  49.082  1.00  0.00     0.033 A 
HETATM   19  C   UNL     1      24.091  50.183  48.524  1.00  0.00     0.020 A 
HETATM   20  C   UNL     1      22.886  50.780  48.131  1.00  0.00     0.038 A 
HETATM   21  C   UNL     1      21.668  50.108  48.273  1.00  0.00     0.075 A 
HETATM   22  C   UNL     1      21.664  48.821  48.806  1.00  0.00     0.038 A 
HETATM   23  C   UNL     1      22.865  48.222  49.204  1.00  0.00     0.020 A 
BRANCH  21  24
HETATM   24  O   UNL     1      20.578  50.818  47.856  1.00  0.00    -0.279 OA
BRANCH  24  25
HETATM   25  C   UNL     1      19.797  51.508  48.837  1.00  0.00     0.418 C 
HETATM   26  F   UNL     1      20.483  51.560  50.007  1.00  0.00    -0.169 F 
HETATM   27  F   UNL     1      19.597  52.785  48.413  1.00  0.00    -0.169 F 
BRANCH  25  28
HETATM   28  C   UNL     1      18.448  50.814  49.021  1.00  0.00     0.455 C 
HETATM   29  F   UNL     1      18.355  49.696  48.251  1.00  0.00    -0.205 F 
HETATM   30  F   UNL     1      18.273  50.406  50.307  1.00  0.00    -0.205 F 
ENDBRANCH  25  28
ENDBRANCH  24  25
ENDBRANCH  21  24
ENDBRANCH   2  18
TORSDOF 6
ENDMDL
MODEL 3
REMARK VINA RESULT:      -9.0      6.053     10.696
REMARK  6 active torsions:
REMARK  status: ('A' for Active; 'I' for Inactive)
REMARK    1  A    between atoms: C_7  and  C_8 
REMARK    2  A    between atoms: N_9  and  N_10 
REMARK       I    between atoms: N_10  and  C_11 
REMARK    3  A    between atoms: C_11  and  C_12 
REMARK    4  A    between atoms: C_15  and  O_16 
REMARK    5  A    between atoms: O_16  and  C_17 
REMARK    6  A    between atoms: C_17  and  C_20 
ROOT
HETATM    1  N   UNL     1      25.219  47.314  50.822  1.00  0.00    -0.243 N 
HETATM    2  C   UNL     1      25.375  48.049  49.652  1.00  0.00     0.271 C 
HETATM    3  O   UNL     1      26.412  48.141  48.999  1.00  0.00    -0.266 OA
HETATM    4  H   UNL     1      24.364  47.383  51.358  1.00  0.00     0.192 HD
ENDROOT
BRANCH   1   5
HETATM    5  N   UNL     1      26.212  46.640  51.493  1.00  0.00    -0.183 NA
HETATM    6  C   UNL     1      26.015  46.305  52.728  1.00  0.00     0.153 C 
BRANCH   6   7
HETATM    7  C   UNL     1      27.034  45.558  53.449  1.00  0.00     0.018 A 
HETATM    8  C   UNL     1      27.784  46.087  54.492  1.00  0.00     0.018 A 
HETATM    9  C   UNL     1      27.769  47.437  55.115  1.00  0.00     0.069 C 
HETATM   10  N   UNL     1      28.640  45.109  54.931  1.00  0.00    -0.358 N 
HETATM   11  H   UNL     1      29.306  45.213  55.684  1.00  0.00     0.166 HD
HETATM   12  C   UNL     1      28.471  43.955  54.207  1.00  0.00     0.043 A 
HETATM   13  C   UNL     1      27.468  44.201  53.268  1.00  0.00     0.004 A 
HETATM   14  C   UNL     1      29.126  42.722  54.318  1.00  0.00     0.030 A 
HETATM   15  C   UNL     1      27.104  43.149  52.399  1.00  0.00     0.014 A 
HETATM   16  C   UNL     1      27.746  41.909  52.496  1.00  0.00     0.001 A 
HETATM   17  C   UNL     1      28.745  41.701  53.443  1.00  0.00     0.002 A 
ENDBRANCH   6   7
ENDBRANCH   1   5
BRANCH   2  18
HETATM   18  C   UNL     1      24.158  48.760  49.154  1.00  0.00     0.033 A 
HETATM   19  C   UNL     1      24.193  50.034  48.578  1.00  0.00     0.020 A 
HETATM   20  C   UNL     1      23.006  50.641  48.149  1.00  0.00     0.038 A 
HETATM   21  C   UNL     1      21.775  49.987  48.272  1.00  0.00     0.075 A 
HETATM   22  C   UNL     1      21.743  48.708  48.824  1.00  0.00     0.038 A 
HETATM   23  C   UNL     1      22.926  48.099  49.259  1.00  0.00     0.020 A 
BRANCH  21  24
HETATM   24  O   UNL     1      20.705  50.704  47.821  1.00  0.00    -0.279 OA
BRANCH  24  25
HETATM   25  C   UNL     1      19.935  51.452  48.767  1.00  0.00     0.418 C 
HETATM   26  F   UNL     1      20.583  51.474  49.960  1.00  0.00    -0.169 F 
HETATM   27  F   UNL     1      19.831  52.735  48.325  1.00  0.00    -0.169 F 
BRANCH  25  28
HETATM   28  C   UNL     1      18.540  50.846  48.910  1.00  0.00     0.455 C 
HETATM   29  F   UNL     1      18.602  49.538  49.280  1.00  0.00    -0.205 F 
HETATM   30  F   UNL     1      17.823  51.480  49.876  1.00  0.00    -0.205 F 
ENDBRANCH  25  28
ENDBRANCH  24  25
ENDBRANCH  21  24
ENDBRANCH   2  18
TORSDOF 6
ENDMDL
MODEL 4
REMARK VINA RESULT:      -8.9      6.255     10.714
REMARK  6 active torsions:
REMARK  status: ('A' for Active; 'I' for Inactive)
REMARK    1  A    between atoms: C_7  and  C_8 
REMARK    2  A    between atoms: N_9  and  N_10 
REMARK       I    between atoms: N_10  and  C_11 
REMARK    3  A    between atoms: C_11  and  C_12 
REMARK    4  A    between atoms: C_15  and  O_16 
REMARK    5  A    between atoms: O_16  and  C_17 
REMARK    6  A    between atoms: C_17  and  C_20 
ROOT
HETATM    1  N   UNL     1      24.391  47.469  50.623  1.00  0.00    -0.243 N 
HETATM    2  C   UNL     1      24.498  48.398  49.594  1.00  0.00     0.271 C 
HETATM    3  O   UNL     1      25.532  48.684  48.996  1.00  0.00    -0.266 OA
HETATM    4  H   UNL     1      23.525  47.375  51.138  1.00  0.00     0.192 HD
ENDROOT
BRANCH   1   5
HETATM    5  N   UNL     1      25.429  46.781  51.204  1.00  0.00    -0.183 NA
HETATM    6  C   UNL     1      25.158  45.826  52.036  1.00  0.00     0.153 C 
BRANCH   6   7
HETATM    7  C   UNL     1      26.238  45.057  52.635  1.00  0.00     0.018 A 
HETATM    8  C   UNL     1      26.555  43.756  52.264  1.00  0.00     0.018 A 
HETATM    9  C   UNL     1      25.945  42.857  51.248  1.00  0.00     0.069 C 
HETATM   10  N   UNL     1      27.616  43.348  53.031  1.00  0.00    -0.358 N 
HETATM   11  H   UNL     1      28.060  42.442  52.976  1.00  0.00     0.166 HD
HETATM   12  C   UNL     1      28.004  44.344  53.892  1.00  0.00     0.043 A 
HETATM   13  C   UNL     1      27.160  45.433  53.669  1.00  0.00     0.004 A 
HETATM   14  C   UNL     1      29.034  44.359  54.841  1.00  0.00     0.030 A 
HETATM   15  C   UNL     1      27.367  46.598  54.440  1.00  0.00     0.014 A 
HETATM   16  C   UNL     1      28.393  46.633  55.392  1.00  0.00     0.001 A 
HETATM   17  C   UNL     1      29.214  45.526  55.589  1.00  0.00     0.002 A 
ENDBRANCH   6   7
ENDBRANCH   1   5
BRANCH   2  18
HETATM   18  C   UNL     1      23.231  49.074  49.183  1.00  0.00     0.033 A 
HETATM   19  C   UNL     1      22.002  48.412  49.082  1.00  0.00     0.020 A 
HETATM   20  C   UNL     1      20.861  49.114  48.675  1.00  0.00     0.038 A 
HETATM   21  C   UNL     1      20.920  50.479  48.377  1.00  0.00     0.075 A 
HETATM   22  C   UNL     1      22.138  51.144  48.500  1.00  0.00     0.038 A 
HETATM   23  C   UNL     1      23.283  50.447  48.902  1.00  0.00     0.020 A 
BRANCH  21  24
HETATM   24  O   UNL     1      19.732  51.025  47.985  1.00  0.00    -0.279 OA
BRANCH  24  25
HETATM   25  C   UNL     1      18.953  51.735  48.953  1.00  0.00     0.418 C 
HETATM   26  F   UNL     1      19.621  51.770  50.134  1.00  0.00    -0.169 F 
HETATM   27  F   UNL     1      18.793  53.017  48.526  1.00  0.00    -0.169 F 
BRANCH  25  28
HETATM   28  C   UNL     1      17.584  51.076  49.115  1.00  0.00     0.455 C 
HETATM   29  F   UNL     1      17.699  49.786  49.531  1.00  0.00    -0.205 F 
HETATM   30  F   UNL     1      16.837  51.715  50.056  1.00  0.00    -0.205 F 
ENDBRANCH  25  28
ENDBRANCH  24  25
ENDBRANCH  21  24
ENDBRANCH   2  18
TORSDOF 6
ENDMDL
MODEL 5
REMARK VINA RESULT:      -8.8      5.677     10.389
REMARK  6 active torsions:
REMARK  status: ('A' for Active; 'I' for Inactive)
REMARK    1  A    between atoms: C_7  and  C_8 
REMARK    2  A    between atoms: N_9  and  N_10 
REMARK       I    between atoms: N_10  and  C_11 
REMARK    3  A    between atoms: C_11  and  C_12 
REMARK    4  A    between atoms: C_15  and  O_16 
REMARK    5  A    between atoms: O_16  and  C_17 
REMARK    6  A    between atoms: C_17  and  C_20 
ROOT
HETATM    1  N   UNL     1      25.746  46.078  51.115  1.00  0.00    -0.243 N 
HETATM    2  C   UNL     1      25.141  45.761  49.903  1.00  0.00     0.271 C 
HETATM    3  O   UNL     1      25.412  44.789  49.203  1.00  0.00    -0.266 OA
HETATM    4  H   UNL     1      25.543  46.958  51.572  1.00  0.00     0.192 HD
ENDROOT
BRANCH   1   5
HETATM    5  N   UNL     1      26.803  45.415  51.690  1.00  0.00    -0.183 NA
HETATM    6  C   UNL     1      26.564  44.542  52.617  1.00  0.00     0.153 C 
BRANCH   6   7
HETATM    7  C   UNL     1      27.662  43.798  53.214  1.00  0.00     0.018 A 
HETATM    8  C   UNL     1      27.984  42.490  52.869  1.00  0.00     0.018 A 
HETATM    9  C   UNL     1      27.365  41.562  51.887  1.00  0.00     0.069 C 
HETATM   10  N   UNL     1      29.063  42.111  53.626  1.00  0.00    -0.358 N 
HETATM   11  H   UNL     1      29.515  41.209  53.585  1.00  0.00     0.166 HD
HETATM   12  C   UNL     1      29.458  43.132  54.455  1.00  0.00     0.043 A 
HETATM   13  C   UNL     1      28.600  44.208  54.221  1.00  0.00     0.004 A 
HETATM   14  C   UNL     1      30.505  43.180  55.384  1.00  0.00     0.030 A 
HETATM   15  C   UNL     1      28.810  45.393  54.958  1.00  0.00     0.014 A 
HETATM   16  C   UNL     1      29.853  45.461  55.890  1.00  0.00     0.001 A 
HETATM   17  C   UNL     1      30.688  44.367  56.099  1.00  0.00     0.002 A 
ENDBRANCH   6   7
ENDBRANCH   1   5
BRANCH   2  18
HETATM   18  C   UNL     1      24.057  46.683  49.448  1.00  0.00     0.033 A 
HETATM   19  C   UNL     1      22.921  46.251  48.754  1.00  0.00     0.020 A 
HETATM   20  C   UNL     1      21.955  47.180  48.347  1.00  0.00     0.038 A 
HETATM   21  C   UNL     1      22.095  48.541  48.635  1.00  0.00     0.075 A 
HETATM   22  C   UNL     1      23.214  48.968  49.346  1.00  0.00     0.038 A 
HETATM   23  C   UNL     1      24.185  48.045  49.751  1.00  0.00     0.020 A 
BRANCH  21  24
HETATM   24  O   UNL     1      21.081  49.327  48.167  1.00  0.00    -0.279 OA
BRANCH  24  25
HETATM   25  C   UNL     1      19.992  49.631  49.044  1.00  0.00     0.418 C 
HETATM   26  F   UNL     1      18.818  49.453  48.386  1.00  0.00    -0.169 F 
HETATM   27  F   UNL     1      20.020  48.760  50.090  1.00  0.00    -0.169 F 
BRANCH  25  28
HETATM   28  C   UNL     1      20.118  51.061  49.567  1.00  0.00     0.455 C 
HETATM   29  F   UNL     1      21.109  51.165  50.494  1.00  0.00    -0.205 F 
HETATM   30  F   UNL     1      20.439  51.925  48.567  1.00  0.00    -0.205 F 
ENDBRANCH  25  28
ENDBRANCH  24  25
ENDBRANCH  21  24
ENDBRANCH   2  18
TORSDOF 6
ENDMDL
MODEL 6
REMARK VINA RESULT:      -8.7      0.936      2.284
REMARK  6 active torsions:
REMARK  status: ('A' for Active; 'I' for Inactive)
REMARK    1  A    between atoms: C_7  and  C_8 
REMARK    2  A    between atoms: N_9  and  N_10 
REMARK       I    between atoms: N_10  and  C_11 
REMARK    3  A    between atoms: C_11  and  C_12 
REMARK    4  A    between atoms: C_15  and  O_16 
REMARK    5  A    between atoms: O_16  and  C_17 
REMARK    6  A    between atoms: C_17  and  C_20 
ROOT
HETATM    1  N   UNL     1      25.597  46.554  51.899  1.00  0.00    -0.243 N 
HETATM    2  C   UNL     1      25.694  45.636  52.940  1.00  0.00     0.271 C 
HETATM    3  O   UNL     1      24.868  44.766  53.203  1.00  0.00    -0.266 OA
HETATM    4  H   UNL     1      26.265  47.310  51.821  1.00  0.00     0.192 HD
ENDROOT
BRANCH   1   5
HETATM    5  N   UNL     1      24.528  46.703  51.049  1.00  0.00    -0.183 NA
HETATM    6  C   UNL     1      24.637  47.512  50.043  1.00  0.00     0.153 C 
BRANCH   6   7
HETATM    7  C   UNL     1      23.534  47.659  49.106  1.00  0.00     0.018 A 
HETATM    8  C   UNL     1      23.114  48.881  48.595  1.00  0.00     0.018 A 
HETATM    9  C   UNL     1      23.616  50.260  48.834  1.00  0.00     0.069 C 
HETATM   10  N   UNL     1      22.060  48.643  47.750  1.00  0.00    -0.358 N 
HETATM   11  H   UNL     1      21.555  49.350  47.236  1.00  0.00     0.166 HD
HETATM   12  C   UNL     1      21.780  47.300  47.690  1.00  0.00     0.043 A 
HETATM   13  C   UNL     1      22.688  46.652  48.529  1.00  0.00     0.004 A 
HETATM   14  C   UNL     1      20.799  46.620  46.959  1.00  0.00     0.030 A 
HETATM   15  C   UNL     1      22.605  45.246  48.632  1.00  0.00     0.014 A 
HETATM   16  C   UNL     1      21.632  44.549  47.907  1.00  0.00     0.001 A 
HETATM   17  C   UNL     1      20.741  45.229  47.082  1.00  0.00     0.002 A 
ENDBRANCH   6   7
ENDBRANCH   1   5
BRANCH   2  18
HETATM   18  C   UNL     1      26.928  45.720  53.779  1.00  0.00     0.033 A 
HETATM   19  C   UNL     1      27.801  44.644  53.972  1.00  0.00     0.020 A 
HETATM   20  C   UNL     1      28.930  44.798  54.787  1.00  0.00     0.038 A 
HETATM   21  C   UNL     1      29.214  46.021  55.405  1.00  0.00     0.075 A 
HETATM   22  C   UNL     1      28.358  47.099  55.193  1.00  0.00     0.038 A 
HETATM   23  C   UNL     1      27.225  46.949  54.384  1.00  0.00     0.020 A 
BRANCH  21  24
HETATM   24  O   UNL     1      30.341  46.018  56.175  1.00  0.00    -0.279 OA
BRANCH  24  25
HETATM   25  C   UNL     1      30.214  45.727  57.571  1.00  0.00     0.418 C 
HETATM   26  F   UNL     1      30.719  46.758  58.295  1.00  0.00    -0.169 F 
HETATM   27  F   UNL     1      28.892  45.614  57.872  1.00  0.00    -0.169 F 
BRANCH  25  28
HETATM   28  C   UNL     1      30.928  44.418  57.905  1.00  0.00     0.455 C 
HETATM   29  F   UNL     1      31.260  43.732  56.778  1.00  0.00    -0.205 F 
HETATM   30  F   UNL     1      32.093  44.647  58.568  1.00  0.00    -0.205 F 
ENDBRANCH  25  28
ENDBRANCH  24  25
ENDBRANCH  21  24
ENDBRANCH   2  18
TORSDOF 6
ENDMDL
MODEL 7
REMARK VINA RESULT:      -8.5      5.913     10.920
REMARK  6 active torsions:
REMARK  status: ('A' for Active; 'I' for Inactive)
REMARK    1  A    between atoms: C_7  and  C_8 
REMARK    2  A    between atoms: N_9  and  N_10 
REMARK       I    between atoms: N_10  and  C_11 
REMARK    3  A    between atoms: C_11  and  C_12 
REMARK    4  A    between atoms: C_15  and  O_16 
REMARK    5  A    between atoms: O_16  and  C_17 
REMARK    6  A    between atoms: C_17  and  C_20 
ROOT
HETATM    1  N   UNL     1      25.249  47.146  51.694  1.00  0.00    -0.243 N 
HETATM    2  C   UNL     1      25.395  47.474  50.350  1.00  0.00     0.271 C 
HETATM    3  O   UNL     1      26.463  47.677  49.778  1.00  0.00    -0.266 OA
HETATM    4  H   UNL     1      24.328  47.106  52.112  1.00  0.00     0.192 HD
ENDROOT
BRANCH   1   5
HETATM    5  N   UNL     1      26.257  47.082  52.626  1.00  0.00    -0.183 NA
HETATM    6  C   UNL     1      26.332  46.042  53.394  1.00  0.00     0.153 C 
BRANCH   6   7
HETATM    7  C   UNL     1      27.412  45.931  54.362  1.00  0.00     0.018 A 
HETATM    8  C   UNL     1      27.618  46.838  55.395  1.00  0.00     0.018 A 
HETATM    9  C   UNL     1      26.871  48.066  55.775  1.00  0.00     0.069 C 
HETATM   10  N   UNL     1      28.717  46.425  56.103  1.00  0.00    -0.358 N 
HETATM   11  H   UNL     1      29.099  46.895  56.912  1.00  0.00     0.166 HD
HETATM   12  C   UNL     1      29.235  45.272  55.567  1.00  0.00     0.043 A 
HETATM   13  C   UNL     1      28.439  44.933  54.472  1.00  0.00     0.004 A 
HETATM   14  C   UNL     1      30.340  44.512  55.971  1.00  0.00     0.030 A 
HETATM   15  C   UNL     1      28.771  43.766  53.750  1.00  0.00     0.014 A 
HETATM   16  C   UNL     1      29.870  42.993  54.140  1.00  0.00     0.001 A 
HETATM   17  C   UNL     1      30.644  43.363  55.236  1.00  0.00     0.002 A 
ENDBRANCH   6   7
ENDBRANCH   1   5
BRANCH   2  18
HETATM   18  C   UNL     1      24.135  47.555  49.551  1.00  0.00     0.033 A 
HETATM   19  C   UNL     1      23.566  48.763  49.132  1.00  0.00     0.020 A 
HETATM   20  C   UNL     1      22.373  48.757  48.398  1.00  0.00     0.038 A 
HETATM   21  C   UNL     1      21.740  47.556  48.059  1.00  0.00     0.075 A 
HETATM   22  C   UNL     1      22.319  46.353  48.456  1.00  0.00     0.038 A 
HETATM   23  C   UNL     1      23.508  46.353  49.194  1.00  0.00     0.020 A 
BRANCH  21  24
HETATM   24  O   UNL     1      20.582  47.707  47.352  1.00  0.00    -0.279 OA
BRANCH  24  25
HETATM   25  C   UNL     1      19.346  47.771  48.070  1.00  0.00     0.418 C 
HETATM   26  F   UNL     1      18.559  46.725  47.711  1.00  0.00    -0.169 F 
HETATM   27  F   UNL     1      19.610  47.658  49.400  1.00  0.00    -0.169 F 
BRANCH  25  28
HETATM   28  C   UNL     1      18.647  49.103  47.800  1.00  0.00     0.455 C 
HETATM   29  F   UNL     1      19.371  50.150  48.280  1.00  0.00    -0.205 F 
HETATM   30  F   UNL     1      18.500  49.322  46.465  1.00  0.00    -0.205 F 
ENDBRANCH  25  28
ENDBRANCH  24  25
ENDBRANCH  21  24
ENDBRANCH   2  18
TORSDOF 6
ENDMDL
MODEL 8
REMARK VINA RESULT:      -8.4      3.258      4.227
REMARK  6 active torsions:
REMARK  status: ('A' for Active; 'I' for Inactive)
REMARK    1  A    between atoms: C_7  and  C_8 
REMARK    2  A    between atoms: N_9  and  N_10 
REMARK       I    between atoms: N_10  and  C_11 
REMARK    3  A    between atoms: C_11  and  C_12 
REMARK    4  A    between atoms: C_15  and  O_16 
REMARK    5  A    between atoms: O_16  and  C_17 
REMARK    6  A    between atoms: C_17  and  C_20 
ROOT
HETATM    1  N   UNL     1      23.310  46.862  49.157  1.00  0.00    -0.243 N 
HETATM    2  C   UNL     1      24.486  47.262  49.783  1.00  0.00     0.271 C 
HETATM    3  O   UNL     1      24.906  48.414  49.843  1.00  0.00    -0.266 OA
HETATM    4  H   UNL     1      23.094  45.879  49.055  1.00  0.00     0.192 HD
ENDROOT
BRANCH   1   5
HETATM    5  N   UNL     1      22.467  47.667  48.429  1.00  0.00    -0.183 NA
HETATM    6  C   UNL     1      21.189  47.561  48.610  1.00  0.00     0.153 C 
BRANCH   6   7
HETATM    7  C   UNL     1      20.278  48.428  47.880  1.00  0.00     0.018 A 
HETATM    8  C   UNL     1      19.607  48.043  46.725  1.00  0.00     0.018 A 
HETATM    9  C   UNL     1      19.623  46.762  45.970  1.00  0.00     0.069 C 
HETATM   10  N   UNL     1      18.841  49.104  46.312  1.00  0.00    -0.358 N 
HETATM   11  H   UNL     1      18.245  49.109  45.497  1.00  0.00     0.166 HD
HETATM   12  C   UNL     1      18.989  50.170  47.164  1.00  0.00     0.043 A 
HETATM   13  C   UNL     1      19.883  49.780  48.162  1.00  0.00     0.004 A 
HETATM   14  C   UNL     1      18.398  51.439  47.124  1.00  0.00     0.030 A 
HETATM   15  C   UNL     1      20.195  50.714  49.173  1.00  0.00     0.014 A 
HETATM   16  C   UNL     1      19.612  51.987  49.151  1.00  0.00     0.001 A 
HETATM   17  C   UNL     1      18.726  52.343  48.138  1.00  0.00     0.002 A 
ENDBRANCH   6   7
ENDBRANCH   1   5
BRANCH   2  18
HETATM   18  C   UNL     1      25.275  46.183  50.451  1.00  0.00     0.033 A 
HETATM   19  C   UNL     1      26.496  45.706  49.960  1.00  0.00     0.020 A 
HETATM   20  C   UNL     1      27.169  44.681  50.636  1.00  0.00     0.038 A 
HETATM   21  C   UNL     1      26.649  44.128  51.811  1.00  0.00     0.075 A 
HETATM   22  C   UNL     1      25.446  44.618  52.313  1.00  0.00     0.038 A 
HETATM   23  C   UNL     1      24.767  45.640  51.638  1.00  0.00     0.020 A 
BRANCH  21  24
HETATM   24  O   UNL     1      27.409  43.131  52.352  1.00  0.00    -0.279 OA
BRANCH  24  25
HETATM   25  C   UNL     1      28.049  43.366  53.611  1.00  0.00     0.418 C 
HETATM   26  F   UNL     1      28.395  44.676  53.705  1.00  0.00    -0.169 F 
HETATM   27  F   UNL     1      27.161  43.097  54.606  1.00  0.00    -0.169 F 
BRANCH  25  28
HETATM   28  C   UNL     1      29.272  42.463  53.759  1.00  0.00     0.455 C 
HETATM   29  F   UNL     1      28.911  41.157  53.894  1.00  0.00    -0.205 F 
HETATM   30  F   UNL     1      30.069  42.526  52.658  1.00  0.00    -0.205 F 
ENDBRANCH  25  28
ENDBRANCH  24  25
ENDBRANCH  21  24
ENDBRANCH   2  18
TORSDOF 6
ENDMDL
MODEL 9
REMARK VINA RESULT:      -8.3      1.731      2.747
REMARK  6 active torsions:
REMARK  status: ('A' for Active; 'I' for Inactive)
REMARK    1  A    between atoms: C_7  and  C_8 
REMARK    2  A    between atoms: N_9  and  N_10 
REMARK       I    between atoms: N_10  and  C_11 
REMARK    3  A    between atoms: C_11  and  C_12 
REMARK    4  A    between atoms: C_15  and  O_16 
REMARK    5  A    between atoms: O_16  and  C_17 
REMARK    6  A    between atoms: C_17  and  C_20 
ROOT
HETATM    1  N   UNL     1      26.049  44.790  52.370  1.00  0.00    -0.243 N 
HETATM    2  C   UNL     1      26.849  43.692  52.667  1.00  0.00     0.271 C 
HETATM    3  O   UNL     1      26.692  42.555  52.229  1.00  0.00    -0.266 OA
HETATM    4  H   UNL     1      26.179  45.664  52.862  1.00  0.00     0.192 HD
ENDROOT
BRANCH   1   5
HETATM    5  N   UNL     1      24.902  44.774  51.612  1.00  0.00    -0.183 NA
HETATM    6  C   UNL     1      24.976  45.094  50.360  1.00  0.00     0.153 C 
BRANCH   6   7
HETATM    7  C   UNL     1      23.785  45.048  49.527  1.00  0.00     0.018 A 
HETATM    8  C   UNL     1      23.128  43.871  49.185  1.00  0.00     0.018 A 
HETATM    9  C   UNL     1      23.422  42.456  49.533  1.00  0.00     0.069 C 
HETATM   10  N   UNL     1      22.056  44.203  48.396  1.00  0.00    -0.358 N 
HETATM   11  H   UNL     1      21.399  43.546  48.001  1.00  0.00     0.166 HD
HETATM   12  C   UNL     1      21.990  45.562  48.214  1.00  0.00     0.043 A 
HETATM   13  C   UNL     1      23.060  46.124  48.912  1.00  0.00     0.004 A 
HETATM   14  C   UNL     1      21.066  46.327  47.490  1.00  0.00     0.030 A 
HETATM   15  C   UNL     1      23.204  47.529  48.882  1.00  0.00     0.014 A 
HETATM   16  C   UNL     1      22.289  48.309  48.165  1.00  0.00     0.001 A 
HETATM   17  C   UNL     1      21.235  47.714  47.478  1.00  0.00     0.002 A 
ENDBRANCH   6   7
ENDBRANCH   1   5
BRANCH   2  18
HETATM   18  C   UNL     1      28.005  43.947  53.579  1.00  0.00     0.033 A 
HETATM   19  C   UNL     1      28.032  44.988  54.514  1.00  0.00     0.020 A 
HETATM   20  C   UNL     1      29.160  45.171  55.324  1.00  0.00     0.038 A 
HETATM   21  C   UNL     1      30.265  44.318  55.228  1.00  0.00     0.075 A 
HETATM   22  C   UNL     1      30.228  43.267  54.314  1.00  0.00     0.038 A 
HETATM   23  C   UNL     1      29.105  43.082  53.499  1.00  0.00     0.020 A 
BRANCH  21  24
HETATM   24  O   UNL     1      31.292  44.625  56.072  1.00  0.00    -0.279 OA
BRANCH  24  25
HETATM   25  C   UNL     1      31.353  43.968  57.342  1.00  0.00     0.418 C 
HETATM   26  F   UNL     1      30.554  42.871  57.322  1.00  0.00    -0.169 F 
HETATM   27  F   UNL     1      32.631  43.549  57.553  1.00  0.00    -0.169 F 
BRANCH  25  28
HETATM   28  C   UNL     1      30.940  44.929  58.455  1.00  0.00     0.455 C 
HETATM   29  F   UNL     1      31.250  46.216  58.141  1.00  0.00    -0.205 F 
HETATM   30  F   UNL     1      29.595  44.901  58.658  1.00  0.00    -0.205 F 
ENDBRANCH  25  28
ENDBRANCH  24  25
ENDBRANCH  21  24
ENDBRANCH   2  18
TORSDOF 6
ENDMDL
MODEL 10
REMARK VINA RESULT:      -8.3      2.287      3.675
REMARK  6 active torsions:
REMARK  status: ('A' for Active; 'I' for Inactive)
REMARK    1  A    between atoms: C_7  and  C_8 
REMARK    2  A    between atoms: N_9  and  N_10 
REMARK       I    between atoms: N_10  and  C_11 
REMARK    3  A    between atoms: C_11  and  C_12 
REMARK    4  A    between atoms: C_15  and  O_16 
REMARK    5  A    between atoms: O_16  and  C_17 
REMARK    6  A    between atoms: C_17  and  C_20 
ROOT
HETATM    1  N   UNL     1      23.366  47.722  49.999  1.00  0.00    -0.243 N 
HETATM    2  C   UNL     1      23.990  46.484  49.890  1.00  0.00     0.271 C 
HETATM    3  O   UNL     1      23.977  45.763  48.895  1.00  0.00    -0.266 OA
HETATM    4  H   UNL     1      23.331  48.199  50.890  1.00  0.00     0.192 HD
ENDROOT
BRANCH   1   5
HETATM    5  N   UNL     1      22.561  48.309  49.052  1.00  0.00    -0.183 NA
HETATM    6  C   UNL     1      21.292  48.050  49.063  1.00  0.00     0.153 C 
BRANCH   6   7
HETATM    7  C   UNL     1      20.412  48.689  48.097  1.00  0.00     0.018 A 
HETATM    8  C   UNL     1      19.962  48.069  46.938  1.00  0.00     0.018 A 
HETATM    9  C   UNL     1      20.221  46.708  46.397  1.00  0.00     0.069 C 
HETATM   10  N   UNL     1      19.159  48.959  46.271  1.00  0.00    -0.358 N 
HETATM   11  H   UNL     1      18.692  48.778  45.394  1.00  0.00     0.166 HD
HETATM   12  C   UNL     1      19.069  50.143  46.961  1.00  0.00     0.043 A 
HETATM   13  C   UNL     1      19.843  50.007  48.115  1.00  0.00     0.004 A 
HETATM   14  C   UNL     1      18.361  51.311  46.651  1.00  0.00     0.030 A 
HETATM   15  C   UNL     1      19.904  51.103  49.002  1.00  0.00     0.014 A 
HETATM   16  C   UNL     1      19.202  52.278  48.710  1.00  0.00     0.001 A 
HETATM   17  C   UNL     1      18.442  52.379  47.548  1.00  0.00     0.002 A 
ENDBRANCH   6   7
ENDBRANCH   1   5
BRANCH   2  18
HETATM   18  C   UNL     1      24.753  46.023  51.089  1.00  0.00     0.033 A 
HETATM   19  C   UNL     1      24.681  44.719  51.593  1.00  0.00     0.020 A 
HETATM   20  C   UNL     1      25.417  44.369  52.732  1.00  0.00     0.038 A 
HETATM   21  C   UNL     1      26.241  45.299  53.374  1.00  0.00     0.075 A 
HETATM   22  C   UNL     1      26.332  46.590  52.859  1.00  0.00     0.038 A 
HETATM   23  C   UNL     1      25.595  46.947  51.723  1.00  0.00     0.020 A 
BRANCH  21  24
HETATM   24  O   UNL     1      26.888  44.816  54.476  1.00  0.00    -0.279 OA
BRANCH  24  25
HETATM   25  C   UNL     1      28.193  44.254  54.310  1.00  0.00     0.418 C 
HETATM   26  F   UNL     1      28.161  42.934  54.628  1.00  0.00    -0.169 F 
HETATM   27  F   UNL     1      28.549  44.360  53.001  1.00  0.00    -0.169 F 
BRANCH  25  28
HETATM   28  C   UNL     1      29.205  45.003  55.177  1.00  0.00     0.455 C 
HETATM   29  F   UNL     1      28.586  45.738  56.140  1.00  0.00    -0.205 F 
HETATM   30  F   UNL     1      30.032  44.141  55.828  1.00  0.00    -0.205 F 
ENDBRANCH  25  28
ENDBRANCH  24  25
ENDBRANCH  21  24
ENDBRANCH   2  18
TORSDOF 6
ENDMDL
