MODEL 1
REMARK VINA RESULT:      -9.8      0.000      0.000
REMARK  9 active torsions:
REMARK  status: ('A' for Active; 'I' for Inactive)
REMARK    1  A    between atoms: C_4  and  C_5 
REMARK    2  A    between atoms: C_13  and  C_14 
REMARK    3  A    between atoms: C_14  and  N_15 
REMARK    4  A    between atoms: C_19  and  C_20 
REMARK       I    between atoms: C_20  and  N_21 
REMARK    5  A    between atoms: N_21  and  C_22 
REMARK    6  A    between atoms: C_22  and  C_23 
REMARK    7  A    between atoms: C_23  and  C_24 
REMARK    8  A    between atoms: C_24  and  N_25 
REMARK    9  A    between atoms: N_29  and  C_30 
ROOT
HETATM    1  N   UNL     1      25.517  42.783  50.157  1.00  0.00    -0.066 N 
HETATM    2  H   UNL     1      25.523  42.174  50.989  1.00  0.00     0.280 HD
HETATM    3  C   UNL     1      24.308  43.675  50.282  1.00  0.00     0.236 C 
HETATM    4  C   UNL     1      23.026  42.864  50.104  1.00  0.00     0.042 C 
HETATM    5  C   UNL     1      23.000  42.115  48.771  1.00  0.00     0.081 C 
HETATM    6  C   UNL     1      24.236  41.222  48.661  1.00  0.00     0.042 C 
HETATM    7  C   UNL     1      25.552  41.948  48.907  1.00  0.00     0.236 C 
ENDROOT
BRANCH   5   8
HETATM    8  C   UNL     1      22.898  43.131  47.634  1.00  0.00     0.221 C 
HETATM    9  N   UNL     1      21.975  44.130  47.833  1.00  0.00    -0.361 N 
HETATM   10  H   UNL     1      21.406  44.114  48.676  1.00  0.00     0.162 HD
HETATM   11  O   UNL     1      23.670  43.118  46.678  1.00  0.00    -0.273 OA
BRANCH   9  12
HETATM   12  C   UNL     1      21.978  45.353  47.049  1.00  0.00     0.124 C 
BRANCH  12  13
HETATM   13  C   UNL     1      21.900  46.636  47.883  1.00  0.00     0.047 C 
BRANCH  13  14
HETATM   14  C   UNL     1      20.518  46.751  48.525  1.00  0.00     0.236 C 
BRANCH  14  15
HETATM   15  N   UNL     1      20.360  48.027  49.325  1.00  0.00    -0.068 N 
HETATM   16  H   UNL     1      21.044  48.029  50.093  1.00  0.00     0.280 HD
HETATM   17  C   UNL     1      20.689  49.251  48.443  1.00  0.00     0.254 C 
HETATM   18  C   UNL     1      20.495  50.573  49.215  1.00  0.00     0.150 C 
HETATM   19  N   UNL     1      19.153  50.651  49.819  1.00  0.00    -0.378 N 
HETATM   20  C   UNL     1      18.844  49.520  50.716  1.00  0.00     0.150 C 
HETATM   21  C   UNL     1      18.963  48.182  49.953  1.00  0.00     0.254 C 
BRANCH  19  22
HETATM   22  C   UNL     1      18.084  51.226  49.127  1.00  0.00     0.031 A 
HETATM   23  C   UNL     1      18.111  51.499  47.752  1.00  0.00     0.053 A 
HETATM   24  C   UNL     1      17.009  52.066  47.097  1.00  0.00     0.036 A 
HETATM   25 CL   UNL     1      17.085  52.334  45.398  1.00  0.00    -0.084 Cl
HETATM   26  C   UNL     1      15.858  52.399  47.797  1.00  0.00     0.024 A 
HETATM   27  C   UNL     1      15.815  52.175  49.167  1.00  0.00     0.004 A 
HETATM   28  C   UNL     1      16.915  51.601  49.817  1.00  0.00     0.029 A 
ENDBRANCH  19  22
ENDBRANCH  14  15
ENDBRANCH  13  14
ENDBRANCH  12  13
ENDBRANCH   9  12
ENDBRANCH   5   8
BRANCH   1  29
HETATM   29  C   UNL     1      26.820  43.573  50.263  1.00  0.00     0.296 C 
BRANCH  29  30
HETATM   30  C   UNL     1      27.627  43.315  51.481  1.00  0.00     0.092 A 
HETATM   31  C   UNL     1      28.210  42.134  51.889  1.00  0.00     0.078 A 
HETATM   32  C   UNL     1      28.283  40.763  51.354  1.00  0.00     0.079 C 
HETATM   33  O   UNL     1      28.855  42.375  53.064  1.00  0.00    -0.294 OA
HETATM   34  C   UNL     1      28.624  43.700  53.329  1.00  0.00     0.180 A 
HETATM   35  N   UNL     1      27.892  44.308  52.406  1.00  0.00    -0.224 NA
BRANCH  34  36
HETATM   36  C   UNL     1      29.231  44.230  54.546  1.00  0.00     0.019 A 
HETATM   37  C   UNL     1      30.252  43.513  55.186  1.00  0.00     0.039 A 
HETATM   38  C   UNL     1      30.832  44.002  56.357  1.00  0.00     0.035 A 
HETATM   39 CL   UNL     1      32.074  43.097  57.128  1.00  0.00    -0.084 Cl
HETATM   40  C   UNL     1      30.410  45.210  56.907  1.00  0.00     0.024 A 
HETATM   41  C   UNL     1      29.399  45.935  56.281  1.00  0.00     0.003 A 
HETATM   42  C   UNL     1      28.813  45.448  55.109  1.00  0.00     0.016 A 
ENDBRANCH  34  36
ENDBRANCH  29  30
ENDBRANCH   1  29
TORSDOF 9
ENDMDL
MODEL 2
REMARK VINA RESULT:      -9.8      1.416      1.919
REMARK  9 active torsions:
REMARK  status: ('A' for Active; 'I' for Inactive)
REMARK    1  A    between atoms: C_4  and  C_5 
REMARK    2  A    between atoms: C_13  and  C_14 
REMARK    3  A    between atoms: C_14  and  N_15 
REMARK    4  A    between atoms: C_19  and  C_20 
REMARK       I    between atoms: C_20  and  N_21 
REMARK    5  A    between atoms: N_21  and  C_22 
REMARK    6  A    between atoms: C_22  and  C_23 
REMARK    7  A    between atoms: C_23  and  C_24 
REMARK    8  A    between atoms: C_24  and  N_25 
REMARK    9  A    between atoms: N_29  and  C_30 
ROOT
HETATM    1  N   UNL     1      25.558  42.539  50.328  1.00  0.00    -0.066 N 
HETATM    2  H   UNL     1      25.406  41.953  51.163  1.00  0.00     0.280 HD
HETATM    3  C   UNL     1      25.016  43.906  50.654  1.00  0.00     0.236 C 
HETATM    4  C   UNL     1      23.492  43.869  50.755  1.00  0.00     0.042 C 
HETATM    5  C   UNL     1      22.846  43.331  49.478  1.00  0.00     0.081 C 
HETATM    6  C   UNL     1      23.412  41.947  49.160  1.00  0.00     0.042 C 
HETATM    7  C   UNL     1      24.933  41.890  49.123  1.00  0.00     0.236 C 
ENDROOT
BRANCH   5   8
HETATM    8  C   UNL     1      23.068  44.336  48.348  1.00  0.00     0.221 C 
HETATM    9  N   UNL     1      22.679  43.900  47.103  1.00  0.00    -0.361 N 
HETATM   10  H   UNL     1      22.316  42.955  47.003  1.00  0.00     0.162 HD
HETATM   11  O   UNL     1      23.450  45.483  48.563  1.00  0.00    -0.273 OA
BRANCH   9  12
HETATM   12  C   UNL     1      22.489  44.814  45.990  1.00  0.00     0.124 C 
BRANCH  12  13
HETATM   13  C   UNL     1      21.033  44.953  45.531  1.00  0.00     0.047 C 
BRANCH  13  14
HETATM   14  C   UNL     1      20.569  46.397  45.714  1.00  0.00     0.236 C 
BRANCH  14  15
HETATM   15  N   UNL     1      20.426  46.774  47.173  1.00  0.00    -0.068 N 
HETATM   16  H   UNL     1      20.728  45.982  47.757  1.00  0.00     0.280 HD
HETATM   17  C   UNL     1      21.368  47.950  47.512  1.00  0.00     0.254 C 
HETATM   18  C   UNL     1      21.216  48.391  48.983  1.00  0.00     0.150 C 
HETATM   19  N   UNL     1      19.809  48.673  49.318  1.00  0.00    -0.378 N 
HETATM   20  C   UNL     1      18.903  47.537  49.060  1.00  0.00     0.150 C 
HETATM   21  C   UNL     1      18.981  47.116  47.576  1.00  0.00     0.254 C 
BRANCH  19  22
HETATM   22  C   UNL     1      19.279  49.957  49.173  1.00  0.00     0.031 A 
HETATM   23  C   UNL     1      17.968  50.298  49.535  1.00  0.00     0.053 A 
HETATM   24  C   UNL     1      17.482  51.604  49.383  1.00  0.00     0.036 A 
HETATM   25 CL   UNL     1      15.878  51.971  49.890  1.00  0.00    -0.084 Cl
HETATM   26  C   UNL     1      18.280  52.603  48.844  1.00  0.00     0.024 A 
HETATM   27  C   UNL     1      19.572  52.288  48.441  1.00  0.00     0.004 A 
HETATM   28  C   UNL     1      20.057  50.983  48.602  1.00  0.00     0.029 A 
ENDBRANCH  19  22
ENDBRANCH  14  15
ENDBRANCH  13  14
ENDBRANCH  12  13
ENDBRANCH   9  12
ENDBRANCH   5   8
BRANCH   1  29
HETATM   29  C   UNL     1      27.075  42.554  50.154  1.00  0.00     0.296 C 
BRANCH  29  30
HETATM   30  C   UNL     1      27.863  42.503  51.410  1.00  0.00     0.092 A 
HETATM   31  C   UNL     1      28.523  41.428  51.965  1.00  0.00     0.078 A 
HETATM   32  C   UNL     1      28.717  40.014  51.597  1.00  0.00     0.079 C 
HETATM   33  O   UNL     1      29.113  41.854  53.116  1.00  0.00    -0.294 OA
HETATM   34  C   UNL     1      28.773  43.178  53.219  1.00  0.00     0.180 A 
HETATM   35  N   UNL     1      28.024  43.615  52.216  1.00  0.00    -0.224 NA
BRANCH  34  36
HETATM   36  C   UNL     1      29.302  43.893  54.377  1.00  0.00     0.019 A 
HETATM   37  C   UNL     1      30.342  43.329  55.129  1.00  0.00     0.039 A 
HETATM   38  C   UNL     1      30.848  43.996  56.246  1.00  0.00     0.035 A 
HETATM   39 CL   UNL     1      32.117  43.277  57.157  1.00  0.00    -0.084 Cl
HETATM   40  C   UNL     1      30.332  45.231  56.629  1.00  0.00     0.024 A 
HETATM   41  C   UNL     1      29.301  45.805  55.891  1.00  0.00     0.003 A 
HETATM   42  C   UNL     1      28.788  45.139  54.773  1.00  0.00     0.016 A 
ENDBRANCH  34  36
ENDBRANCH  29  30
ENDBRANCH   1  29
TORSDOF 9
ENDMDL
MODEL 3
REMARK VINA RESULT:      -9.6      2.908      4.527
REMARK  9 active torsions:
REMARK  status: ('A' for Active; 'I' for Inactive)
REMARK    1  A    between atoms: C_4  and  C_5 
REMARK    2  A    between atoms: C_13  and  C_14 
REMARK    3  A    between atoms: C_14  and  N_15 
REMARK    4  A    between atoms: C_19  and  C_20 
REMARK       I    between atoms: C_20  and  N_21 
REMARK    5  A    between atoms: N_21  and  C_22 
REMARK    6  A    between atoms: C_22  and  C_23 
REMARK    7  A    between atoms: C_23  and  C_24 
REMARK    8  A    between atoms: C_24  and  N_25 
REMARK    9  A    between atoms: N_29  and  C_30 
ROOT
HETATM    1  N   UNL     1      22.933  43.965  48.765  1.00  0.00    -0.066 N 
HETATM    2  H   UNL     1      23.879  44.034  48.359  1.00  0.00     0.280 HD
HETATM    3  C   UNL     1      22.165  42.989  47.911  1.00  0.00     0.236 C 
HETATM    4  C   UNL     1      21.888  43.586  46.533  1.00  0.00     0.042 C 
HETATM    5  C   UNL     1      21.140  44.917  46.623  1.00  0.00     0.081 C 
HETATM    6  C   UNL     1      21.931  45.891  47.497  1.00  0.00     0.042 C 
HETATM    7  C   UNL     1      22.314  45.333  48.861  1.00  0.00     0.236 C 
ENDROOT
BRANCH   5   8
HETATM    8  C   UNL     1      19.730  44.659  47.150  1.00  0.00     0.221 C 
HETATM    9  N   UNL     1      19.070  45.776  47.607  1.00  0.00    -0.361 N 
HETATM   10  H   UNL     1      19.556  46.670  47.605  1.00  0.00     0.162 HD
HETATM   11  O   UNL     1      19.190  43.559  47.056  1.00  0.00    -0.273 OA
BRANCH   9  12
HETATM   12  C   UNL     1      17.633  45.793  47.816  1.00  0.00     0.124 C 
BRANCH  12  13
HETATM   13  C   UNL     1      17.041  47.194  48.006  1.00  0.00     0.047 C 
BRANCH  13  14
HETATM   14  C   UNL     1      17.557  47.800  49.311  1.00  0.00     0.236 C 
BRANCH  14  15
HETATM   15  N   UNL     1      18.259  49.123  49.093  1.00  0.00    -0.068 N 
HETATM   16  H   UNL     1      17.557  49.874  49.055  1.00  0.00     0.280 HD
HETATM   17  C   UNL     1      19.175  49.442  50.295  1.00  0.00     0.254 C 
HETATM   18  C   UNL     1      19.942  50.765  50.086  1.00  0.00     0.150 C 
HETATM   19  N   UNL     1      20.664  50.771  48.801  1.00  0.00    -0.378 N 
HETATM   20  C   UNL     1      19.793  50.531  47.634  1.00  0.00     0.150 C 
HETATM   21  C   UNL     1      19.062  49.178  47.781  1.00  0.00     0.254 C 
BRANCH  19  22
HETATM   22  C   UNL     1      21.984  50.320  48.716  1.00  0.00     0.031 A 
HETATM   23  C   UNL     1      22.493  49.267  49.489  1.00  0.00     0.053 A 
HETATM   24  C   UNL     1      23.822  48.840  49.360  1.00  0.00     0.036 A 
HETATM   25 CL   UNL     1      24.375  47.510  50.304  1.00  0.00    -0.084 Cl
HETATM   26  C   UNL     1      24.688  49.466  48.475  1.00  0.00     0.024 A 
HETATM   27  C   UNL     1      24.223  50.536  47.721  1.00  0.00     0.004 A 
HETATM   28  C   UNL     1      22.892  50.955  47.847  1.00  0.00     0.029 A 
ENDBRANCH  19  22
ENDBRANCH  14  15
ENDBRANCH  13  14
ENDBRANCH  12  13
ENDBRANCH   9  12
ENDBRANCH   5   8
BRANCH   1  29
HETATM   29  C   UNL     1      23.169  43.427  50.174  1.00  0.00     0.296 C 
BRANCH  29  30
HETATM   30  C   UNL     1      24.454  43.821  50.802  1.00  0.00     0.092 A 
HETATM   31  C   UNL     1      25.736  43.535  50.384  1.00  0.00     0.078 A 
HETATM   32  C   UNL     1      26.329  42.793  49.256  1.00  0.00     0.079 C 
HETATM   33  O   UNL     1      26.598  44.110  51.268  1.00  0.00    -0.294 OA
HETATM   34  C   UNL     1      25.796  44.716  52.200  1.00  0.00     0.180 A 
HETATM   35  N   UNL     1      24.500  44.572  51.962  1.00  0.00    -0.224 NA
BRANCH  34  36
HETATM   36  C   UNL     1      26.480  45.435  53.271  1.00  0.00     0.019 A 
HETATM   37  C   UNL     1      27.623  44.879  53.863  1.00  0.00     0.039 A 
HETATM   38  C   UNL     1      28.279  45.549  54.897  1.00  0.00     0.035 A 
HETATM   39 CL   UNL     1      29.672  44.841  55.614  1.00  0.00    -0.084 Cl
HETATM   40  C   UNL     1      27.814  46.780  55.353  1.00  0.00     0.024 A 
HETATM   41  C   UNL     1      26.682  47.345  54.773  1.00  0.00     0.003 A 
HETATM   42  C   UNL     1      26.019  46.676  53.739  1.00  0.00     0.016 A 
ENDBRANCH  34  36
ENDBRANCH  29  30
ENDBRANCH   1  29
TORSDOF 9
ENDMDL
MODEL 4
REMARK VINA RESULT:      -9.5      1.419      2.104
REMARK  9 active torsions:
REMARK  status: ('A' for Active; 'I' for Inactive)
REMARK    1  A    between atoms: C_4  and  C_5 
REMARK    2  A    between atoms: C_13  and  C_14 
REMARK    3  A    between atoms: C_14  and  N_15 
REMARK    4  A    between atoms: C_19  and  C_20 
REMARK       I    between atoms: C_20  and  N_21 
REMARK    5  A    between atoms: N_21  and  C_22 
REMARK    6  A    between atoms: C_22  and  C_23 
REMARK    7  A    between atoms: C_23  and  C_24 
REMARK    8  A    between atoms: C_24  and  N_25 
REMARK    9  A    between atoms: N_29  and  C_30 
ROOT
HETATM    1  N   UNL     1      25.536  43.132  50.258  1.00  0.00    -0.066 N 
HETATM    2  H   UNL     1      25.540  42.646  51.168  1.00  0.00     0.280 HD
HETATM    3  C   UNL     1      24.242  43.900  50.181  1.00  0.00     0.236 C 
HETATM    4  C   UNL     1      23.059  42.944  50.047  1.00  0.00     0.042 C 
HETATM    5  C   UNL     1      23.202  42.020  48.836  1.00  0.00     0.081 C 
HETATM    6  C   UNL     1      24.522  41.255  48.929  1.00  0.00     0.042 C 
HETATM    7  C   UNL     1      25.742  42.140  49.145  1.00  0.00     0.236 C 
ENDROOT
BRANCH   5   8
HETATM    8  C   UNL     1      23.087  42.853  47.561  1.00  0.00     0.221 C 
HETATM    9  N   UNL     1      22.273  43.957  47.664  1.00  0.00    -0.361 N 
HETATM   10  H   UNL     1      21.781  44.126  48.538  1.00  0.00     0.162 HD
HETATM   11  O   UNL     1      23.768  42.619  46.566  1.00  0.00    -0.273 OA
BRANCH   9  12
HETATM   12  C   UNL     1      22.311  45.038  46.695  1.00  0.00     0.124 C 
BRANCH  12  13
HETATM   13  C   UNL     1      21.662  46.340  47.178  1.00  0.00     0.047 C 
BRANCH  13  14
HETATM   14  C   UNL     1      22.314  46.789  48.485  1.00  0.00     0.236 C 
BRANCH  14  15
HETATM   15  N   UNL     1      21.445  47.755  49.260  1.00  0.00    -0.068 N 
HETATM   16  H   UNL     1      21.644  47.656  50.265  1.00  0.00     0.280 HD
HETATM   17  C   UNL     1      21.803  49.210  48.886  1.00  0.00     0.254 C 
HETATM   18  C   UNL     1      20.904  50.223  49.626  1.00  0.00     0.150 C 
HETATM   19  N   UNL     1      19.476  49.919  49.428  1.00  0.00    -0.378 N 
HETATM   20  C   UNL     1      19.101  48.553  49.839  1.00  0.00     0.150 C 
HETATM   21  C   UNL     1      19.938  47.511  49.064  1.00  0.00     0.254 C 
BRANCH  19  22
HETATM   22  C   UNL     1      18.760  50.485  48.369  1.00  0.00     0.031 A 
HETATM   23  C   UNL     1      17.549  51.172  48.535  1.00  0.00     0.053 A 
HETATM   24  C   UNL     1      16.872  51.735  47.444  1.00  0.00     0.036 A 
HETATM   25 CL   UNL     1      15.413  52.608  47.718  1.00  0.00    -0.084 Cl
HETATM   26  C   UNL     1      17.368  51.608  46.155  1.00  0.00     0.024 A 
HETATM   27  C   UNL     1      18.546  50.901  45.954  1.00  0.00     0.004 A 
HETATM   28  C   UNL     1      19.226  50.347  47.048  1.00  0.00     0.029 A 
ENDBRANCH  19  22
ENDBRANCH  14  15
ENDBRANCH  13  14
ENDBRANCH  12  13
ENDBRANCH   9  12
ENDBRANCH   5   8
BRANCH   1  29
HETATM   29  C   UNL     1      26.747  44.060  50.325  1.00  0.00     0.296 C 
BRANCH  29  30
HETATM   30  C   UNL     1      27.168  44.462  51.689  1.00  0.00     0.092 A 
HETATM   31  C   UNL     1      26.597  45.402  52.521  1.00  0.00     0.078 A 
HETATM   32  C   UNL     1      25.446  46.318  52.431  1.00  0.00     0.079 C 
HETATM   33  O   UNL     1      27.319  45.426  53.675  1.00  0.00    -0.294 OA
HETATM   34  C   UNL     1      28.313  44.502  53.490  1.00  0.00     0.180 A 
HETATM   35  N   UNL     1      28.264  43.895  52.313  1.00  0.00    -0.224 NA
BRANCH  34  36
HETATM   36  C   UNL     1      29.236  44.313  54.606  1.00  0.00     0.019 A 
HETATM   37  C   UNL     1      29.259  45.242  55.656  1.00  0.00     0.039 A 
HETATM   38  C   UNL     1      30.145  45.081  56.722  1.00  0.00     0.035 A 
HETATM   39 CL   UNL     1      30.161  46.241  57.992  1.00  0.00    -0.084 Cl
HETATM   40  C   UNL     1      31.015  43.995  56.764  1.00  0.00     0.024 A 
HETATM   41  C   UNL     1      31.002  43.062  55.730  1.00  0.00     0.003 A 
HETATM   42  C   UNL     1      30.118  43.221  54.658  1.00  0.00     0.016 A 
ENDBRANCH  34  36
ENDBRANCH  29  30
ENDBRANCH   1  29
TORSDOF 9
ENDMDL
MODEL 5
REMARK VINA RESULT:      -9.3      2.259      3.107
REMARK  9 active torsions:
REMARK  status: ('A' for Active; 'I' for Inactive)
REMARK    1  A    between atoms: C_4  and  C_5 
REMARK    2  A    between atoms: C_13  and  C_14 
REMARK    3  A    between atoms: C_14  and  N_15 
REMARK    4  A    between atoms: C_19  and  C_20 
REMARK       I    between atoms: C_20  and  N_21 
REMARK    5  A    between atoms: N_21  and  C_22 
REMARK    6  A    between atoms: C_22  and  C_23 
REMARK    7  A    between atoms: C_23  and  C_24 
REMARK    8  A    between atoms: C_24  and  N_25 
REMARK    9  A    between atoms: N_29  and  C_30 
ROOT
HETATM    1  N   UNL     1      25.446  43.684  50.344  1.00  0.00    -0.066 N 
HETATM    2  H   UNL     1      25.435  43.952  51.340  1.00  0.00     0.280 HD
HETATM    3  C   UNL     1      25.249  44.951  49.552  1.00  0.00     0.236 C 
HETATM    4  C   UNL     1      23.828  45.480  49.734  1.00  0.00     0.042 C 
HETATM    5  C   UNL     1      22.775  44.440  49.346  1.00  0.00     0.081 C 
HETATM    6  C   UNL     1      22.995  43.161  50.154  1.00  0.00     0.042 C 
HETATM    7  C   UNL     1      24.416  42.618  50.086  1.00  0.00     0.236 C 
ENDROOT
BRANCH   5   8
HETATM    8  C   UNL     1      22.841  44.207  47.837  1.00  0.00     0.221 C 
HETATM    9  N   UNL     1      21.980  43.245  47.364  1.00  0.00    -0.361 N 
HETATM   10  H   UNL     1      21.400  42.735  48.025  1.00  0.00     0.162 HD
HETATM   11  O   UNL     1      23.522  44.913  47.098  1.00  0.00    -0.273 OA
BRANCH   9  12
HETATM   12  C   UNL     1      21.652  43.128  45.954  1.00  0.00     0.124 C 
BRANCH  12  13
HETATM   13  C   UNL     1      20.478  44.006  45.505  1.00  0.00     0.047 C 
BRANCH  13  14
HETATM   14  C   UNL     1      19.519  44.223  46.675  1.00  0.00     0.236 C 
BRANCH  14  15
HETATM   15  N   UNL     1      18.864  45.587  46.636  1.00  0.00    -0.068 N 
HETATM   16  H   UNL     1      17.908  45.491  46.268  1.00  0.00     0.280 HD
HETATM   17  C   UNL     1      18.727  46.151  48.067  1.00  0.00     0.254 C 
HETATM   18  C   UNL     1      18.102  47.562  48.061  1.00  0.00     0.150 C 
HETATM   19  N   UNL     1      18.832  48.470  47.159  1.00  0.00    -0.378 N 
HETATM   20  C   UNL     1      18.919  47.977  45.771  1.00  0.00     0.150 C 
HETATM   21  C   UNL     1      19.604  46.593  45.735  1.00  0.00     0.254 C 
BRANCH  19  22
HETATM   22  C   UNL     1      19.893  49.249  47.626  1.00  0.00     0.031 A 
HETATM   23  C   UNL     1      21.189  48.751  47.825  1.00  0.00     0.053 A 
HETATM   24  C   UNL     1      22.227  49.574  48.284  1.00  0.00     0.036 A 
HETATM   25 CL   UNL     1      23.808  48.915  48.462  1.00  0.00    -0.084 Cl
HETATM   26  C   UNL     1      21.999  50.909  48.582  1.00  0.00     0.024 A 
HETATM   27  C   UNL     1      20.717  51.422  48.431  1.00  0.00     0.004 A 
HETATM   28  C   UNL     1      19.683  50.600  47.964  1.00  0.00     0.029 A 
ENDBRANCH  19  22
ENDBRANCH  14  15
ENDBRANCH  13  14
ENDBRANCH  12  13
ENDBRANCH   9  12
ENDBRANCH   5   8
BRANCH   1  29
HETATM   29  C   UNL     1      26.838  43.090  50.133  1.00  0.00     0.296 C 
BRANCH  29  30
HETATM   30  C   UNL     1      27.664  42.948  51.357  1.00  0.00     0.092 A 
HETATM   31  C   UNL     1      28.338  41.835  51.811  1.00  0.00     0.078 A 
HETATM   32  C   UNL     1      28.516  40.451  51.336  1.00  0.00     0.079 C 
HETATM   33  O   UNL     1      28.965  42.176  52.971  1.00  0.00    -0.294 OA
HETATM   34  C   UNL     1      28.633  43.489  53.180  1.00  0.00     0.180 A 
HETATM   35  N   UNL     1      27.854  43.998  52.236  1.00  0.00    -0.224 NA
BRANCH  34  36
HETATM   36  C   UNL     1      29.199  44.118  54.370  1.00  0.00     0.019 A 
HETATM   37  C   UNL     1      30.231  43.478  55.071  1.00  0.00     0.039 A 
HETATM   38  C   UNL     1      30.773  44.062  56.218  1.00  0.00     0.035 A 
HETATM   39 CL   UNL     1      32.030  43.251  57.066  1.00  0.00    -0.084 Cl
HETATM   40  C   UNL     1      30.302  45.288  56.681  1.00  0.00     0.024 A 
HETATM   41  C   UNL     1      29.279  45.936  55.993  1.00  0.00     0.003 A 
HETATM   42  C   UNL     1      28.731  45.354  54.846  1.00  0.00     0.016 A 
ENDBRANCH  34  36
ENDBRANCH  29  30
ENDBRANCH   1  29
TORSDOF 9
ENDMDL
MODEL 6
REMARK VINA RESULT:      -9.3      4.114     11.420
REMARK  9 active torsions:
REMARK  status: ('A' for Active; 'I' for Inactive)
REMARK    1  A    between atoms: C_4  and  C_5 
REMARK    2  A    between atoms: C_13  and  C_14 
REMARK    3  A    between atoms: C_14  and  N_15 
REMARK    4  A    between atoms: C_19  and  C_20 
REMARK       I    between atoms: C_20  and  N_21 
REMARK    5  A    between atoms: N_21  and  C_22 
REMARK    6  A    between atoms: C_22  and  C_23 
REMARK    7  A    between atoms: C_23  and  C_24 
REMARK    8  A    between atoms: C_24  and  N_25 
REMARK    9  A    between atoms: N_29  and  C_30 
ROOT
HETATM    1  N   UNL     1      25.613  46.105  51.763  1.00  0.00    -0.066 N 
HETATM    2  H   UNL     1      24.593  46.251  51.719  1.00  0.00     0.280 HD
HETATM    3  C   UNL     1      25.834  44.620  51.886  1.00  0.00     0.236 C 
HETATM    4  C   UNL     1      25.372  44.121  53.254  1.00  0.00     0.042 C 
HETATM    5  C   UNL     1      26.067  44.859  54.399  1.00  0.00     0.081 C 
HETATM    6  C   UNL     1      25.837  46.363  54.253  1.00  0.00     0.042 C 
HETATM    7  C   UNL     1      26.201  46.920  52.884  1.00  0.00     0.236 C 
ENDROOT
BRANCH   5   8
HETATM    8  C   UNL     1      27.548  44.483  54.404  1.00  0.00     0.221 C 
HETATM    9  N   UNL     1      27.800  43.131  54.412  1.00  0.00    -0.361 N 
HETATM   10  H   UNL     1      27.016  42.484  54.452  1.00  0.00     0.162 HD
HETATM   11  O   UNL     1      28.434  45.325  54.286  1.00  0.00    -0.273 OA
BRANCH   9  12
HETATM   12  C   UNL     1      29.103  42.587  54.072  1.00  0.00     0.124 C 
BRANCH  12  13
HETATM   13  C   UNL     1      29.174  41.939  52.685  1.00  0.00     0.047 C 
BRANCH  13  14
HETATM   14  C   UNL     1      27.849  41.247  52.370  1.00  0.00     0.236 C 
BRANCH  14  15
HETATM   15  N   UNL     1      27.453  41.395  50.916  1.00  0.00    -0.068 N 
HETATM   16  H   UNL     1      27.547  42.382  50.641  1.00  0.00     0.280 HD
HETATM   17  C   UNL     1      28.422  40.596  50.018  1.00  0.00     0.254 C 
HETATM   18  C   UNL     1      28.021  40.690  48.530  1.00  0.00     0.150 C 
HETATM   19  N   UNL     1      26.612  40.309  48.328  1.00  0.00    -0.378 N 
HETATM   20  C   UNL     1      25.665  41.105  49.132  1.00  0.00     0.150 C 
HETATM   21  C   UNL     1      25.998  40.977  50.635  1.00  0.00     0.254 C 
BRANCH  19  22
HETATM   22  C   UNL     1      26.257  38.987  48.050  1.00  0.00     0.031 A 
HETATM   23  C   UNL     1      25.344  38.626  47.048  1.00  0.00     0.053 A 
HETATM   24  C   UNL     1      25.027  37.283  46.796  1.00  0.00     0.036 A 
HETATM   25 CL   UNL     1      23.934  36.902  45.521  1.00  0.00    -0.084 Cl
HETATM   26  C   UNL     1      25.591  36.265  47.550  1.00  0.00     0.024 A 
HETATM   27  C   UNL     1      26.471  36.592  48.573  1.00  0.00     0.004 A 
HETATM   28  C   UNL     1      26.793  37.934  48.817  1.00  0.00     0.029 A 
ENDBRANCH  19  22
ENDBRANCH  14  15
ENDBRANCH  13  14
ENDBRANCH  12  13
ENDBRANCH   9  12
ENDBRANCH   5   8
BRANCH   1  29
HETATM   29  C   UNL     1      26.127  46.650  50.432  1.00  0.00     0.296 C 
BRANCH  29  30
HETATM   30  C   UNL     1      25.357  47.785  49.866  1.00  0.00     0.092 A 
HETATM   31  C   UNL     1      25.831  48.899  49.208  1.00  0.00     0.078 A 
HETATM   32  C   UNL     1      27.162  49.398  48.818  1.00  0.00     0.079 C 
HETATM   33  O   UNL     1      24.758  49.665  48.864  1.00  0.00    -0.294 OA
HETATM   34  C   UNL     1      23.670  48.984  49.344  1.00  0.00     0.180 A 
HETATM   35  N   UNL     1      23.978  47.847  49.953  1.00  0.00    -0.224 NA
BRANCH  34  36
HETATM   36  C   UNL     1      22.366  49.590  49.091  1.00  0.00     0.019 A 
HETATM   37  C   UNL     1      21.203  48.814  49.204  1.00  0.00     0.039 A 
HETATM   38  C   UNL     1      19.951  49.378  48.952  1.00  0.00     0.035 A 
HETATM   39 CL   UNL     1      18.542  48.401  49.086  1.00  0.00    -0.084 Cl
HETATM   40  C   UNL     1      19.835  50.717  48.589  1.00  0.00     0.024 A 
HETATM   41  C   UNL     1      20.981  51.501  48.476  1.00  0.00     0.003 A 
HETATM   42  C   UNL     1      22.238  50.940  48.724  1.00  0.00     0.016 A 
ENDBRANCH  34  36
ENDBRANCH  29  30
ENDBRANCH   1  29
TORSDOF 9
ENDMDL
MODEL 7
REMARK VINA RESULT:      -9.3      3.446     13.997
REMARK  9 active torsions:
REMARK  status: ('A' for Active; 'I' for Inactive)
REMARK    1  A    between atoms: C_4  and  C_5 
REMARK    2  A    between atoms: C_13  and  C_14 
REMARK    3  A    between atoms: C_14  and  N_15 
REMARK    4  A    between atoms: C_19  and  C_20 
REMARK       I    between atoms: C_20  and  N_21 
REMARK    5  A    between atoms: N_21  and  C_22 
REMARK    6  A    between atoms: C_22  and  C_23 
REMARK    7  A    between atoms: C_23  and  C_24 
REMARK    8  A    between atoms: C_24  and  N_25 
REMARK    9  A    between atoms: N_29  and  C_30 
ROOT
HETATM    1  N   UNL     1      19.480  50.939  49.094  1.00  0.00    -0.066 N 
HETATM    2  H   UNL     1      19.412  51.962  48.980  1.00  0.00     0.280 HD
HETATM    3  C   UNL     1      20.761  50.671  49.841  1.00  0.00     0.236 C 
HETATM    4  C   UNL     1      21.969  50.984  48.960  1.00  0.00     0.042 C 
HETATM    5  C   UNL     1      21.943  50.196  47.649  1.00  0.00     0.081 C 
HETATM    6  C   UNL     1      20.634  50.477  46.910  1.00  0.00     0.042 C 
HETATM    7  C   UNL     1      19.384  50.264  47.753  1.00  0.00     0.236 C 
ENDROOT
BRANCH   5   8
HETATM    8  C   UNL     1      22.144  48.714  47.957  1.00  0.00     0.221 C 
HETATM    9  N   UNL     1      23.302  48.418  48.637  1.00  0.00    -0.361 N 
HETATM   10  H   UNL     1      23.952  49.170  48.853  1.00  0.00     0.162 HD
HETATM   11  O   UNL     1      21.278  47.876  47.721  1.00  0.00    -0.273 OA
BRANCH   9  12
HETATM   12  C   UNL     1      23.499  47.146  49.311  1.00  0.00     0.124 C 
BRANCH  12  13
HETATM   13  C   UNL     1      24.532  47.187  50.443  1.00  0.00     0.047 C 
BRANCH  13  14
HETATM   14  C   UNL     1      24.853  45.765  50.901  1.00  0.00     0.236 C 
BRANCH  14  15
HETATM   15  N   UNL     1      25.204  45.698  52.371  1.00  0.00    -0.068 N 
HETATM   16  H   UNL     1      24.450  46.137  52.917  1.00  0.00     0.280 HD
HETATM   17  C   UNL     1      25.278  44.227  52.834  1.00  0.00     0.254 C 
HETATM   18  C   UNL     1      25.677  44.121  54.321  1.00  0.00     0.150 C 
HETATM   19  N   UNL     1      26.916  44.869  54.600  1.00  0.00    -0.378 N 
HETATM   20  C   UNL     1      26.842  46.293  54.222  1.00  0.00     0.150 C 
HETATM   21  C   UNL     1      26.511  46.433  52.720  1.00  0.00     0.254 C 
BRANCH  19  22
HETATM   22  C   UNL     1      28.166  44.250  54.511  1.00  0.00     0.031 A 
HETATM   23  C   UNL     1      29.160  44.370  55.493  1.00  0.00     0.053 A 
HETATM   24  C   UNL     1      30.395  43.720  55.368  1.00  0.00     0.036 A 
HETATM   25 CL   UNL     1      31.557  43.869  56.630  1.00  0.00    -0.084 Cl
HETATM   26  C   UNL     1      30.686  42.953  54.249  1.00  0.00     0.024 A 
HETATM   27  C   UNL     1      29.736  42.845  53.242  1.00  0.00     0.004 A 
HETATM   28  C   UNL     1      28.498  43.488  53.374  1.00  0.00     0.029 A 
ENDBRANCH  19  22
ENDBRANCH  14  15
ENDBRANCH  13  14
ENDBRANCH  12  13
ENDBRANCH   9  12
ENDBRANCH   5   8
BRANCH   1  29
HETATM   29  C   UNL     1      18.250  50.574  49.923  1.00  0.00     0.296 C 
BRANCH  29  30
HETATM   30  C   UNL     1      17.051  51.416  49.692  1.00  0.00     0.092 A 
HETATM   31  C   UNL     1      15.987  51.181  48.848  1.00  0.00     0.078 A 
HETATM   32  C   UNL     1      15.613  50.109  47.908  1.00  0.00     0.079 C 
HETATM   33  O   UNL     1      15.120  52.224  48.973  1.00  0.00    -0.294 OA
HETATM   34  C   UNL     1      15.705  53.061  49.887  1.00  0.00     0.180 A 
HETATM   35  N   UNL     1      16.866  52.618  50.349  1.00  0.00    -0.224 NA
BRANCH  34  36
HETATM   36  C   UNL     1      14.960  54.272  50.222  1.00  0.00     0.019 A 
HETATM   37  C   UNL     1      14.567  55.153  49.205  1.00  0.00     0.039 A 
HETATM   38  C   UNL     1      13.866  56.320  49.513  1.00  0.00     0.035 A 
HETATM   39 CL   UNL     1      13.406  57.389  48.247  1.00  0.00    -0.084 Cl
HETATM   40  C   UNL     1      13.542  56.626  50.832  1.00  0.00     0.024 A 
HETATM   41  C   UNL     1      13.923  55.759  51.853  1.00  0.00     0.003 A 
HETATM   42  C   UNL     1      14.628  54.590  51.550  1.00  0.00     0.016 A 
ENDBRANCH  34  36
ENDBRANCH  29  30
ENDBRANCH   1  29
TORSDOF 9
ENDMDL
MODEL 8
REMARK VINA RESULT:      -9.2      7.830     10.906
REMARK  9 active torsions:
REMARK  status: ('A' for Active; 'I' for Inactive)
REMARK    1  A    between atoms: C_4  and  C_5 
REMARK    2  A    between atoms: C_13  and  C_14 
REMARK    3  A    between atoms: C_14  and  N_15 
REMARK    4  A    between atoms: C_19  and  C_20 
REMARK       I    between atoms: C_20  and  N_21 
REMARK    5  A    between atoms: N_21  and  C_22 
REMARK    6  A    between atoms: C_22  and  C_23 
REMARK    7  A    between atoms: C_23  and  C_24 
REMARK    8  A    between atoms: C_24  and  N_25 
REMARK    9  A    between atoms: N_29  and  C_30 
ROOT
HETATM    1  N   UNL     1      28.168  40.472  50.058  1.00  0.00    -0.066 N 
HETATM    2  H   UNL     1      29.024  41.040  50.149  1.00  0.00     0.280 HD
HETATM    3  C   UNL     1      28.585  39.032  50.216  1.00  0.00     0.236 C 
HETATM    4  C   UNL     1      29.410  38.579  49.012  1.00  0.00     0.042 C 
HETATM    5  C   UNL     1      28.658  38.774  47.695  1.00  0.00     0.081 C 
HETATM    6  C   UNL     1      28.238  40.237  47.556  1.00  0.00     0.042 C 
HETATM    7  C   UNL     1      27.479  40.784  48.757  1.00  0.00     0.236 C 
ENDROOT
BRANCH   5   8
HETATM    8  C   UNL     1      27.473  37.810  47.654  1.00  0.00     0.221 C 
HETATM    9  N   UNL     1      26.630  37.978  46.580  1.00  0.00    -0.361 N 
HETATM   10  H   UNL     1      26.815  38.731  45.922  1.00  0.00     0.162 HD
HETATM   11  O   UNL     1      27.358  36.884  48.452  1.00  0.00    -0.273 OA
BRANCH   9  12
HETATM   12  C   UNL     1      25.670  36.962  46.185  1.00  0.00     0.124 C 
BRANCH  12  13
HETATM   13  C   UNL     1      24.342  37.019  46.948  1.00  0.00     0.047 C 
BRANCH  13  14
HETATM   14  C   UNL     1      23.894  35.604  47.312  1.00  0.00     0.236 C 
BRANCH  14  15
HETATM   15  N   UNL     1      22.609  35.596  48.112  1.00  0.00    -0.068 N 
HETATM   16  H   UNL     1      22.713  36.222  48.922  1.00  0.00     0.280 HD
HETATM   17  C   UNL     1      21.452  36.167  47.264  1.00  0.00     0.254 C 
HETATM   18  C   UNL     1      20.115  36.133  48.035  1.00  0.00     0.150 C 
HETATM   19  N   UNL     1      19.829  34.784  48.554  1.00  0.00    -0.378 N 
HETATM   20  C   UNL     1      20.896  34.246  49.419  1.00  0.00     0.150 C 
HETATM   21  C   UNL     1      22.237  34.203  48.653  1.00  0.00     0.254 C 
BRANCH  19  22
HETATM   22  C   UNL     1      19.094  33.864  47.801  1.00  0.00     0.031 A 
HETATM   23  C   UNL     1      18.820  32.557  48.230  1.00  0.00     0.053 A 
HETATM   24  C   UNL     1      18.068  31.672  47.446  1.00  0.00     0.036 A 
HETATM   25 CL   UNL     1      17.725  30.095  48.049  1.00  0.00    -0.084 Cl
HETATM   26  C   UNL     1      17.589  32.054  46.201  1.00  0.00     0.024 A 
HETATM   27  C   UNL     1      17.875  33.330  45.733  1.00  0.00     0.004 A 
HETATM   28  C   UNL     1      18.620  34.215  46.523  1.00  0.00     0.029 A 
ENDBRANCH  19  22
ENDBRANCH  14  15
ENDBRANCH  13  14
ENDBRANCH  12  13
ENDBRANCH   9  12
ENDBRANCH   5   8
BRANCH   1  29
HETATM   29  C   UNL     1      27.285  40.939  51.213  1.00  0.00     0.296 C 
BRANCH  29  30
HETATM   30  C   UNL     1      27.711  42.197  51.874  1.00  0.00     0.092 A 
HETATM   31  C   UNL     1      27.567  43.492  51.426  1.00  0.00     0.078 A 
HETATM   32  C   UNL     1      26.992  44.128  50.227  1.00  0.00     0.079 C 
HETATM   33  O   UNL     1      28.101  44.318  52.368  1.00  0.00    -0.294 OA
HETATM   34  C   UNL     1      28.561  43.482  53.351  1.00  0.00     0.180 A 
HETATM   35  N   UNL     1      28.348  42.197  53.101  1.00  0.00    -0.224 NA
BRANCH  34  36
HETATM   36  C   UNL     1      29.175  44.124  54.510  1.00  0.00     0.019 A 
HETATM   37  C   UNL     1      30.228  43.487  55.182  1.00  0.00     0.039 A 
HETATM   38  C   UNL     1      30.816  44.084  56.299  1.00  0.00     0.035 A 
HETATM   39 CL   UNL     1      32.098  43.277  57.112  1.00  0.00    -0.084 Cl
HETATM   40  C   UNL     1      30.371  45.320  56.761  1.00  0.00     0.024 A 
HETATM   41  C   UNL     1      29.328  45.965  56.102  1.00  0.00     0.003 A 
HETATM   42  C   UNL     1      28.734  45.370  54.984  1.00  0.00     0.016 A 
ENDBRANCH  34  36
ENDBRANCH  29  30
ENDBRANCH   1  29
TORSDOF 9
ENDMDL
MODEL 9
REMARK VINA RESULT:      -9.1      4.291     11.519
REMARK  9 active torsions:
REMARK  status: ('A' for Active; 'I' for Inactive)
REMARK    1  A    between atoms: C_4  and  C_5 
REMARK    2  A    between atoms: C_13  and  C_14 
REMARK    3  A    between atoms: C_14  and  N_15 
REMARK    4  A    between atoms: C_19  and  C_20 
REMARK       I    between atoms: C_20  and  N_21 
REMARK    5  A    between atoms: N_21  and  C_22 
REMARK    6  A    between atoms: C_22  and  C_23 
REMARK    7  A    between atoms: C_23  and  C_24 
REMARK    8  A    between atoms: C_24  and  N_25 
REMARK    9  A    between atoms: N_29  and  C_30 
ROOT
HETATM    1  N   UNL     1      25.373  46.483  51.256  1.00  0.00    -0.066 N 
HETATM    2  H   UNL     1      24.414  46.839  51.385  1.00  0.00     0.280 HD
HETATM    3  C   UNL     1      25.249  45.029  50.879  1.00  0.00     0.236 C 
HETATM    4  C   UNL     1      24.753  44.209  52.069  1.00  0.00     0.042 C 
HETATM    5  C   UNL     1      25.657  44.367  53.292  1.00  0.00     0.081 C 
HETATM    6  C   UNL     1      25.776  45.848  53.654  1.00  0.00     0.042 C 
HETATM    7  C   UNL     1      26.190  46.741  52.492  1.00  0.00     0.236 C 
ENDROOT
BRANCH   5   8
HETATM    8  C   UNL     1      27.008  43.718  52.996  1.00  0.00     0.221 C 
HETATM    9  N   UNL     1      26.937  42.487  52.389  1.00  0.00    -0.361 N 
HETATM   10  H   UNL     1      26.022  42.076  52.215  1.00  0.00     0.162 HD
HETATM   11  O   UNL     1      28.069  44.310  53.177  1.00  0.00    -0.273 OA
BRANCH   9  12
HETATM   12  C   UNL     1      28.080  41.883  51.728  1.00  0.00     0.124 C 
BRANCH  12  13
HETATM   13  C   UNL     1      27.718  40.810  50.696  1.00  0.00     0.047 C 
BRANCH  13  14
HETATM   14  C   UNL     1      26.210  40.562  50.716  1.00  0.00     0.236 C 
BRANCH  14  15
HETATM   15  N   UNL     1      25.745  39.743  49.531  1.00  0.00    -0.068 N 
HETATM   16  H   UNL     1      24.939  39.170  49.813  1.00  0.00     0.280 HD
HETATM   17  C   UNL     1      25.245  40.675  48.405  1.00  0.00     0.254 C 
HETATM   18  C   UNL     1      24.804  39.873  47.162  1.00  0.00     0.150 C 
HETATM   19  N   UNL     1      25.863  38.953  46.712  1.00  0.00    -0.378 N 
HETATM   20  C   UNL     1      26.310  38.012  47.757  1.00  0.00     0.150 C 
HETATM   21  C   UNL     1      26.823  38.786  48.992  1.00  0.00     0.254 C 
BRANCH  19  22
HETATM   22  C   UNL     1      26.812  39.354  45.768  1.00  0.00     0.031 A 
HETATM   23  C   UNL     1      27.792  38.499  45.244  1.00  0.00     0.053 A 
HETATM   24  C   UNL     1      28.716  38.942  44.288  1.00  0.00     0.036 A 
HETATM   25 CL   UNL     1      29.865  37.831  43.649  1.00  0.00    -0.084 Cl
HETATM   26  C   UNL     1      28.707  40.257  43.846  1.00  0.00     0.024 A 
HETATM   27  C   UNL     1      27.772  41.138  44.373  1.00  0.00     0.004 A 
HETATM   28  C   UNL     1      26.844  40.690  45.322  1.00  0.00     0.029 A 
ENDBRANCH  19  22
ENDBRANCH  14  15
ENDBRANCH  13  14
ENDBRANCH  12  13
ENDBRANCH   9  12
ENDBRANCH   5   8
BRANCH   1  29
HETATM   29  C   UNL     1      25.932  47.322  50.108  1.00  0.00     0.296 C 
BRANCH  29  30
HETATM   30  C   UNL     1      25.005  48.339  49.551  1.00  0.00     0.092 A 
HETATM   31  C   UNL     1      25.298  49.407  48.731  1.00  0.00     0.078 A 
HETATM   32  C   UNL     1      26.522  49.951  48.116  1.00  0.00     0.079 C 
HETATM   33  O   UNL     1      24.132  50.060  48.470  1.00  0.00    -0.294 OA
HETATM   34  C   UNL     1      23.174  49.362  49.158  1.00  0.00     0.180 A 
HETATM   35  N   UNL     1      23.650  48.317  49.821  1.00  0.00    -0.224 NA
BRANCH  34  36
HETATM   36  C   UNL     1      21.804  49.850  49.032  1.00  0.00     0.019 A 
HETATM   37  C   UNL     1      20.730  48.972  49.235  1.00  0.00     0.039 A 
HETATM   38  C   UNL     1      19.415  49.422  49.105  1.00  0.00     0.035 A 
HETATM   39 CL   UNL     1      18.117  48.322  49.349  1.00  0.00    -0.084 Cl
HETATM   40  C   UNL     1      19.148  50.749  48.777  1.00  0.00     0.024 A 
HETATM   41  C   UNL     1      20.204  51.634  48.575  1.00  0.00     0.003 A 
HETATM   42  C   UNL     1      21.523  51.186  48.701  1.00  0.00     0.016 A 
ENDBRANCH  34  36
ENDBRANCH  29  30
ENDBRANCH   1  29
TORSDOF 9
ENDMDL
MODEL 10
REMARK VINA RESULT:      -9.1      4.139      7.299
REMARK  9 active torsions:
REMARK  status: ('A' for Active; 'I' for Inactive)
REMARK    1  A    between atoms: C_4  and  C_5 
REMARK    2  A    between atoms: C_13  and  C_14 
REMARK    3  A    between atoms: C_14  and  N_15 
REMARK    4  A    between atoms: C_19  and  C_20 
REMARK       I    between atoms: C_20  and  N_21 
REMARK    5  A    between atoms: N_21  and  C_22 
REMARK    6  A    between atoms: C_22  and  C_23 
REMARK    7  A    between atoms: C_23  and  C_24 
REMARK    8  A    between atoms: C_24  and  N_25 
REMARK    9  A    between atoms: N_29  and  C_30 
ROOT
HETATM    1  N   UNL     1      21.445  48.882  49.559  1.00  0.00    -0.066 N 
HETATM    2  H   UNL     1      21.752  48.608  50.505  1.00  0.00     0.280 HD
HETATM    3  C   UNL     1      21.635  50.374  49.458  1.00  0.00     0.236 C 
HETATM    4  C   UNL     1      20.634  51.103  50.353  1.00  0.00     0.042 C 
HETATM    5  C   UNL     1      19.189  50.727  50.023  1.00  0.00     0.081 C 
HETATM    6  C   UNL     1      19.018  49.211  50.125  1.00  0.00     0.042 C 
HETATM    7  C   UNL     1      20.035  48.413  49.320  1.00  0.00     0.236 C 
ENDROOT
BRANCH   5   8
HETATM    8  C   UNL     1      18.839  51.271  48.639  1.00  0.00     0.221 C 
HETATM    9  N   UNL     1      18.078  50.429  47.863  1.00  0.00    -0.361 N 
HETATM   10  H   UNL     1      17.835  49.510  48.226  1.00  0.00     0.162 HD
HETATM   11  O   UNL     1      19.114  52.420  48.302  1.00  0.00    -0.273 OA
BRANCH   9  12
HETATM   12  C   UNL     1      17.367  50.894  46.685  1.00  0.00     0.124 C 
BRANCH  12  13
HETATM   13  C   UNL     1      15.882  51.191  46.921  1.00  0.00     0.047 C 
BRANCH  13  14
HETATM   14  C   UNL     1      15.685  52.687  47.160  1.00  0.00     0.236 C 
BRANCH  14  15
HETATM   15  N   UNL     1      14.691  52.968  48.266  1.00  0.00    -0.068 N 
HETATM   16  H   UNL     1      14.010  52.198  48.309  1.00  0.00     0.280 HD
HETATM   17  C   UNL     1      15.410  52.992  49.632  1.00  0.00     0.254 C 
HETATM   18  C   UNL     1      14.432  53.320  50.780  1.00  0.00     0.150 C 
HETATM   19  N   UNL     1      13.680  54.558  50.509  1.00  0.00    -0.378 N 
HETATM   20  C   UNL     1      12.935  54.529  49.236  1.00  0.00     0.150 C 
HETATM   21  C   UNL     1      13.899  54.271  48.057  1.00  0.00     0.254 C 
BRANCH  19  22
HETATM   22  C   UNL     1      14.158  55.798  50.940  1.00  0.00     0.031 A 
HETATM   23  C   UNL     1      14.079  56.968  50.170  1.00  0.00     0.053 A 
HETATM   24  C   UNL     1      14.561  58.194  50.649  1.00  0.00     0.036 A 
HETATM   25 CL   UNL     1      14.392  59.604  49.674  1.00  0.00    -0.084 Cl
HETATM   26  C   UNL     1      15.158  58.286  51.897  1.00  0.00     0.024 A 
HETATM   27  C   UNL     1      15.284  57.138  52.669  1.00  0.00     0.004 A 
HETATM   28  C   UNL     1      14.794  55.915  52.191  1.00  0.00     0.029 A 
ENDBRANCH  19  22
ENDBRANCH  14  15
ENDBRANCH  13  14
ENDBRANCH  12  13
ENDBRANCH   9  12
ENDBRANCH   5   8
BRANCH   1  29
HETATM   29  C   UNL     1      22.386  48.123  48.626  1.00  0.00     0.296 C 
BRANCH  29  30
HETATM   30  C   UNL     1      23.726  47.815  49.182  1.00  0.00     0.092 A 
HETATM   31  C   UNL     1      24.883  48.559  49.094  1.00  0.00     0.078 A 
HETATM   32  C   UNL     1      25.257  49.845  48.478  1.00  0.00     0.079 C 
HETATM   33  O   UNL     1      25.860  47.885  49.761  1.00  0.00    -0.294 OA
HETATM   34  C   UNL     1      25.254  46.744  50.219  1.00  0.00     0.180 A 
HETATM   35  N   UNL     1      23.971  46.658  49.898  1.00  0.00    -0.224 NA
BRANCH  34  36
HETATM   36  C   UNL     1      26.091  45.836  50.997  1.00  0.00     0.019 A 
HETATM   37  C   UNL     1      26.193  45.998  52.386  1.00  0.00     0.039 A 
HETATM   38  C   UNL     1      26.999  45.144  53.139  1.00  0.00     0.035 A 
HETATM   39 CL   UNL     1      27.115  45.372  54.840  1.00  0.00    -0.084 Cl
HETATM   40  C   UNL     1      27.712  44.117  52.527  1.00  0.00     0.024 A 
HETATM   41  C   UNL     1      27.620  43.941  51.149  1.00  0.00     0.003 A 
HETATM   42  C   UNL     1      26.815  44.796  50.389  1.00  0.00     0.016 A 
ENDBRANCH  34  36
ENDBRANCH  29  30
ENDBRANCH   1  29
TORSDOF 9
ENDMDL
