MODEL 1
REMARK VINA RESULT:      -9.3      0.000      0.000
REMARK  6 active torsions:
REMARK  status: ('A' for Active; 'I' for Inactive)
REMARK    1  A    between atoms: C_9  and  C_10 
REMARK    2  A    between atoms: C_10  and  N_11 
REMARK       I    between atoms: N_11  and  C_12 
REMARK    3  A    between atoms: N_11  and  C_22 
REMARK    4  A    between atoms: C_12  and  C_13 
REMARK    5  A    between atoms: C_16  and  O_17 
REMARK    6  A    between atoms: C_22  and  C_23 
ROOT
HETATM    1  N   UNL     1      26.034  44.824  51.154  1.00  0.00    -0.341 N 
HETATM    2  C   UNL     1      25.505  46.070  51.496  1.00  0.00     0.254 C 
HETATM    3  O   UNL     1      25.091  46.344  52.621  1.00  0.00    -0.267 OA
ENDROOT
BRANCH   1   4
HETATM    4  C   UNL     1      26.067  43.792  52.203  1.00  0.00     0.170 C 
BRANCH   4   5
HETATM    5  C   UNL     1      27.305  43.821  53.062  1.00  0.00     0.029 A 
HETATM    6  C   UNL     1      28.312  42.774  52.687  1.00  0.00     0.253 A 
HETATM    7  N   UNL     1      29.469  42.720  53.416  1.00  0.00    -0.322 N 
HETATM    8  O   UNL     1      28.118  41.984  51.768  1.00  0.00    -0.268 OA
HETATM    9  C   UNL     1      29.739  43.553  54.506  1.00  0.00     0.045 A 
HETATM   10  H   UNL     1      30.126  42.004  53.145  1.00  0.00     0.169 HD
HETATM   11  C   UNL     1      28.800  44.521  54.872  1.00  0.00    -0.008 A 
HETATM   12  C   UNL     1      30.924  43.397  55.222  1.00  0.00     0.031 A 
HETATM   13  C   UNL     1      29.052  45.332  55.984  1.00  0.00     0.020 A 
HETATM   14  C   UNL     1      27.567  44.647  54.093  1.00  0.00     0.028 A 
HETATM   15  C   UNL     1      30.229  45.168  56.731  1.00  0.00    -0.061 A 
HETATM   16  C   UNL     1      30.505  46.039  57.923  1.00  0.00     0.048 C 
HETATM   17  C   UNL     1      31.169  44.209  56.330  1.00  0.00     0.009 A 
ENDBRANCH   4   5
ENDBRANCH   1   4
BRANCH   1  18
HETATM   18  C   UNL     1      26.221  44.349  49.769  1.00  0.00     0.158 C 
BRANCH  18  19
HETATM   19  C   UNL     1      25.420  43.083  49.439  1.00  0.00     0.139 C 
HETATM   20  O   UNL     1      24.358  43.351  48.507  1.00  0.00    -0.384 OA
HETATM   21  C   UNL     1      24.204  42.214  47.645  1.00  0.00     0.168 C 
HETATM   22  C   UNL     1      25.217  41.177  48.086  1.00  0.00     0.029 C 
HETATM   23  C   UNL     1      26.269  42.018  48.764  1.00  0.00     0.035 C 
ENDBRANCH  18  19
ENDBRANCH   1  18
BRANCH   2  24
HETATM   24  C   UNL     1      25.436  47.146  50.481  1.00  0.00     0.032 A 
HETATM   25  C   UNL     1      24.185  47.498  49.969  1.00  0.00     0.020 A 
HETATM   26  C   UNL     1      24.086  48.529  49.033  1.00  0.00     0.038 A 
HETATM   27  C   UNL     1      25.224  49.222  48.612  1.00  0.00     0.068 A 
HETATM   28  C   UNL     1      26.469  48.887  49.148  1.00  0.00     0.038 A 
HETATM   29  C   UNL     1      26.575  47.858  50.093  1.00  0.00     0.020 A 
BRANCH  27  30
HETATM   30  O   UNL     1      24.982  50.204  47.690  1.00  0.00    -0.356 OA
HETATM   31  C   UNL     1      23.694  50.805  47.706  1.00  0.00     0.210 C 
ENDBRANCH  27  30
ENDBRANCH   2  24
TORSDOF 6
ENDMDL
MODEL 2
REMARK VINA RESULT:      -9.2      2.022      5.287
REMARK  6 active torsions:
REMARK  status: ('A' for Active; 'I' for Inactive)
REMARK    1  A    between atoms: C_9  and  C_10 
REMARK    2  A    between atoms: C_10  and  N_11 
REMARK       I    between atoms: N_11  and  C_12 
REMARK    3  A    between atoms: N_11  and  C_22 
REMARK    4  A    between atoms: C_12  and  C_13 
REMARK    5  A    between atoms: C_16  and  O_17 
REMARK    6  A    between atoms: C_22  and  C_23 
ROOT
HETATM    1  N   UNL     1      25.740  45.636  51.888  1.00  0.00    -0.341 N 
HETATM    2  C   UNL     1      25.118  44.415  52.158  1.00  0.00     0.254 C 
HETATM    3  O   UNL     1      24.566  44.158  53.226  1.00  0.00    -0.267 OA
ENDROOT
BRANCH   1   4
HETATM    4  C   UNL     1      25.744  46.645  52.959  1.00  0.00     0.170 C 
BRANCH   4   5
HETATM    5  C   UNL     1      26.752  46.388  54.050  1.00  0.00     0.029 A 
HETATM    6  C   UNL     1      26.672  47.376  55.176  1.00  0.00     0.253 A 
HETATM    7  N   UNL     1      27.553  47.225  56.213  1.00  0.00    -0.322 N 
HETATM    8  O   UNL     1      25.857  48.294  55.179  1.00  0.00    -0.268 OA
HETATM    9  C   UNL     1      28.539  46.236  56.255  1.00  0.00     0.045 A 
HETATM   10  H   UNL     1      27.480  47.907  56.953  1.00  0.00     0.169 HD
HETATM   11  C   UNL     1      28.630  45.320  55.203  1.00  0.00    -0.008 A 
HETATM   12  C   UNL     1      29.425  46.184  57.329  1.00  0.00     0.031 A 
HETATM   13  C   UNL     1      29.639  44.351  55.226  1.00  0.00     0.020 A 
HETATM   14  C   UNL     1      27.680  45.413  54.094  1.00  0.00     0.028 A 
HETATM   15  C   UNL     1      30.556  44.304  56.288  1.00  0.00    -0.061 A 
HETATM   16  C   UNL     1      31.637  43.263  56.319  1.00  0.00     0.048 C 
HETATM   17  C   UNL     1      30.429  45.215  57.346  1.00  0.00     0.009 A 
ENDBRANCH   4   5
ENDBRANCH   1   4
BRANCH   1  18
HETATM   18  C   UNL     1      26.688  45.861  50.779  1.00  0.00     0.158 C 
BRANCH  18  19
HETATM   19  C   UNL     1      26.140  46.774  49.675  1.00  0.00     0.139 C 
HETATM   20  O   UNL     1      24.712  46.919  49.764  1.00  0.00    -0.384 OA
HETATM   21  C   UNL     1      24.359  48.253  49.369  1.00  0.00     0.168 C 
HETATM   22  C   UNL     1      25.644  48.964  48.994  1.00  0.00     0.029 C 
HETATM   23  C   UNL     1      26.681  48.191  49.771  1.00  0.00     0.035 C 
ENDBRANCH  18  19
ENDBRANCH   1  18
BRANCH   2  24
HETATM   24  C   UNL     1      25.090  43.357  51.122  1.00  0.00     0.032 A 
HETATM   25  C   UNL     1      26.072  42.364  51.159  1.00  0.00     0.020 A 
HETATM   26  C   UNL     1      26.053  41.337  50.214  1.00  0.00     0.038 A 
HETATM   27  C   UNL     1      25.054  41.283  49.239  1.00  0.00     0.068 A 
HETATM   28  C   UNL     1      24.056  42.260  49.224  1.00  0.00     0.038 A 
HETATM   29  C   UNL     1      24.065  43.290  50.174  1.00  0.00     0.020 A 
BRANCH  27  30
HETATM   30  O   UNL     1      25.159  40.226  48.376  1.00  0.00    -0.356 OA
HETATM   31  C   UNL     1      26.444  39.638  48.226  1.00  0.00     0.210 C 
ENDBRANCH  27  30
ENDBRANCH   2  24
TORSDOF 6
ENDMDL
MODEL 3
REMARK VINA RESULT:      -8.6      2.344      7.453
REMARK  6 active torsions:
REMARK  status: ('A' for Active; 'I' for Inactive)
REMARK    1  A    between atoms: C_9  and  C_10 
REMARK    2  A    between atoms: C_10  and  N_11 
REMARK       I    between atoms: N_11  and  C_12 
REMARK    3  A    between atoms: N_11  and  C_22 
REMARK    4  A    between atoms: C_12  and  C_13 
REMARK    5  A    between atoms: C_16  and  O_17 
REMARK    6  A    between atoms: C_22  and  C_23 
ROOT
HETATM    1  N   UNL     1      26.068  43.170  51.859  1.00  0.00    -0.341 N 
HETATM    2  C   UNL     1      26.146  43.709  53.145  1.00  0.00     0.254 C 
HETATM    3  O   UNL     1      25.165  44.095  53.779  1.00  0.00    -0.267 OA
ENDROOT
BRANCH   1   4
HETATM    4  C   UNL     1      24.736  43.090  51.239  1.00  0.00     0.170 C 
BRANCH   4   5
HETATM    5  C   UNL     1      24.292  44.357  50.555  1.00  0.00     0.029 A 
HETATM    6  C   UNL     1      22.937  44.245  49.920  1.00  0.00     0.253 A 
HETATM    7  N   UNL     1      22.452  45.347  49.269  1.00  0.00    -0.322 N 
HETATM    8  O   UNL     1      22.281  43.209  49.966  1.00  0.00    -0.268 OA
HETATM    9  C   UNL     1      23.162  46.543  49.133  1.00  0.00     0.045 A 
HETATM   10  H   UNL     1      21.542  45.241  48.847  1.00  0.00     0.169 HD
HETATM   11  C   UNL     1      24.430  46.652  49.709  1.00  0.00    -0.008 A 
HETATM   12  C   UNL     1      22.609  47.601  48.413  1.00  0.00     0.031 A 
HETATM   13  C   UNL     1      25.158  47.835  49.543  1.00  0.00     0.020 A 
HETATM   14  C   UNL     1      24.973  45.514  50.454  1.00  0.00     0.028 A 
HETATM   15  C   UNL     1      24.625  48.899  48.798  1.00  0.00    -0.061 A 
HETATM   16  C   UNL     1      25.400  50.173  48.622  1.00  0.00     0.048 C 
HETATM   17  C   UNL     1      23.340  48.778  48.251  1.00  0.00     0.009 A 
ENDBRANCH   4   5
ENDBRANCH   1   4
BRANCH   1  18
HETATM   18  C   UNL     1      27.219  43.016  50.948  1.00  0.00     0.158 C 
BRANCH  18  19
HETATM   19  C   UNL     1      27.165  41.741  50.097  1.00  0.00     0.139 C 
HETATM   20  O   UNL     1      27.500  42.002  48.723  1.00  0.00    -0.384 OA
HETATM   21  C   UNL     1      28.214  40.871  48.201  1.00  0.00     0.168 C 
HETATM   22  C   UNL     1      28.304  39.846  49.313  1.00  0.00     0.029 C 
HETATM   23  C   UNL     1      28.172  40.697  50.551  1.00  0.00     0.035 C 
ENDBRANCH  18  19
ENDBRANCH   1  18
BRANCH   2  24
HETATM   24  C   UNL     1      27.461  43.824  53.818  1.00  0.00     0.032 A 
HETATM   25  C   UNL     1      27.796  45.040  54.418  1.00  0.00     0.020 A 
HETATM   26  C   UNL     1      29.015  45.169  55.086  1.00  0.00     0.038 A 
HETATM   27  C   UNL     1      29.899  44.090  55.171  1.00  0.00     0.068 A 
HETATM   28  C   UNL     1      29.547  42.867  54.596  1.00  0.00     0.038 A 
HETATM   29  C   UNL     1      28.322  42.729  53.930  1.00  0.00     0.020 A 
BRANCH  27  30
HETATM   30  O   UNL     1      31.057  44.358  55.850  1.00  0.00    -0.356 OA
HETATM   31  C   UNL     1      31.456  43.424  56.843  1.00  0.00     0.210 C 
ENDBRANCH  27  30
ENDBRANCH   2  24
TORSDOF 6
ENDMDL
MODEL 4
REMARK VINA RESULT:      -8.4      2.685      5.367
REMARK  6 active torsions:
REMARK  status: ('A' for Active; 'I' for Inactive)
REMARK    1  A    between atoms: C_9  and  C_10 
REMARK    2  A    between atoms: C_10  and  N_11 
REMARK       I    between atoms: N_11  and  C_12 
REMARK    3  A    between atoms: N_11  and  C_22 
REMARK    4  A    between atoms: C_12  and  C_13 
REMARK    5  A    between atoms: C_16  and  O_17 
REMARK    6  A    between atoms: C_22  and  C_23 
ROOT
HETATM    1  N   UNL     1      26.292  44.211  51.789  1.00  0.00    -0.341 N 
HETATM    2  C   UNL     1      27.172  43.725  50.819  1.00  0.00     0.254 C 
HETATM    3  O   UNL     1      28.158  44.347  50.427  1.00  0.00    -0.267 OA
ENDROOT
BRANCH   1   4
HETATM    4  C   UNL     1      26.564  45.548  52.340  1.00  0.00     0.170 C 
BRANCH   4   5
HETATM    5  C   UNL     1      27.387  45.544  53.602  1.00  0.00     0.029 A 
HETATM    6  C   UNL     1      27.061  46.679  54.527  1.00  0.00     0.253 A 
HETATM    7  N   UNL     1      27.762  46.761  55.700  1.00  0.00    -0.322 N 
HETATM    8  O   UNL     1      26.205  47.516  54.254  1.00  0.00    -0.268 OA
HETATM    9  C   UNL     1      28.784  45.876  56.056  1.00  0.00     0.045 A 
HETATM   10  H   UNL     1      27.526  47.537  56.299  1.00  0.00     0.169 HD
HETATM   11  C   UNL     1      29.104  44.823  55.194  1.00  0.00    -0.008 A 
HETATM   12  C   UNL     1      29.478  46.061  57.250  1.00  0.00     0.031 A 
HETATM   13  C   UNL     1      30.150  43.958  55.531  1.00  0.00     0.020 A 
HETATM   14  C   UNL     1      28.350  44.669  53.949  1.00  0.00     0.028 A 
HETATM   15  C   UNL     1      30.877  44.148  56.717  1.00  0.00    -0.061 A 
HETATM   16  C   UNL     1      31.996  43.218  57.085  1.00  0.00     0.048 C 
HETATM   17  C   UNL     1      30.520  45.194  57.580  1.00  0.00     0.009 A 
ENDBRANCH   4   5
ENDBRANCH   1   4
BRANCH   1  18
HETATM   18  C   UNL     1      24.942  43.668  52.037  1.00  0.00     0.158 C 
BRANCH  18  19
HETATM   19  C   UNL     1      23.889  44.152  51.033  1.00  0.00     0.139 C 
HETATM   20  O   UNL     1      24.458  45.026  50.042  1.00  0.00    -0.384 OA
HETATM   21  C   UNL     1      23.794  44.799  48.791  1.00  0.00     0.168 C 
HETATM   22  C   UNL     1      22.738  43.738  49.031  1.00  0.00     0.029 C 
HETATM   23  C   UNL     1      23.277  43.011  50.237  1.00  0.00     0.035 C 
ENDBRANCH  18  19
ENDBRANCH   1  18
BRANCH   2  24
HETATM   24  C   UNL     1      26.946  42.389  50.221  1.00  0.00     0.032 A 
HETATM   25  C   UNL     1      26.549  42.319  48.884  1.00  0.00     0.020 A 
HETATM   26  C   UNL     1      26.358  41.073  48.284  1.00  0.00     0.038 A 
HETATM   27  C   UNL     1      26.571  39.894  49.004  1.00  0.00     0.068 A 
HETATM   28  C   UNL     1      26.997  39.969  50.332  1.00  0.00     0.038 A 
HETATM   29  C   UNL     1      27.197  41.216  50.938  1.00  0.00     0.020 A 
BRANCH  27  30
HETATM   30  O   UNL     1      26.343  38.747  48.295  1.00  0.00    -0.356 OA
HETATM   31  C   UNL     1      27.437  37.854  48.136  1.00  0.00     0.210 C 
ENDBRANCH  27  30
ENDBRANCH   2  24
TORSDOF 6
ENDMDL
MODEL 5
REMARK VINA RESULT:      -8.3      3.190      9.034
REMARK  6 active torsions:
REMARK  status: ('A' for Active; 'I' for Inactive)
REMARK    1  A    between atoms: C_9  and  C_10 
REMARK    2  A    between atoms: C_10  and  N_11 
REMARK       I    between atoms: N_11  and  C_12 
REMARK    3  A    between atoms: N_11  and  C_22 
REMARK    4  A    between atoms: C_12  and  C_13 
REMARK    5  A    between atoms: C_16  and  O_17 
REMARK    6  A    between atoms: C_22  and  C_23 
ROOT
HETATM    1  N   UNL     1      24.081  45.857  49.559  1.00  0.00    -0.341 N 
HETATM    2  C   UNL     1      24.240  44.678  50.292  1.00  0.00     0.254 C 
HETATM    3  O   UNL     1      23.630  43.640  50.045  1.00  0.00    -0.267 OA
ENDROOT
BRANCH   1   4
HETATM    4  C   UNL     1      23.111  45.840  48.453  1.00  0.00     0.170 C 
BRANCH   4   5
HETATM    5  C   UNL     1      21.913  46.730  48.664  1.00  0.00     0.029 A 
HETATM    6  C   UNL     1      20.664  45.973  49.007  1.00  0.00     0.253 A 
HETATM    7  N   UNL     1      19.522  46.698  49.212  1.00  0.00    -0.322 N 
HETATM    8  O   UNL     1      20.649  44.749  49.095  1.00  0.00    -0.268 OA
HETATM    9  C   UNL     1      19.451  48.088  49.080  1.00  0.00     0.045 A 
HETATM   10  H   UNL     1      18.696  46.163  49.435  1.00  0.00     0.169 HD
HETATM   11  C   UNL     1      20.607  48.800  48.748  1.00  0.00    -0.008 A 
HETATM   12  C   UNL     1      18.234  48.742  49.263  1.00  0.00     0.031 A 
HETATM   13  C   UNL     1      20.531  50.187  48.580  1.00  0.00     0.020 A 
HETATM   14  C   UNL     1      21.863  48.072  48.563  1.00  0.00     0.028 A 
HETATM   15  C   UNL     1      19.306  50.856  48.734  1.00  0.00    -0.061 A 
HETATM   16  C   UNL     1      19.221  52.345  48.560  1.00  0.00     0.048 C 
HETATM   17  C   UNL     1      18.165  50.125  49.094  1.00  0.00     0.009 A 
ENDBRANCH   4   5
ENDBRANCH   1   4
BRANCH   1  18
HETATM   18  C   UNL     1      24.521  47.189  50.017  1.00  0.00     0.158 C 
BRANCH  18  19
HETATM   19  C   UNL     1      25.668  47.778  49.186  1.00  0.00     0.139 C 
HETATM   20  O   UNL     1      25.313  49.046  48.609  1.00  0.00    -0.384 OA
HETATM   21  C   UNL     1      26.477  49.885  48.588  1.00  0.00     0.168 C 
HETATM   22  C   UNL     1      27.622  49.077  49.166  1.00  0.00     0.029 C 
HETATM   23  C   UNL     1      26.904  48.065  50.023  1.00  0.00     0.035 C 
ENDBRANCH  18  19
ENDBRANCH   1  18
BRANCH   2  24
HETATM   24  C   UNL     1      25.195  44.637  51.423  1.00  0.00     0.032 A 
HETATM   25  C   UNL     1      24.691  44.726  52.723  1.00  0.00     0.020 A 
HETATM   26  C   UNL     1      25.564  44.659  53.810  1.00  0.00     0.038 A 
HETATM   27  C   UNL     1      26.937  44.490  53.612  1.00  0.00     0.068 A 
HETATM   28  C   UNL     1      27.434  44.372  52.312  1.00  0.00     0.038 A 
HETATM   29  C   UNL     1      26.562  44.432  51.218  1.00  0.00     0.020 A 
BRANCH  27  30
HETATM   30  O   UNL     1      27.675  44.446  54.764  1.00  0.00    -0.356 OA
HETATM   31  C   UNL     1      28.769  45.346  54.868  1.00  0.00     0.210 C 
ENDBRANCH  27  30
ENDBRANCH   2  24
TORSDOF 6
ENDMDL
MODEL 6
REMARK VINA RESULT:      -8.3      4.251      6.757
REMARK  6 active torsions:
REMARK  status: ('A' for Active; 'I' for Inactive)
REMARK    1  A    between atoms: C_9  and  C_10 
REMARK    2  A    between atoms: C_10  and  N_11 
REMARK       I    between atoms: N_11  and  C_12 
REMARK    3  A    between atoms: N_11  and  C_22 
REMARK    4  A    between atoms: C_12  and  C_13 
REMARK    5  A    between atoms: C_16  and  O_17 
REMARK    6  A    between atoms: C_22  and  C_23 
ROOT
HETATM    1  N   UNL     1      21.601  47.821  48.264  1.00  0.00    -0.341 N 
HETATM    2  C   UNL     1      21.891  49.172  48.062  1.00  0.00     0.254 C 
HETATM    3  O   UNL     1      22.971  49.576  47.635  1.00  0.00    -0.267 OA
ENDROOT
BRANCH   1   4
HETATM    4  C   UNL     1      22.665  46.849  47.967  1.00  0.00     0.170 C 
BRANCH   4   5
HETATM    5  C   UNL     1      23.399  46.342  49.182  1.00  0.00     0.029 A 
HETATM    6  C   UNL     1      23.110  44.902  49.491  1.00  0.00     0.253 A 
HETATM    7  N   UNL     1      23.729  44.354  50.582  1.00  0.00    -0.322 N 
HETATM    8  O   UNL     1      22.344  44.231  48.807  1.00  0.00    -0.268 OA
HETATM    9  C   UNL     1      24.574  45.069  51.436  1.00  0.00     0.045 A 
HETATM   10  H   UNL     1      23.512  43.387  50.769  1.00  0.00     0.169 HD
HETATM   11  C   UNL     1      24.838  46.414  51.163  1.00  0.00    -0.008 A 
HETATM   12  C   UNL     1      25.127  44.442  52.551  1.00  0.00     0.031 A 
HETATM   13  C   UNL     1      25.655  47.141  52.036  1.00  0.00     0.020 A 
HETATM   14  C   UNL     1      24.234  47.032  49.981  1.00  0.00     0.028 A 
HETATM   15  C   UNL     1      26.196  46.531  53.178  1.00  0.00    -0.061 A 
HETATM   16  C   UNL     1      27.077  47.306  54.115  1.00  0.00     0.048 C 
HETATM   17  C   UNL     1      25.940  45.173  53.417  1.00  0.00     0.009 A 
ENDBRANCH   4   5
ENDBRANCH   1   4
BRANCH   1  18
HETATM   18  C   UNL     1      20.474  47.322  49.077  1.00  0.00     0.158 C 
BRANCH  18  19
HETATM   19  C   UNL     1      19.148  47.248  48.310  1.00  0.00     0.139 C 
HETATM   20  O   UNL     1      18.743  45.888  48.073  1.00  0.00    -0.384 OA
HETATM   21  C   UNL     1      17.312  45.814  48.147  1.00  0.00     0.168 C 
HETATM   22  C   UNL     1      16.804  47.215  48.424  1.00  0.00     0.029 C 
HETATM   23  C   UNL     1      17.994  47.867  49.082  1.00  0.00     0.035 C 
ENDBRANCH  18  19
ENDBRANCH   1  18
BRANCH   2  24
HETATM   24  C   UNL     1      20.863  50.198  48.351  1.00  0.00     0.032 A 
HETATM   25  C   UNL     1      20.002  50.585  47.322  1.00  0.00     0.020 A 
HETATM   26  C   UNL     1      19.003  51.528  47.573  1.00  0.00     0.038 A 
HETATM   27  C   UNL     1      18.847  52.079  48.848  1.00  0.00     0.068 A 
HETATM   28  C   UNL     1      19.691  51.667  49.882  1.00  0.00     0.038 A 
HETATM   29  C   UNL     1      20.690  50.717  49.638  1.00  0.00     0.020 A 
BRANCH  27  30
HETATM   30  O   UNL     1      17.833  52.991  48.951  1.00  0.00    -0.356 OA
HETATM   31  C   UNL     1      16.825  52.735  49.920  1.00  0.00     0.210 C 
ENDBRANCH  27  30
ENDBRANCH   2  24
TORSDOF 6
ENDMDL
MODEL 7
REMARK VINA RESULT:      -8.3      1.715      2.213
REMARK  6 active torsions:
REMARK  status: ('A' for Active; 'I' for Inactive)
REMARK    1  A    between atoms: C_9  and  C_10 
REMARK    2  A    between atoms: C_10  and  N_11 
REMARK       I    between atoms: N_11  and  C_12 
REMARK    3  A    between atoms: N_11  and  C_22 
REMARK    4  A    between atoms: C_12  and  C_13 
REMARK    5  A    between atoms: C_16  and  O_17 
REMARK    6  A    between atoms: C_22  and  C_23 
ROOT
HETATM    1  N   UNL     1      25.661  43.119  50.454  1.00  0.00    -0.341 N 
HETATM    2  C   UNL     1      24.596  43.885  50.937  1.00  0.00     0.254 C 
HETATM    3  O   UNL     1      24.082  43.710  52.039  1.00  0.00    -0.267 OA
ENDROOT
BRANCH   1   4
HETATM    4  C   UNL     1      26.161  42.038  51.317  1.00  0.00     0.170 C 
BRANCH   4   5
HETATM    5  C   UNL     1      27.299  42.440  52.219  1.00  0.00     0.029 A 
HETATM    6  C   UNL     1      28.508  41.562  52.078  1.00  0.00     0.253 A 
HETATM    7  N   UNL     1      29.592  41.848  52.862  1.00  0.00    -0.322 N 
HETATM    8  O   UNL     1      28.535  40.613  51.299  1.00  0.00    -0.268 OA
HETATM    9  C   UNL     1      29.617  42.879  53.806  1.00  0.00     0.045 A 
HETATM   10  H   UNL     1      30.388  41.238  52.750  1.00  0.00     0.169 HD
HETATM   11  C   UNL     1      28.491  43.693  53.954  1.00  0.00    -0.008 A 
HETATM   12  C   UNL     1      30.750  43.070  54.595  1.00  0.00     0.031 A 
HETATM   13  C   UNL     1      28.501  44.702  54.923  1.00  0.00     0.020 A 
HETATM   14  C   UNL     1      27.323  43.454  53.105  1.00  0.00     0.028 A 
HETATM   15  C   UNL     1      29.624  44.890  55.744  1.00  0.00    -0.061 A 
HETATM   16  C   UNL     1      29.640  45.975  56.782  1.00  0.00     0.048 C 
HETATM   17  C   UNL     1      30.752  44.078  55.560  1.00  0.00     0.009 A 
ENDBRANCH   4   5
ENDBRANCH   1   4
BRANCH   1  18
HETATM   18  C   UNL     1      26.075  43.066  49.039  1.00  0.00     0.158 C 
BRANCH  18  19
HETATM   19  C   UNL     1      26.097  41.647  48.456  1.00  0.00     0.139 C 
HETATM   20  O   UNL     1      25.200  41.515  47.340  1.00  0.00    -0.384 OA
HETATM   21  C   UNL     1      25.782  40.614  46.386  1.00  0.00     0.168 C 
HETATM   22  C   UNL     1      27.104  40.147  46.960  1.00  0.00     0.029 C 
HETATM   23  C   UNL     1      27.462  41.266  47.906  1.00  0.00     0.035 C 
ENDBRANCH  18  19
ENDBRANCH   1  18
BRANCH   2  24
HETATM   24  C   UNL     1      24.043  44.982  50.109  1.00  0.00     0.032 A 
HETATM   25  C   UNL     1      24.594  46.259  50.244  1.00  0.00     0.020 A 
HETATM   26  C   UNL     1      24.114  47.306  49.456  1.00  0.00     0.038 A 
HETATM   27  C   UNL     1      23.097  47.088  48.523  1.00  0.00     0.068 A 
HETATM   28  C   UNL     1      22.569  45.804  48.370  1.00  0.00     0.038 A 
HETATM   29  C   UNL     1      23.051  44.747  49.154  1.00  0.00     0.020 A 
BRANCH  27  30
HETATM   30  O   UNL     1      22.721  48.202  47.823  1.00  0.00    -0.356 OA
HETATM   31  C   UNL     1      23.057  49.464  48.384  1.00  0.00     0.210 C 
ENDBRANCH  27  30
ENDBRANCH   2  24
TORSDOF 6
ENDMDL
MODEL 8
REMARK VINA RESULT:      -8.2     11.376     14.260
REMARK  6 active torsions:
REMARK  status: ('A' for Active; 'I' for Inactive)
REMARK    1  A    between atoms: C_9  and  C_10 
REMARK    2  A    between atoms: C_10  and  N_11 
REMARK       I    between atoms: N_11  and  C_12 
REMARK    3  A    between atoms: N_11  and  C_22 
REMARK    4  A    between atoms: C_12  and  C_13 
REMARK    5  A    between atoms: C_16  and  O_17 
REMARK    6  A    between atoms: C_22  and  C_23 
ROOT
HETATM    1  N   UNL     1      29.857  50.120  41.943  1.00  0.00    -0.341 N 
HETATM    2  C   UNL     1      30.982  49.534  42.527  1.00  0.00     0.254 C 
HETATM    3  O   UNL     1      30.982  48.406  43.016  1.00  0.00    -0.267 OA
ENDROOT
BRANCH   1   4
HETATM    4  C   UNL     1      28.610  49.338  41.944  1.00  0.00     0.170 C 
BRANCH   4   5
HETATM    5  C   UNL     1      28.421  48.470  40.726  1.00  0.00     0.029 A 
HETATM    6  C   UNL     1      27.396  49.005  39.770  1.00  0.00     0.253 A 
HETATM    7  N   UNL     1      27.152  48.280  38.635  1.00  0.00    -0.322 N 
HETATM    8  O   UNL     1      26.784  50.047  39.987  1.00  0.00    -0.268 OA
HETATM    9  C   UNL     1      27.772  47.061  38.344  1.00  0.00     0.045 A 
HETATM   10  H   UNL     1      26.454  48.660  38.013  1.00  0.00     0.169 HD
HETATM   11  C   UNL     1      28.718  46.549  39.236  1.00  0.00    -0.008 A 
HETATM   12  C   UNL     1      27.429  46.367  37.186  1.00  0.00     0.031 A 
HETATM   13  C   UNL     1      29.313  45.312  38.965  1.00  0.00     0.020 A 
HETATM   14  C   UNL     1      29.045  47.311  40.442  1.00  0.00     0.028 A 
HETATM   15  C   UNL     1      28.958  44.588  37.815  1.00  0.00    -0.061 A 
HETATM   16  C   UNL     1      29.597  43.263  37.518  1.00  0.00     0.048 C 
HETATM   17  C   UNL     1      28.026  45.134  36.921  1.00  0.00     0.009 A 
ENDBRANCH   4   5
ENDBRANCH   1   4
BRANCH   1  18
HETATM   18  C   UNL     1      29.719  51.562  41.659  1.00  0.00     0.158 C 
BRANCH  18  19
HETATM   19  C   UNL     1      30.087  51.944  40.220  1.00  0.00     0.139 C 
HETATM   20  O   UNL     1      30.443  50.793  39.436  1.00  0.00    -0.384 OA
HETATM   21  C   UNL     1      29.988  50.994  38.090  1.00  0.00     0.168 C 
HETATM   22  C   UNL     1      29.333  52.359  38.038  1.00  0.00     0.029 C 
HETATM   23  C   UNL     1      28.925  52.579  39.473  1.00  0.00     0.035 C 
ENDBRANCH  18  19
ENDBRANCH   1  18
BRANCH   2  24
HETATM   24  C   UNL     1      32.264  50.276  42.564  1.00  0.00     0.032 A 
HETATM   25  C   UNL     1      32.524  51.099  43.663  1.00  0.00     0.020 A 
HETATM   26  C   UNL     1      33.736  51.787  43.740  1.00  0.00     0.038 A 
HETATM   27  C   UNL     1      34.699  51.651  42.737  1.00  0.00     0.068 A 
HETATM   28  C   UNL     1      34.447  50.804  41.655  1.00  0.00     0.038 A 
HETATM   29  C   UNL     1      33.236  50.105  41.574  1.00  0.00     0.020 A 
BRANCH  27  30
HETATM   30  O   UNL     1      35.836  52.384  42.939  1.00  0.00    -0.356 OA
HETATM   31  C   UNL     1      36.184  52.683  44.283  1.00  0.00     0.210 C 
ENDBRANCH  27  30
ENDBRANCH   2  24
TORSDOF 6
ENDMDL
MODEL 9
REMARK VINA RESULT:      -8.1      3.972      6.713
REMARK  6 active torsions:
REMARK  status: ('A' for Active; 'I' for Inactive)
REMARK    1  A    between atoms: C_9  and  C_10 
REMARK    2  A    between atoms: C_10  and  N_11 
REMARK       I    between atoms: N_11  and  C_12 
REMARK    3  A    between atoms: N_11  and  C_22 
REMARK    4  A    between atoms: C_12  and  C_13 
REMARK    5  A    between atoms: C_16  and  O_17 
REMARK    6  A    between atoms: C_22  and  C_23 
ROOT
HETATM    1  N   UNL     1      21.544  46.382  48.079  1.00  0.00    -0.341 N 
HETATM    2  C   UNL     1      20.245  46.131  48.526  1.00  0.00     0.254 C 
HETATM    3  O   UNL     1      19.858  45.025  48.897  1.00  0.00    -0.267 OA
ENDROOT
BRANCH   1   4
HETATM    4  C   UNL     1      22.476  45.244  48.036  1.00  0.00     0.170 C 
BRANCH   4   5
HETATM    5  C   UNL     1      23.295  45.065  49.289  1.00  0.00     0.029 A 
HETATM    6  C   UNL     1      23.255  43.665  49.828  1.00  0.00     0.253 A 
HETATM    7  N   UNL     1      23.966  43.407  50.969  1.00  0.00    -0.322 N 
HETATM    8  O   UNL     1      22.606  42.776  49.284  1.00  0.00    -0.268 OA
HETATM    9  C   UNL     1      24.686  44.378  51.670  1.00  0.00     0.045 A 
HETATM   10  H   UNL     1      23.916  42.460  51.312  1.00  0.00     0.169 HD
HETATM   11  C   UNL     1      24.719  45.687  51.182  1.00  0.00    -0.008 A 
HETATM   12  C   UNL     1      25.346  44.036  52.849  1.00  0.00     0.031 A 
HETATM   13  C   UNL     1      25.409  46.668  51.902  1.00  0.00     0.020 A 
HETATM   14  C   UNL     1      24.009  46.001  49.941  1.00  0.00     0.028 A 
HETATM   15  C   UNL     1      26.055  46.345  53.106  1.00  0.00    -0.061 A 
HETATM   16  C   UNL     1      26.801  47.394  53.878  1.00  0.00     0.048 C 
HETATM   17  C   UNL     1      26.032  45.020  53.562  1.00  0.00     0.009 A 
ENDBRANCH   4   5
ENDBRANCH   1   4
BRANCH   1  18
HETATM   18  C   UNL     1      21.948  47.582  47.320  1.00  0.00     0.158 C 
BRANCH  18  19
HETATM   19  C   UNL     1      22.446  48.732  48.205  1.00  0.00     0.139 C 
HETATM   20  O   UNL     1      23.826  49.044  47.949  1.00  0.00    -0.384 OA
HETATM   21  C   UNL     1      24.012  50.460  48.092  1.00  0.00     0.168 C 
HETATM   22  C   UNL     1      22.672  51.051  48.479  1.00  0.00     0.029 C 
HETATM   23  C   UNL     1      21.699  50.030  47.944  1.00  0.00     0.035 C 
ENDBRANCH  18  19
ENDBRANCH   1  18
BRANCH   2  24
HETATM   24  C   UNL     1      19.259  47.235  48.583  1.00  0.00     0.032 A 
HETATM   25  C   UNL     1      19.203  48.017  49.740  1.00  0.00     0.020 A 
HETATM   26  C   UNL     1      18.305  49.084  49.811  1.00  0.00     0.038 A 
HETATM   27  C   UNL     1      17.471  49.387  48.732  1.00  0.00     0.068 A 
HETATM   28  C   UNL     1      17.551  48.622  47.566  1.00  0.00     0.038 A 
HETATM   29  C   UNL     1      18.455  47.554  47.486  1.00  0.00     0.020 A 
BRANCH  27  30
HETATM   30  O   UNL     1      16.640  50.453  48.940  1.00  0.00    -0.356 OA
HETATM   31  C   UNL     1      17.160  51.545  49.685  1.00  0.00     0.210 C 
ENDBRANCH  27  30
ENDBRANCH   2  24
TORSDOF 6
ENDMDL
MODEL 10
REMARK VINA RESULT:      -8.0      8.096     13.306
REMARK  6 active torsions:
REMARK  status: ('A' for Active; 'I' for Inactive)
REMARK    1  A    between atoms: C_9  and  C_10 
REMARK    2  A    between atoms: C_10  and  N_11 
REMARK       I    between atoms: N_11  and  C_12 
REMARK    3  A    between atoms: N_11  and  C_22 
REMARK    4  A    between atoms: C_12  and  C_13 
REMARK    5  A    between atoms: C_16  and  O_17 
REMARK    6  A    between atoms: C_22  and  C_23 
ROOT
HETATM    1  N   UNL     1      17.401  50.607  48.505  1.00  0.00    -0.341 N 
HETATM    2  C   UNL     1      18.428  51.330  47.894  1.00  0.00     0.254 C 
HETATM    3  O   UNL     1      18.232  52.221  47.071  1.00  0.00    -0.267 OA
ENDROOT
BRANCH   1   4
HETATM    4  C   UNL     1      16.020  50.930  48.111  1.00  0.00     0.170 C 
BRANCH   4   5
HETATM    5  C   UNL     1      15.522  52.256  48.625  1.00  0.00     0.029 A 
HETATM    6  C   UNL     1      14.967  53.140  47.547  1.00  0.00     0.253 A 
HETATM    7  N   UNL     1      14.494  54.369  47.919  1.00  0.00    -0.322 N 
HETATM    8  O   UNL     1      14.938  52.791  46.371  1.00  0.00    -0.268 OA
HETATM    9  C   UNL     1      14.539  54.854  49.229  1.00  0.00     0.045 A 
HETATM   10  H   UNL     1      14.132  54.944  47.173  1.00  0.00     0.169 HD
HETATM   11  C   UNL     1      15.067  54.043  50.238  1.00  0.00    -0.008 A 
HETATM   12  C   UNL     1      14.076  56.138  49.511  1.00  0.00     0.031 A 
HETATM   13  C   UNL     1      15.147  54.540  51.543  1.00  0.00     0.020 A 
HETATM   14  C   UNL     1      15.544  52.702  49.895  1.00  0.00     0.028 A 
HETATM   15  C   UNL     1      14.710  55.841  51.837  1.00  0.00    -0.061 A 
HETATM   16  C   UNL     1      14.788  56.376  53.237  1.00  0.00     0.048 C 
HETATM   17  C   UNL     1      14.159  56.627  50.815  1.00  0.00     0.009 A 
ENDBRANCH   4   5
ENDBRANCH   1   4
BRANCH   1  18
HETATM   18  C   UNL     1      17.591  49.330  49.221  1.00  0.00     0.158 C 
BRANCH  18  19
HETATM   19  C   UNL     1      17.755  48.121  48.291  1.00  0.00     0.139 C 
HETATM   20  O   UNL     1      19.065  47.538  48.399  1.00  0.00    -0.384 OA
HETATM   21  C   UNL     1      18.951  46.117  48.242  1.00  0.00     0.168 C 
HETATM   22  C   UNL     1      17.487  45.809  48.000  1.00  0.00     0.029 C 
HETATM   23  C   UNL     1      16.798  46.991  48.633  1.00  0.00     0.035 C 
ENDBRANCH  18  19
ENDBRANCH   1  18
BRANCH   2  24
HETATM   24  C   UNL     1      19.839  51.043  48.243  1.00  0.00     0.032 A 
HETATM   25  C   UNL     1      20.271  51.317  49.543  1.00  0.00     0.020 A 
HETATM   26  C   UNL     1      21.586  51.030  49.910  1.00  0.00     0.038 A 
HETATM   27  C   UNL     1      22.473  50.458  48.995  1.00  0.00     0.068 A 
HETATM   28  C   UNL     1      22.030  50.158  47.705  1.00  0.00     0.038 A 
HETATM   29  C   UNL     1      20.709  50.438  47.332  1.00  0.00     0.020 A 
BRANCH  27  30
HETATM   30  O   UNL     1      23.730  50.233  49.486  1.00  0.00    -0.356 OA
HETATM   31  C   UNL     1      24.593  49.413  48.711  1.00  0.00     0.210 C 
ENDBRANCH  27  30
ENDBRANCH   2  24
TORSDOF 6
ENDMDL
