MODEL 1
REMARK VINA RESULT:      -9.2      0.000      0.000
REMARK  3 active torsions:
REMARK  status: ('A' for Active; 'I' for Inactive)
REMARK    1  A    between atoms: C_5  and  C_6 
REMARK    2  A    between atoms: C_6  and  N_7 
REMARK    3  A    between atoms: C_11  and  C_12 
ROOT
HETATM    1  N   UNL     1      25.800  45.400  50.832  1.00  0.00    -0.066 N 
HETATM    2  H   UNL     1      25.248  44.628  50.439  1.00  0.00     0.280 HD
HETATM    3  C   UNL     1      27.206  44.890  51.057  1.00  0.00     0.236 C 
HETATM    4  C   UNL     1      27.156  43.691  51.990  1.00  0.00     0.037 C 
HETATM    5  C   UNL     1      26.524  44.036  53.348  1.00  0.00     0.024 C 
HETATM    6  C   UNL     1      25.138  44.658  53.119  1.00  0.00     0.037 C 
HETATM    7  C   UNL     1      25.143  45.814  52.124  1.00  0.00     0.236 C 
ENDROOT
BRANCH   1   8
HETATM    8  C   UNL     1      25.749  46.522  49.813  1.00  0.00     0.293 C 
BRANCH   8   9
HETATM    9  C   UNL     1      24.390  46.785  49.298  1.00  0.00     0.061 A 
HETATM   10  N   UNL     1      23.941  48.027  48.870  1.00  0.00    -0.307 N 
HETATM   11  C   UNL     1      22.617  47.852  48.468  1.00  0.00     0.139 A 
HETATM   12  C   UNL     1      24.592  49.258  48.813  1.00  0.00     0.099 A 
HETATM   13  C   UNL     1      21.898  48.990  47.963  1.00  0.00    -0.016 A 
HETATM   14  N   UNL     1      22.229  46.606  48.639  1.00  0.00    -0.240 NA
HETATM   15  C   UNL     1      20.464  48.900  47.508  1.00  0.00     0.052 C 
HETATM   16  C   UNL     1      22.551  50.175  47.914  1.00  0.00     0.012 A 
HETATM   17  C   UNL     1      23.929  50.328  48.346  1.00  0.00     0.018 A 
HETATM   18  C   UNL     1      23.295  45.952  49.177  1.00  0.00     0.146 A 
ENDBRANCH   8   9
ENDBRANCH   1   8
BRANCH   5  19
HETATM   19  C   UNL     1      27.452  44.854  54.220  1.00  0.00    -0.024 A 
HETATM   20  C   UNL     1      28.709  44.396  54.755  1.00  0.00     0.018 A 
HETATM   21  C   UNL     1      29.255  45.442  55.488  1.00  0.00     0.138 A 
HETATM   22  C   UNL     1      29.455  43.203  54.708  1.00  0.00     0.017 A 
HETATM   23  N   UNL     1      30.429  45.469  56.142  1.00  0.00    -0.242 NA
HETATM   24  N   UNL     1      28.375  46.482  55.462  1.00  0.00    -0.350 N 
HETATM   25  C   UNL     1      31.107  44.303  56.057  1.00  0.00     0.119 A 
HETATM   26  C   UNL     1      30.680  43.171  55.378  1.00  0.00     0.020 A 
HETATM   27  H   UNL     1      28.528  47.348  55.958  1.00  0.00     0.166 HD
HETATM   28  C   UNL     1      27.276  46.141  54.709  1.00  0.00     0.098 A 
ENDBRANCH   5  19
TORSDOF 3
ENDMDL
MODEL 2
REMARK VINA RESULT:      -9.1      1.569      2.310
REMARK  3 active torsions:
REMARK  status: ('A' for Active; 'I' for Inactive)
REMARK    1  A    between atoms: C_5  and  C_6 
REMARK    2  A    between atoms: C_6  and  N_7 
REMARK    3  A    between atoms: C_11  and  C_12 
ROOT
HETATM    1  N   UNL     1      25.414  45.667  51.962  1.00  0.00    -0.066 N 
HETATM    2  H   UNL     1      24.453  45.953  52.187  1.00  0.00     0.280 HD
HETATM    3  C   UNL     1      25.638  44.299  52.569  1.00  0.00     0.236 C 
HETATM    4  C   UNL     1      25.400  44.376  54.069  1.00  0.00     0.037 C 
HETATM    5  C   UNL     1      26.332  45.388  54.754  1.00  0.00     0.024 C 
HETATM    6  C   UNL     1      26.189  46.755  54.068  1.00  0.00     0.037 C 
HETATM    7  C   UNL     1      26.343  46.698  52.552  1.00  0.00     0.236 C 
ENDROOT
BRANCH   1   8
HETATM    8  C   UNL     1      25.511  45.649  50.450  1.00  0.00     0.293 C 
BRANCH   8   9
HETATM    9  C   UNL     1      24.747  46.734  49.801  1.00  0.00     0.061 A 
HETATM   10  N   UNL     1      25.311  47.903  49.308  1.00  0.00    -0.307 N 
HETATM   11  C   UNL     1      24.262  48.658  48.784  1.00  0.00     0.139 A 
HETATM   12  C   UNL     1      26.636  48.336  49.290  1.00  0.00     0.099 A 
HETATM   13  C   UNL     1      24.564  49.933  48.191  1.00  0.00    -0.016 A 
HETATM   14  N   UNL     1      23.109  48.043  48.941  1.00  0.00    -0.240 NA
HETATM   15  C   UNL     1      23.498  50.820  47.601  1.00  0.00     0.052 C 
HETATM   16  C   UNL     1      25.858  50.331  48.181  1.00  0.00     0.012 A 
HETATM   17  C   UNL     1      26.929  49.525  48.742  1.00  0.00     0.018 A 
HETATM   18  C   UNL     1      23.390  46.882  49.591  1.00  0.00     0.146 A 
ENDBRANCH   8   9
ENDBRANCH   1   8
BRANCH   5  19
HETATM   19  C   UNL     1      27.752  44.877  54.863  1.00  0.00    -0.024 A 
HETATM   20  C   UNL     1      28.679  45.213  55.914  1.00  0.00     0.018 A 
HETATM   21  C   UNL     1      29.864  44.534  55.657  1.00  0.00     0.138 A 
HETATM   22  C   UNL     1      28.655  46.023  57.064  1.00  0.00     0.017 A 
HETATM   23  N   UNL     1      30.991  44.533  56.388  1.00  0.00    -0.242 NA
HETATM   24  N   UNL     1      29.716  43.852  54.488  1.00  0.00    -0.350 N 
HETATM   25  C   UNL     1      30.911  45.320  57.484  1.00  0.00     0.119 A 
HETATM   26  C   UNL     1      29.802  46.067  57.858  1.00  0.00     0.020 A 
HETATM   27  H   UNL     1      30.457  43.311  54.064  1.00  0.00     0.166 HD
HETATM   28  C   UNL     1      28.450  44.055  53.989  1.00  0.00     0.098 A 
ENDBRANCH   5  19
TORSDOF 3
ENDMDL
MODEL 3
REMARK VINA RESULT:      -9.1      1.325      8.929
REMARK  3 active torsions:
REMARK  status: ('A' for Active; 'I' for Inactive)
REMARK    1  A    between atoms: C_5  and  C_6 
REMARK    2  A    between atoms: C_6  and  N_7 
REMARK    3  A    between atoms: C_11  and  C_12 
ROOT
HETATM    1  N   UNL     1      26.658  45.156  51.995  1.00  0.00    -0.066 N 
HETATM    2  H   UNL     1      27.671  45.329  51.993  1.00  0.00     0.280 HD
HETATM    3  C   UNL     1      26.277  44.648  50.622  1.00  0.00     0.236 C 
HETATM    4  C   UNL     1      26.679  45.681  49.581  1.00  0.00     0.037 C 
HETATM    5  C   UNL     1      26.002  47.040  49.819  1.00  0.00     0.024 C 
HETATM    6  C   UNL     1      26.294  47.509  51.252  1.00  0.00     0.037 C 
HETATM    7  C   UNL     1      25.977  46.462  52.315  1.00  0.00     0.236 C 
ENDROOT
BRANCH   1   8
HETATM    8  C   UNL     1      26.403  44.130  53.081  1.00  0.00     0.293 C 
BRANCH   8   9
HETATM    9  C   UNL     1      27.636  43.666  53.749  1.00  0.00     0.061 A 
HETATM   10  N   UNL     1      28.385  44.433  54.631  1.00  0.00    -0.307 N 
HETATM   11  C   UNL     1      29.459  43.639  55.033  1.00  0.00     0.139 A 
HETATM   12  C   UNL     1      28.197  45.737  55.087  1.00  0.00     0.099 A 
HETATM   13  C   UNL     1      30.406  44.187  55.966  1.00  0.00    -0.016 A 
HETATM   14  N   UNL     1      29.424  42.461  54.447  1.00  0.00    -0.240 NA
HETATM   15  C   UNL     1      31.598  43.407  56.456  1.00  0.00     0.052 C 
HETATM   16  C   UNL     1      30.201  45.454  56.398  1.00  0.00     0.012 A 
HETATM   17  C   UNL     1      29.077  46.260  55.956  1.00  0.00     0.018 A 
HETATM   18  C   UNL     1      28.332  42.479  53.635  1.00  0.00     0.146 A 
ENDBRANCH   8   9
ENDBRANCH   1   8
BRANCH   5  19
HETATM   19  C   UNL     1      24.536  47.023  49.442  1.00  0.00    -0.024 A 
HETATM   20  C   UNL     1      23.789  48.155  48.956  1.00  0.00     0.018 A 
HETATM   21  C   UNL     1      22.489  47.725  48.717  1.00  0.00     0.138 A 
HETATM   22  C   UNL     1      24.062  49.510  48.690  1.00  0.00     0.017 A 
HETATM   23  N   UNL     1      21.458  48.439  48.235  1.00  0.00    -0.242 NA
HETATM   24  N   UNL     1      22.404  46.415  49.078  1.00  0.00    -0.350 N 
HETATM   25  C   UNL     1      21.777  49.729  47.990  1.00  0.00     0.119 A 
HETATM   26  C   UNL     1      23.024  50.302  48.196  1.00  0.00     0.020 A 
HETATM   27  H   UNL     1      21.546  45.884  49.037  1.00  0.00     0.166 HD
HETATM   28  C   UNL     1      23.628  45.977  49.528  1.00  0.00     0.098 A 
ENDBRANCH   5  19
TORSDOF 3
ENDMDL
MODEL 4
REMARK VINA RESULT:      -8.7      4.610     11.121
REMARK  3 active torsions:
REMARK  status: ('A' for Active; 'I' for Inactive)
REMARK    1  A    between atoms: C_5  and  C_6 
REMARK    2  A    between atoms: C_6  and  N_7 
REMARK    3  A    between atoms: C_11  and  C_12 
ROOT
HETATM    1  N   UNL     1      20.840  49.143  49.377  1.00  0.00    -0.066 N 
HETATM    2  H   UNL     1      21.332  49.124  50.279  1.00  0.00     0.280 HD
HETATM    3  C   UNL     1      20.655  50.593  48.987  1.00  0.00     0.236 C 
HETATM    4  C   UNL     1      19.873  51.306  50.080  1.00  0.00     0.037 C 
HETATM    5  C   UNL     1      18.495  50.670  50.318  1.00  0.00     0.024 C 
HETATM    6  C   UNL     1      18.670  49.171  50.606  1.00  0.00     0.037 C 
HETATM    7  C   UNL     1      19.518  48.443  49.568  1.00  0.00     0.236 C 
ENDROOT
BRANCH   1   8
HETATM    8  C   UNL     1      21.717  48.390  48.397  1.00  0.00     0.293 C 
BRANCH   8   9
HETATM    9  C   UNL     1      23.101  48.901  48.336  1.00  0.00     0.061 A 
HETATM   10  N   UNL     1      24.163  48.376  49.060  1.00  0.00    -0.307 N 
HETATM   11  C   UNL     1      25.284  49.135  48.726  1.00  0.00     0.139 A 
HETATM   12  C   UNL     1      24.211  47.314  49.963  1.00  0.00     0.099 A 
HETATM   13  C   UNL     1      26.544  48.800  49.331  1.00  0.00    -0.016 A 
HETATM   14  N   UNL     1      24.975  50.088  47.872  1.00  0.00    -0.240 NA
HETATM   15  C   UNL     1      27.809  49.564  49.035  1.00  0.00     0.052 C 
HETATM   16  C   UNL     1      26.568  47.764  50.202  1.00  0.00     0.012 A 
HETATM   17  C   UNL     1      25.381  46.995  50.537  1.00  0.00     0.018 A 
HETATM   18  C   UNL     1      23.637  49.975  47.653  1.00  0.00     0.146 A 
ENDBRANCH   8   9
ENDBRANCH   1   8
BRANCH   5  19
HETATM   19  C   UNL     1      17.516  50.994  49.211  1.00  0.00    -0.024 A 
HETATM   20  C   UNL     1      16.569  52.081  49.229  1.00  0.00     0.018 A 
HETATM   21  C   UNL     1      15.868  52.043  48.030  1.00  0.00     0.138 A 
HETATM   22  C   UNL     1      16.218  53.102  50.132  1.00  0.00     0.017 A 
HETATM   23  N   UNL     1      14.907  52.882  47.608  1.00  0.00    -0.242 NA
HETATM   24  N   UNL     1      16.306  50.968  47.318  1.00  0.00    -0.350 N 
HETATM   25  C   UNL     1      14.614  53.846  48.508  1.00  0.00     0.119 A 
HETATM   26  C   UNL     1      15.218  53.998  49.749  1.00  0.00     0.020 A 
HETATM   27  H   UNL     1      15.919  50.702  46.424  1.00  0.00     0.166 HD
HETATM   28  C   UNL     1      17.293  50.317  48.020  1.00  0.00     0.098 A 
ENDBRANCH   5  19
TORSDOF 3
ENDMDL
MODEL 5
REMARK VINA RESULT:      -8.3      4.777     10.780
REMARK  3 active torsions:
REMARK  status: ('A' for Active; 'I' for Inactive)
REMARK    1  A    between atoms: C_5  and  C_6 
REMARK    2  A    between atoms: C_6  and  N_7 
REMARK    3  A    between atoms: C_11  and  C_12 
ROOT
HETATM    1  N   UNL     1      20.823  48.540  49.539  1.00  0.00    -0.066 N 
HETATM    2  H   UNL     1      21.298  48.517  50.449  1.00  0.00     0.280 HD
HETATM    3  C   UNL     1      20.722  49.988  49.110  1.00  0.00     0.236 C 
HETATM    4  C   UNL     1      19.962  50.768  50.171  1.00  0.00     0.037 C 
HETATM    5  C   UNL     1      18.548  50.212  50.401  1.00  0.00     0.024 C 
HETATM    6  C   UNL     1      18.637  48.714  50.727  1.00  0.00     0.037 C 
HETATM    7  C   UNL     1      19.462  47.917  49.723  1.00  0.00     0.236 C 
ENDROOT
BRANCH   1   8
HETATM    8  C   UNL     1      21.674  47.716  48.593  1.00  0.00     0.293 C 
BRANCH   8   9
HETATM    9  C   UNL     1      23.093  47.644  48.995  1.00  0.00     0.061 A 
HETATM   10  N   UNL     1      24.055  48.582  48.648  1.00  0.00    -0.307 N 
HETATM   11  C   UNL     1      25.254  48.150  49.216  1.00  0.00     0.139 A 
HETATM   12  C   UNL     1      23.956  49.749  47.892  1.00  0.00     0.099 A 
HETATM   13  C   UNL     1      26.433  48.949  49.021  1.00  0.00    -0.016 A 
HETATM   14  N   UNL     1      25.091  47.014  49.862  1.00  0.00    -0.240 NA
HETATM   15  C   UNL     1      27.772  48.563  49.593  1.00  0.00     0.052 C 
HETATM   16  C   UNL     1      26.312  50.080  48.286  1.00  0.00     0.012 A 
HETATM   17  C   UNL     1      25.051  50.502  47.700  1.00  0.00     0.018 A 
HETATM   18  C   UNL     1      23.782  46.679  49.705  1.00  0.00     0.146 A 
ENDBRANCH   8   9
ENDBRANCH   1   8
BRANCH   5  19
HETATM   19  C   UNL     1      17.606  50.560  49.268  1.00  0.00    -0.024 A 
HETATM   20  C   UNL     1      16.724  51.700  49.240  1.00  0.00     0.018 A 
HETATM   21  C   UNL     1      16.040  51.668  48.031  1.00  0.00     0.138 A 
HETATM   22  C   UNL     1      16.418  52.765  50.108  1.00  0.00     0.017 A 
HETATM   23  N   UNL     1      15.135  52.548  47.570  1.00  0.00    -0.242 NA
HETATM   24  N   UNL     1      16.426  50.550  47.356  1.00  0.00    -0.350 N 
HETATM   25  C   UNL     1      14.885  53.553  48.438  1.00  0.00     0.119 A 
HETATM   26  C   UNL     1      15.477  53.705  49.685  1.00  0.00     0.020 A 
HETATM   27  H   UNL     1      16.038  50.281  46.463  1.00  0.00     0.166 HD
HETATM   28  C   UNL     1      17.363  49.864  48.092  1.00  0.00     0.098 A 
ENDBRANCH   5  19
TORSDOF 3
ENDMDL
MODEL 6
REMARK VINA RESULT:      -8.2     11.572     13.521
REMARK  3 active torsions:
REMARK  status: ('A' for Active; 'I' for Inactive)
REMARK    1  A    between atoms: C_5  and  C_6 
REMARK    2  A    between atoms: C_6  and  N_7 
REMARK    3  A    between atoms: C_11  and  C_12 
ROOT
HETATM    1  N   UNL     1      27.520  51.556  39.117  1.00  0.00    -0.066 N 
HETATM    2  H   UNL     1      26.704  52.147  39.319  1.00  0.00     0.280 HD
HETATM    3  C   UNL     1      28.055  51.047  40.438  1.00  0.00     0.236 C 
HETATM    4  C   UNL     1      28.413  52.234  41.319  1.00  0.00     0.037 C 
HETATM    5  C   UNL     1      29.465  53.145  40.668  1.00  0.00     0.024 C 
HETATM    6  C   UNL     1      28.975  53.576  39.277  1.00  0.00     0.037 C 
HETATM    7  C   UNL     1      28.532  52.411  38.397  1.00  0.00     0.236 C 
ENDROOT
BRANCH   1   8
HETATM    8  C   UNL     1      27.023  50.435  38.226  1.00  0.00     0.293 C 
BRANCH   8   9
HETATM    9  C   UNL     1      26.792  49.169  38.951  1.00  0.00     0.061 A 
HETATM   10  N   UNL     1      27.709  48.129  39.023  1.00  0.00    -0.307 N 
HETATM   11  C   UNL     1      27.112  47.128  39.789  1.00  0.00     0.139 A 
HETATM   12  C   UNL     1      28.987  48.004  38.480  1.00  0.00     0.099 A 
HETATM   13  C   UNL     1      27.852  45.920  40.036  1.00  0.00    -0.016 A 
HETATM   14  N   UNL     1      25.900  47.477  40.166  1.00  0.00    -0.240 NA
HETATM   15  C   UNL     1      27.290  44.782  40.848  1.00  0.00     0.052 C 
HETATM   16  C   UNL     1      29.093  45.822  39.501  1.00  0.00     0.012 A 
HETATM   17  C   UNL     1      29.686  46.880  38.702  1.00  0.00     0.018 A 
HETATM   18  C   UNL     1      25.682  48.709  39.631  1.00  0.00     0.146 A 
ENDBRANCH   8   9
ENDBRANCH   1   8
BRANCH   5  19
HETATM   19  C   UNL     1      30.848  52.530  40.691  1.00  0.00    -0.024 A 
HETATM   20  C   UNL     1      31.592  52.200  41.881  1.00  0.00     0.018 A 
HETATM   21  C   UNL     1      32.802  51.650  41.477  1.00  0.00     0.138 A 
HETATM   22  C   UNL     1      31.381  52.307  43.268  1.00  0.00     0.017 A 
HETATM   23  N   UNL     1      33.794  51.178  42.250  1.00  0.00    -0.242 NA
HETATM   24  N   UNL     1      32.845  51.676  40.116  1.00  0.00    -0.350 N 
HETATM   25  C   UNL     1      33.537  51.297  43.571  1.00  0.00     0.119 A 
HETATM   26  C   UNL     1      32.384  51.841  44.120  1.00  0.00     0.020 A 
HETATM   27  H   UNL     1      33.644  51.366  39.581  1.00  0.00     0.166 HD
HETATM   28  C   UNL     1      31.678  52.214  39.625  1.00  0.00     0.098 A 
ENDBRANCH   5  19
TORSDOF 3
ENDMDL
MODEL 7
REMARK VINA RESULT:      -8.2      1.664      2.789
REMARK  3 active torsions:
REMARK  status: ('A' for Active; 'I' for Inactive)
REMARK    1  A    between atoms: C_5  and  C_6 
REMARK    2  A    between atoms: C_6  and  N_7 
REMARK    3  A    between atoms: C_11  and  C_12 
ROOT
HETATM    1  N   UNL     1      24.937  45.800  51.640  1.00  0.00    -0.066 N 
HETATM    2  H   UNL     1      24.074  46.290  51.904  1.00  0.00     0.280 HD
HETATM    3  C   UNL     1      25.031  44.549  52.486  1.00  0.00     0.236 C 
HETATM    4  C   UNL     1      25.023  44.941  53.955  1.00  0.00     0.037 C 
HETATM    5  C   UNL     1      26.188  45.878  54.313  1.00  0.00     0.024 C 
HETATM    6  C   UNL     1      26.163  47.099  53.381  1.00  0.00     0.037 C 
HETATM    7  C   UNL     1      26.089  46.737  51.901  1.00  0.00     0.236 C 
ENDROOT
BRANCH   1   8
HETATM    8  C   UNL     1      24.815  45.488  50.161  1.00  0.00     0.293 C 
BRANCH   8   9
HETATM    9  C   UNL     1      23.785  46.294  49.476  1.00  0.00     0.061 A 
HETATM   10  N   UNL     1      22.806  45.770  48.643  1.00  0.00    -0.307 N 
HETATM   11  C   UNL     1      22.043  46.851  48.200  1.00  0.00     0.139 A 
HETATM   12  C   UNL     1      22.547  44.455  48.259  1.00  0.00     0.099 A 
HETATM   13  C   UNL     1      20.938  46.594  47.317  1.00  0.00    -0.016 A 
HETATM   14  N   UNL     1      22.499  47.986  48.686  1.00  0.00    -0.240 NA
HETATM   15  C   UNL     1      20.059  47.696  46.784  1.00  0.00     0.052 C 
HETATM   16  C   UNL     1      20.704  45.309  46.960  1.00  0.00     0.012 A 
HETATM   17  C   UNL     1      21.520  44.204  47.432  1.00  0.00     0.018 A 
HETATM   18  C   UNL     1      23.584  47.661  49.440  1.00  0.00     0.146 A 
ENDBRANCH   8   9
ENDBRANCH   1   8
BRANCH   5  19
HETATM   19  C   UNL     1      27.513  45.149  54.369  1.00  0.00    -0.024 A 
HETATM   20  C   UNL     1      28.496  45.289  55.413  1.00  0.00     0.018 A 
HETATM   21  C   UNL     1      29.557  44.448  55.102  1.00  0.00     0.138 A 
HETATM   22  C   UNL     1      28.615  46.041  56.597  1.00  0.00     0.017 A 
HETATM   23  N   UNL     1      30.681  44.240  55.808  1.00  0.00    -0.242 NA
HETATM   24  N   UNL     1      29.287  43.850  53.908  1.00  0.00    -0.350 N 
HETATM   25  C   UNL     1      30.740  44.979  56.937  1.00  0.00     0.119 A 
HETATM   26  C   UNL     1      29.768  45.872  57.367  1.00  0.00     0.020 A 
HETATM   27  H   UNL     1      29.928  43.221  53.447  1.00  0.00     0.166 HD
HETATM   28  C   UNL     1      28.061  44.269  53.446  1.00  0.00     0.098 A 
ENDBRANCH   5  19
TORSDOF 3
ENDMDL
MODEL 8
REMARK VINA RESULT:      -8.2      6.856     10.349
REMARK  3 active torsions:
REMARK  status: ('A' for Active; 'I' for Inactive)
REMARK    1  A    between atoms: C_5  and  C_6 
REMARK    2  A    between atoms: C_6  and  N_7 
REMARK    3  A    between atoms: C_11  and  C_12 
ROOT
HETATM    1  N   UNL     1      16.903  51.734  47.557  1.00  0.00    -0.066 N 
HETATM    2  H   UNL     1      16.488  52.617  47.877  1.00  0.00     0.280 HD
HETATM    3  C   UNL     1      16.830  50.751  48.705  1.00  0.00     0.236 C 
HETATM    4  C   UNL     1      17.570  51.329  49.901  1.00  0.00     0.037 C 
HETATM    5  C   UNL     1      19.045  51.625  49.585  1.00  0.00     0.024 C 
HETATM    6  C   UNL     1      19.128  52.535  48.350  1.00  0.00     0.037 C 
HETATM    7  C   UNL     1      18.328  52.021  47.157  1.00  0.00     0.236 C 
ENDROOT
BRANCH   1   8
HETATM    8  C   UNL     1      16.084  51.287  46.362  1.00  0.00     0.293 C 
BRANCH   8   9
HETATM    9  C   UNL     1      16.888  51.093  45.140  1.00  0.00     0.061 A 
HETATM   10  N   UNL     1      17.029  52.040  44.135  1.00  0.00    -0.307 N 
HETATM   11  C   UNL     1      17.857  51.472  43.167  1.00  0.00     0.139 A 
HETATM   12  C   UNL     1      16.497  53.323  44.015  1.00  0.00     0.099 A 
HETATM   13  C   UNL     1      18.183  52.248  42.002  1.00  0.00    -0.016 A 
HETATM   14  N   UNL     1      18.210  50.249  43.502  1.00  0.00    -0.240 NA
HETATM   15  C   UNL     1      19.067  51.719  40.902  1.00  0.00     0.052 C 
HETATM   16  C   UNL     1      17.657  53.493  41.908  1.00  0.00     0.012 A 
HETATM   17  C   UNL     1      16.792  54.056  42.929  1.00  0.00     0.018 A 
HETATM   18  C   UNL     1      17.596  49.995  44.690  1.00  0.00     0.146 A 
ENDBRANCH   8   9
ENDBRANCH   1   8
BRANCH   5  19
HETATM   19  C   UNL     1      19.877  50.363  49.502  1.00  0.00    -0.024 A 
HETATM   20  C   UNL     1      21.229  50.290  49.008  1.00  0.00     0.018 A 
HETATM   21  C   UNL     1      21.637  48.965  49.106  1.00  0.00     0.138 A 
HETATM   22  C   UNL     1      22.165  51.198  48.481  1.00  0.00     0.017 A 
HETATM   23  N   UNL     1      22.831  48.442  48.784  1.00  0.00    -0.242 NA
HETATM   24  N   UNL     1      20.591  48.235  49.584  1.00  0.00    -0.350 N 
HETATM   25  C   UNL     1      23.694  49.358  48.291  1.00  0.00     0.119 A 
HETATM   26  C   UNL     1      23.421  50.708  48.120  1.00  0.00     0.020 A 
HETATM   27  H   UNL     1      20.625  47.232  49.706  1.00  0.00     0.166 HD
HETATM   28  C   UNL     1      19.517  49.061  49.818  1.00  0.00     0.098 A 
ENDBRANCH   5  19
TORSDOF 3
ENDMDL
MODEL 9
REMARK VINA RESULT:      -7.9     11.864     13.818
REMARK  3 active torsions:
REMARK  status: ('A' for Active; 'I' for Inactive)
REMARK    1  A    between atoms: C_5  and  C_6 
REMARK    2  A    between atoms: C_6  and  N_7 
REMARK    3  A    between atoms: C_11  and  C_12 
ROOT
HETATM    1  N   UNL     1      27.355  51.445  39.024  1.00  0.00    -0.066 N 
HETATM    2  H   UNL     1      26.689  52.226  39.005  1.00  0.00     0.280 HD
HETATM    3  C   UNL     1      27.490  50.993  40.462  1.00  0.00     0.236 C 
HETATM    4  C   UNL     1      27.959  52.165  41.309  1.00  0.00     0.037 C 
HETATM    5  C   UNL     1      29.307  52.726  40.831  1.00  0.00     0.024 C 
HETATM    6  C   UNL     1      29.209  53.084  39.340  1.00  0.00     0.037 C 
HETATM    7  C   UNL     1      28.664  51.952  38.474  1.00  0.00     0.236 C 
ENDROOT
BRANCH   1   8
HETATM    8  C   UNL     1      26.773  50.366  38.133  1.00  0.00     0.293 C 
BRANCH   8   9
HETATM    9  C   UNL     1      26.654  49.054  38.802  1.00  0.00     0.061 A 
HETATM   10  N   UNL     1      27.692  48.141  38.926  1.00  0.00    -0.307 N 
HETATM   11  C   UNL     1      27.173  47.042  39.611  1.00  0.00     0.139 A 
HETATM   12  C   UNL     1      29.016  48.205  38.494  1.00  0.00     0.099 A 
HETATM   13  C   UNL     1      28.045  45.934  39.890  1.00  0.00    -0.016 A 
HETATM   14  N   UNL     1      25.898  47.216  39.891  1.00  0.00    -0.240 NA
HETATM   15  C   UNL     1      27.575  44.702  40.621  1.00  0.00     0.052 C 
HETATM   16  C   UNL     1      29.327  46.019  39.463  1.00  0.00     0.012 A 
HETATM   17  C   UNL     1      29.838  47.174  38.745  1.00  0.00     0.018 A 
HETATM   18  C   UNL     1      25.563  48.428  39.371  1.00  0.00     0.146 A 
ENDBRANCH   8   9
ENDBRANCH   1   8
BRANCH   5  19
HETATM   19  C   UNL     1      30.464  51.820  41.192  1.00  0.00    -0.024 A 
HETATM   20  C   UNL     1      31.804  51.934  40.672  1.00  0.00     0.018 A 
HETATM   21  C   UNL     1      32.564  50.928  41.255  1.00  0.00     0.138 A 
HETATM   22  C   UNL     1      32.469  52.779  39.765  1.00  0.00     0.017 A 
HETATM   23  N   UNL     1      33.872  50.673  41.080  1.00  0.00    -0.242 NA
HETATM   24  N   UNL     1      31.746  50.189  42.055  1.00  0.00    -0.350 N 
HETATM   25  C   UNL     1      34.462  51.518  40.206  1.00  0.00     0.119 A 
HETATM   26  C   UNL     1      33.828  52.556  39.537  1.00  0.00     0.020 A 
HETATM   27  H   UNL     1      32.056  49.370  42.559  1.00  0.00     0.166 HD
HETATM   28  C   UNL     1      30.472  50.706  42.021  1.00  0.00     0.098 A 
ENDBRANCH   5  19
TORSDOF 3
ENDMDL
MODEL 10
REMARK VINA RESULT:      -7.8      3.534     10.614
REMARK  3 active torsions:
REMARK  status: ('A' for Active; 'I' for Inactive)
REMARK    1  A    between atoms: C_5  and  C_6 
REMARK    2  A    between atoms: C_6  and  N_7 
REMARK    3  A    between atoms: C_11  and  C_12 
ROOT
HETATM    1  N   UNL     1      21.385  48.646  49.484  1.00  0.00    -0.066 N 
HETATM    2  H   UNL     1      21.662  48.379  50.436  1.00  0.00     0.280 HD
HETATM    3  C   UNL     1      21.608  50.136  49.342  1.00  0.00     0.236 C 
HETATM    4  C   UNL     1      20.791  50.862  50.399  1.00  0.00     0.037 C 
HETATM    5  C   UNL     1      19.288  50.565  50.279  1.00  0.00     0.024 C 
HETATM    6  C   UNL     1      19.066  49.045  50.310  1.00  0.00     0.037 C 
HETATM    7  C   UNL     1      19.932  48.280  49.315  1.00  0.00     0.236 C 
ENDROOT
BRANCH   1   8
HETATM    8  C   UNL     1      22.261  47.840  48.544  1.00  0.00     0.293 C 
BRANCH   8   9
HETATM    9  C   UNL     1      23.497  47.340  49.180  1.00  0.00     0.061 A 
HETATM   10  N   UNL     1      23.716  46.016  49.533  1.00  0.00    -0.307 N 
HETATM   11  C   UNL     1      24.989  45.963  50.101  1.00  0.00     0.139 A 
HETATM   12  C   UNL     1      22.903  44.892  49.396  1.00  0.00     0.099 A 
HETATM   13  C   UNL     1      25.485  44.692  50.555  1.00  0.00    -0.016 A 
HETATM   14  N   UNL     1      25.545  47.156  50.134  1.00  0.00    -0.240 NA
HETATM   15  C   UNL     1      26.845  44.536  51.184  1.00  0.00     0.052 C 
HETATM   16  C   UNL     1      24.678  43.614  50.409  1.00  0.00     0.012 A 
HETATM   17  C   UNL     1      23.354  43.701  49.820  1.00  0.00     0.018 A 
HETATM   18  C   UNL     1      24.628  48.011  49.604  1.00  0.00     0.146 A 
ENDBRANCH   8   9
ENDBRANCH   1   8
BRANCH   5  19
HETATM   19  C   UNL     1      18.656  51.274  49.100  1.00  0.00    -0.024 A 
HETATM   20  C   UNL     1      17.485  50.826  48.389  1.00  0.00     0.018 A 
HETATM   21  C   UNL     1      17.225  51.754  47.389  1.00  0.00     0.138 A 
HETATM   22  C   UNL     1      16.608  49.729  48.474  1.00  0.00     0.017 A 
HETATM   23  N   UNL     1      16.216  51.751  46.501  1.00  0.00    -0.242 NA
HETATM   24  N   UNL     1      18.199  52.705  47.430  1.00  0.00    -0.350 N 
HETATM   25  C   UNL     1      15.401  50.682  46.632  1.00  0.00     0.119 A 
HETATM   26  C   UNL     1      15.546  49.669  47.570  1.00  0.00     0.020 A 
HETATM   27  H   UNL     1      18.253  53.471  46.773  1.00  0.00     0.166 HD
HETATM   28  C   UNL     1      19.078  52.426  48.450  1.00  0.00     0.098 A 
ENDBRANCH   5  19
TORSDOF 3
ENDMDL
