MODEL 1
REMARK VINA RESULT:      -8.9      0.000      0.000
REMARK  7 active torsions:
REMARK  status: ('A' for Active; 'I' for Inactive)
REMARK    1  A    between atoms: C_2  and  C_3 
REMARK    2  A    between atoms: C_4  and  N_5 
REMARK       I    between atoms: N_5  and  C_6 
REMARK    3  A    between atoms: C_6  and  C_7 
REMARK    4  A    between atoms: C_8  and  N_9 
REMARK       I    between atoms: N_9  and  C_10 
REMARK    5  A    between atoms: C_10  and  C_11 
REMARK    6  A    between atoms: C_11  and  N_12 
REMARK    7  A    between atoms: C_25  and  C_26 
ROOT
HETATM    1  C   UNL     1      24.138  46.977  49.575  1.00  0.00     0.073 A 
HETATM    2  C   UNL     1      23.775  45.755  49.035  1.00  0.00     0.093 A 
HETATM    3  S   UNL     1      22.305  45.783  48.191  1.00  0.00    -0.075 SA
HETATM    4  C   UNL     1      22.138  47.455  48.436  1.00  0.00    -0.008 A 
HETATM    5  C   UNL     1      23.161  47.988  49.198  1.00  0.00    -0.026 A 
HETATM    6  C   UNL     1      23.131  49.433  49.606  1.00  0.00     0.041 C 
HETATM    7  C   UNL     1      21.712  50.024  49.518  1.00  0.00     0.010 C 
HETATM    8  C   UNL     1      21.039  49.720  48.151  1.00  0.00    -0.002 C 
HETATM    9  C   UNL     1      20.922  48.185  47.945  1.00  0.00     0.052 C 
ENDROOT
BRANCH   1  10
HETATM   10  C   UNL     1      25.264  47.139  50.510  1.00  0.00     0.259 C 
HETATM   11  N   UNL     1      25.027  46.603  51.760  1.00  0.00    -0.322 N 
HETATM   12  H   UNL     1      24.074  46.319  51.934  1.00  0.00     0.169 HD
HETATM   13  O   UNL     1      26.281  47.732  50.156  1.00  0.00    -0.267 OA
BRANCH  11  14
HETATM   14  C   UNL     1      25.928  46.494  52.847  1.00  0.00     0.041 A 
HETATM   15  C   UNL     1      26.743  45.344  52.960  1.00  0.00    -0.032 A 
HETATM   16  C   UNL     1      27.630  45.234  54.049  1.00  0.00     0.009 A 
HETATM   17  C   UNL     1      27.734  46.248  54.998  1.00  0.00     0.001 A 
HETATM   18  C   UNL     1      26.954  47.389  54.872  1.00  0.00     0.002 A 
HETATM   19  C   UNL     1      26.060  47.510  53.804  1.00  0.00     0.030 A 
BRANCH  15  20
HETATM   20  C   UNL     1      26.708  44.190  51.979  1.00  0.00     0.036 C 
HETATM   21  C   UNL     1      27.643  44.413  50.800  1.00  0.00     0.010 C 
ENDBRANCH  15  20
ENDBRANCH  11  14
ENDBRANCH   1  10
BRANCH   2  22
HETATM   22  N   UNL     1      24.322  44.492  49.084  1.00  0.00    -0.319 N 
HETATM   23  C   UNL     1      23.901  43.548  49.993  1.00  0.00     0.248 C 
HETATM   24  O   UNL     1      23.355  43.770  51.074  1.00  0.00    -0.271 OA
HETATM   25  H   UNL     1      25.183  44.367  48.565  1.00  0.00     0.169 HD
BRANCH  23  26
HETATM   26  C   UNL     1      24.200  42.111  49.575  1.00  0.00     0.337 C 
BRANCH  26  27
HETATM   27  N   UNL     1      25.700  41.835  49.536  1.00  0.00    -0.059 N 
HETATM   28  H   UNL     1      26.145  42.734  49.783  1.00  0.00     0.280 HD
HETATM   29  C   UNL     1      26.143  40.851  50.621  1.00  0.00     0.261 C 
HETATM   30  C   UNL     1      27.657  40.635  50.520  1.00  0.00     0.195 C 
HETATM   31  O   UNL     1      28.025  40.177  49.212  1.00  0.00    -0.388 OA
HETATM   32  C   UNL     1      27.685  41.134  48.204  1.00  0.00     0.195 C 
HETATM   33  C   UNL     1      26.175  41.383  48.172  1.00  0.00     0.261 C 
ENDBRANCH  26  27
ENDBRANCH  23  26
ENDBRANCH   2  22
BRANCH   8  34
HETATM   34  C   UNL     1      19.670  50.473  47.939  1.00  0.00    -0.047 C 
HETATM   35  C   UNL     1      18.552  49.780  48.747  1.00  0.00     0.015 C 
HETATM   36  C   UNL     1      19.768  51.928  48.449  1.00  0.00     0.015 C 
HETATM   37  C   UNL     1      19.237  50.510  46.461  1.00  0.00     0.015 C 
ENDBRANCH   8  34
TORSDOF 7
ENDMDL
MODEL 2
REMARK VINA RESULT:      -8.9      2.946      7.808
REMARK  7 active torsions:
REMARK  status: ('A' for Active; 'I' for Inactive)
REMARK    1  A    between atoms: C_2  and  C_3 
REMARK    2  A    between atoms: C_4  and  N_5 
REMARK       I    between atoms: N_5  and  C_6 
REMARK    3  A    between atoms: C_6  and  C_7 
REMARK    4  A    between atoms: C_8  and  N_9 
REMARK       I    between atoms: N_9  and  C_10 
REMARK    5  A    between atoms: C_10  and  C_11 
REMARK    6  A    between atoms: C_11  and  N_12 
REMARK    7  A    between atoms: C_25  and  C_26 
ROOT
HETATM    1  C   UNL     1      26.378  43.434  50.177  1.00  0.00     0.073 A 
HETATM    2  C   UNL     1      25.292  43.857  49.428  1.00  0.00     0.093 A 
HETATM    3  S   UNL     1      24.700  42.687  48.352  1.00  0.00    -0.075 SA
HETATM    4  C   UNL     1      25.816  41.535  48.910  1.00  0.00    -0.008 A 
HETATM    5  C   UNL     1      26.672  42.042  49.870  1.00  0.00    -0.026 A 
HETATM    6  C   UNL     1      27.793  41.201  50.408  1.00  0.00     0.041 C 
HETATM    7  C   UNL     1      28.135  40.031  49.466  1.00  0.00     0.010 C 
HETATM    8  C   UNL     1      26.870  39.235  49.044  1.00  0.00    -0.002 C 
HETATM    9  C   UNL     1      25.880  40.168  48.294  1.00  0.00     0.052 C 
ENDROOT
BRANCH   1  10
HETATM   10  C   UNL     1      27.172  44.341  51.021  1.00  0.00     0.259 C 
HETATM   11  N   UNL     1      26.819  44.307  52.355  1.00  0.00    -0.322 N 
HETATM   12  H   UNL     1      25.969  43.803  52.564  1.00  0.00     0.169 HD
HETATM   13  O   UNL     1      28.036  45.058  50.518  1.00  0.00    -0.267 OA
BRANCH  11  14
HETATM   14  C   UNL     1      27.444  44.969  53.440  1.00  0.00     0.041 A 
HETATM   15  C   UNL     1      28.451  44.299  54.173  1.00  0.00    -0.032 A 
HETATM   16  C   UNL     1      29.063  44.957  55.259  1.00  0.00     0.009 A 
HETATM   17  C   UNL     1      28.710  46.259  55.604  1.00  0.00     0.001 A 
HETATM   18  C   UNL     1      27.742  46.925  54.867  1.00  0.00     0.002 A 
HETATM   19  C   UNL     1      27.116  46.285  53.794  1.00  0.00     0.030 A 
BRANCH  15  20
HETATM   20  C   UNL     1      28.908  42.887  53.875  1.00  0.00     0.036 C 
HETATM   21  C   UNL     1      30.139  42.860  52.980  1.00  0.00     0.010 C 
ENDBRANCH  15  20
ENDBRANCH  11  14
ENDBRANCH   1  10
BRANCH   2  22
HETATM   22  N   UNL     1      24.617  45.052  49.320  1.00  0.00    -0.319 N 
HETATM   23  C   UNL     1      24.359  45.847  50.412  1.00  0.00     0.248 C 
HETATM   24  O   UNL     1      24.292  45.476  51.585  1.00  0.00    -0.271 OA
HETATM   25  H   UNL     1      24.141  45.208  48.438  1.00  0.00     0.169 HD
BRANCH  23  26
HETATM   26  C   UNL     1      24.108  47.312  50.065  1.00  0.00     0.337 C 
BRANCH  26  27
HETATM   27  N   UNL     1      25.281  47.919  49.301  1.00  0.00    -0.059 N 
HETATM   28  H   UNL     1      25.413  47.306  48.479  1.00  0.00     0.280 HD
HETATM   29  C   UNL     1      24.954  49.300  48.728  1.00  0.00     0.261 C 
HETATM   30  C   UNL     1      26.176  49.834  47.971  1.00  0.00     0.195 C 
HETATM   31  O   UNL     1      27.329  49.877  48.820  1.00  0.00    -0.388 OA
HETATM   32  C   UNL     1      27.685  48.573  49.291  1.00  0.00     0.195 C 
HETATM   33  C   UNL     1      26.552  47.963  50.121  1.00  0.00     0.261 C 
ENDBRANCH  26  27
ENDBRANCH  23  26
ENDBRANCH   2  22
BRANCH   8  34
HETATM   34  C   UNL     1      27.192  37.914  48.245  1.00  0.00    -0.047 C 
HETATM   35  C   UNL     1      26.397  37.887  46.922  1.00  0.00     0.015 C 
HETATM   36  C   UNL     1      28.691  37.854  47.880  1.00  0.00     0.015 C 
HETATM   37  C   UNL     1      26.839  36.641  49.040  1.00  0.00     0.015 C 
ENDBRANCH   8  34
TORSDOF 7
ENDMDL
MODEL 3
REMARK VINA RESULT:      -8.7      3.535      9.059
REMARK  7 active torsions:
REMARK  status: ('A' for Active; 'I' for Inactive)
REMARK    1  A    between atoms: C_2  and  C_3 
REMARK    2  A    between atoms: C_4  and  N_5 
REMARK       I    between atoms: N_5  and  C_6 
REMARK    3  A    between atoms: C_6  and  C_7 
REMARK    4  A    between atoms: C_8  and  N_9 
REMARK       I    between atoms: N_9  and  C_10 
REMARK    5  A    between atoms: C_10  and  C_11 
REMARK    6  A    between atoms: C_11  and  N_12 
REMARK    7  A    between atoms: C_25  and  C_26 
ROOT
HETATM    1  C   UNL     1      26.883  43.402  51.458  1.00  0.00     0.073 A 
HETATM    2  C   UNL     1      27.933  43.662  52.322  1.00  0.00     0.093 A 
HETATM    3  S   UNL     1      29.053  42.395  52.447  1.00  0.00    -0.075 SA
HETATM    4  C   UNL     1      28.226  41.481  51.279  1.00  0.00    -0.008 A 
HETATM    5  C   UNL     1      27.076  42.104  50.830  1.00  0.00    -0.026 A 
HETATM    6  C   UNL     1      26.158  41.402  49.871  1.00  0.00     0.041 C 
HETATM    7  C   UNL     1      26.377  39.879  49.877  1.00  0.00     0.010 C 
HETATM    8  C   UNL     1      27.878  39.505  49.731  1.00  0.00    -0.002 C 
HETATM    9  C   UNL     1      28.692  40.103  50.911  1.00  0.00     0.052 C 
ENDROOT
BRANCH   1  10
HETATM   10  C   UNL     1      25.699  44.271  51.349  1.00  0.00     0.259 C 
HETATM   11  N   UNL     1      25.692  45.058  50.215  1.00  0.00    -0.322 N 
HETATM   12  H   UNL     1      26.556  45.068  49.692  1.00  0.00     0.169 HD
HETATM   13  O   UNL     1      24.847  44.270  52.236  1.00  0.00    -0.267 OA
BRANCH  11  14
HETATM   14  C   UNL     1      24.665  45.918  49.756  1.00  0.00     0.041 A 
HETATM   15  C   UNL     1      23.640  45.396  48.934  1.00  0.00    -0.032 A 
HETATM   16  C   UNL     1      22.625  46.258  48.470  1.00  0.00     0.009 A 
HETATM   17  C   UNL     1      22.604  47.603  48.829  1.00  0.00     0.001 A 
HETATM   18  C   UNL     1      23.594  48.108  49.658  1.00  0.00     0.002 A 
HETATM   19  C   UNL     1      24.615  47.272  50.118  1.00  0.00     0.030 A 
BRANCH  15  20
HETATM   20  C   UNL     1      23.571  43.949  48.493  1.00  0.00     0.036 C 
HETATM   21  C   UNL     1      22.757  43.095  49.454  1.00  0.00     0.010 C 
ENDBRANCH  15  20
ENDBRANCH  11  14
ENDBRANCH   1  10
BRANCH   2  22
HETATM   22  N   UNL     1      28.241  44.712  53.158  1.00  0.00    -0.319 N 
HETATM   23  C   UNL     1      27.922  44.698  54.497  1.00  0.00     0.248 C 
HETATM   24  O   UNL     1      27.026  44.039  55.025  1.00  0.00    -0.271 OA
HETATM   25  H   UNL     1      28.520  45.571  52.699  1.00  0.00     0.169 HD
BRANCH  23  26
HETATM   26  C   UNL     1      28.775  45.636  55.345  1.00  0.00     0.337 C 
BRANCH  26  27
HETATM   27  N   UNL     1      29.576  44.875  56.397  1.00  0.00    -0.059 N 
HETATM   28  H   UNL     1      28.892  44.252  56.856  1.00  0.00     0.280 HD
HETATM   29  C   UNL     1      30.619  43.942  55.777  1.00  0.00     0.261 C 
HETATM   30  C   UNL     1      31.371  43.211  56.895  1.00  0.00     0.195 C 
HETATM   31  O   UNL     1      31.972  44.141  57.805  1.00  0.00    -0.388 OA
HETATM   32  C   UNL     1      30.988  44.959  58.448  1.00  0.00     0.195 C 
HETATM   33  C   UNL     1      30.211  45.788  57.422  1.00  0.00     0.261 C 
ENDBRANCH  26  27
ENDBRANCH  23  26
ENDBRANCH   2  22
BRANCH   8  34
HETATM   34  C   UNL     1      28.130  37.962  49.532  1.00  0.00    -0.047 C 
HETATM   35  C   UNL     1      28.576  37.680  48.081  1.00  0.00     0.015 C 
HETATM   36  C   UNL     1      29.262  37.474  50.461  1.00  0.00     0.015 C 
HETATM   37  C   UNL     1      26.874  37.115  49.818  1.00  0.00     0.015 C 
ENDBRANCH   8  34
TORSDOF 7
ENDMDL
MODEL 4
REMARK VINA RESULT:      -8.6      2.165      7.636
REMARK  7 active torsions:
REMARK  status: ('A' for Active; 'I' for Inactive)
REMARK    1  A    between atoms: C_2  and  C_3 
REMARK    2  A    between atoms: C_4  and  N_5 
REMARK       I    between atoms: N_5  and  C_6 
REMARK    3  A    between atoms: C_6  and  C_7 
REMARK    4  A    between atoms: C_8  and  N_9 
REMARK       I    between atoms: N_9  and  C_10 
REMARK    5  A    between atoms: C_10  and  C_11 
REMARK    6  A    between atoms: C_11  and  N_12 
REMARK    7  A    between atoms: C_25  and  C_26 
ROOT
HETATM    1  C   UNL     1      25.158  43.690  51.146  1.00  0.00     0.073 A 
HETATM    2  C   UNL     1      24.472  44.430  50.197  1.00  0.00     0.093 A 
HETATM    3  S   UNL     1      24.452  43.724  48.655  1.00  0.00    -0.075 SA
HETATM    4  C   UNL     1      25.282  42.353  49.217  1.00  0.00    -0.008 A 
HETATM    5  C   UNL     1      25.624  42.446  50.553  1.00  0.00    -0.026 A 
HETATM    6  C   UNL     1      26.452  41.374  51.201  1.00  0.00     0.041 C 
HETATM    7  C   UNL     1      27.219  40.535  50.162  1.00  0.00     0.010 C 
HETATM    8  C   UNL     1      26.295  40.039  49.017  1.00  0.00    -0.002 C 
HETATM    9  C   UNL     1      25.671  41.252  48.273  1.00  0.00     0.052 C 
ENDROOT
BRANCH   1  10
HETATM   10  C   UNL     1      25.472  44.203  52.490  1.00  0.00     0.259 C 
HETATM   11  N   UNL     1      26.733  44.756  52.590  1.00  0.00    -0.322 N 
HETATM   12  H   UNL     1      27.338  44.598  51.798  1.00  0.00     0.169 HD
HETATM   13  O   UNL     1      24.654  44.092  53.401  1.00  0.00    -0.267 OA
BRANCH  11  14
HETATM   14  C   UNL     1      27.305  45.427  53.698  1.00  0.00     0.041 A 
HETATM   15  C   UNL     1      28.326  44.792  54.442  1.00  0.00    -0.032 A 
HETATM   16  C   UNL     1      28.885  45.458  55.551  1.00  0.00     0.009 A 
HETATM   17  C   UNL     1      28.467  46.737  55.908  1.00  0.00     0.001 A 
HETATM   18  C   UNL     1      27.484  47.371  55.162  1.00  0.00     0.002 A 
HETATM   19  C   UNL     1      26.910  46.721  54.066  1.00  0.00     0.030 A 
BRANCH  15  20
HETATM   20  C   UNL     1      28.853  43.407  54.131  1.00  0.00     0.036 C 
HETATM   21  C   UNL     1      30.260  43.195  54.672  1.00  0.00     0.010 C 
ENDBRANCH  15  20
ENDBRANCH  11  14
ENDBRANCH   1  10
BRANCH   2  22
HETATM   22  N   UNL     1      23.847  45.657  50.215  1.00  0.00    -0.319 N 
HETATM   23  C   UNL     1      24.548  46.836  50.109  1.00  0.00     0.248 C 
HETATM   24  O   UNL     1      25.734  47.007  50.395  1.00  0.00    -0.271 OA
HETATM   25  H   UNL     1      22.881  45.652  50.520  1.00  0.00     0.169 HD
BRANCH  23  26
HETATM   26  C   UNL     1      23.710  48.011  49.615  1.00  0.00     0.337 C 
BRANCH  26  27
HETATM   27  N   UNL     1      22.319  47.566  49.175  1.00  0.00    -0.059 N 
HETATM   28  H   UNL     1      22.022  46.873  49.881  1.00  0.00     0.280 HD
HETATM   29  C   UNL     1      21.289  48.696  49.258  1.00  0.00     0.261 C 
HETATM   30  C   UNL     1      19.922  48.167  48.809  1.00  0.00     0.195 C 
HETATM   31  O   UNL     1      19.992  47.615  47.488  1.00  0.00    -0.388 OA
HETATM   32  C   UNL     1      20.894  46.505  47.428  1.00  0.00     0.195 C 
HETATM   33  C   UNL     1      22.316  46.935  47.799  1.00  0.00     0.261 C 
ENDBRANCH  26  27
ENDBRANCH  23  26
ENDBRANCH   2  22
BRANCH   8  34
HETATM   34  C   UNL     1      26.991  39.015  48.042  1.00  0.00    -0.047 C 
HETATM   35  C   UNL     1      27.772  39.771  46.945  1.00  0.00     0.015 C 
HETATM   36  C   UNL     1      28.009  38.143  48.809  1.00  0.00     0.015 C 
HETATM   37  C   UNL     1      25.982  38.078  47.349  1.00  0.00     0.015 C 
ENDBRANCH   8  34
TORSDOF 7
ENDMDL
MODEL 5
REMARK VINA RESULT:      -8.5      1.164      1.606
REMARK  7 active torsions:
REMARK  status: ('A' for Active; 'I' for Inactive)
REMARK    1  A    between atoms: C_2  and  C_3 
REMARK    2  A    between atoms: C_4  and  N_5 
REMARK       I    between atoms: N_5  and  C_6 
REMARK    3  A    between atoms: C_6  and  C_7 
REMARK    4  A    between atoms: C_8  and  N_9 
REMARK       I    between atoms: N_9  and  C_10 
REMARK    5  A    between atoms: C_10  and  C_11 
REMARK    6  A    between atoms: C_11  and  N_12 
REMARK    7  A    between atoms: C_25  and  C_26 
ROOT
HETATM    1  C   UNL     1      24.568  46.559  49.903  1.00  0.00     0.073 A 
HETATM    2  C   UNL     1      24.539  45.237  49.489  1.00  0.00     0.093 A 
HETATM    3  S   UNL     1      23.220  44.857  48.492  1.00  0.00    -0.075 SA
HETATM    4  C   UNL     1      22.685  46.468  48.499  1.00  0.00    -0.008 A 
HETATM    5  C   UNL     1      23.465  47.287  49.294  1.00  0.00    -0.026 A 
HETATM    6  C   UNL     1      23.086  48.725  49.506  1.00  0.00     0.041 C 
HETATM    7  C   UNL     1      21.602  48.979  49.186  1.00  0.00     0.010 C 
HETATM    8  C   UNL     1      21.195  48.397  47.805  1.00  0.00    -0.002 C 
HETATM    9  C   UNL     1      21.423  46.860  47.787  1.00  0.00     0.052 C 
ENDROOT
BRANCH   1  10
HETATM   10  C   UNL     1      25.501  47.058  50.926  1.00  0.00     0.259 C 
HETATM   11  N   UNL     1      25.329  46.473  52.165  1.00  0.00    -0.322 N 
HETATM   12  H   UNL     1      24.496  45.910  52.264  1.00  0.00     0.169 HD
HETATM   13  O   UNL     1      26.315  47.936  50.646  1.00  0.00    -0.267 OA
BRANCH  11  14
HETATM   14  C   UNL     1      26.117  46.646  53.328  1.00  0.00     0.041 A 
HETATM   15  C   UNL     1      27.115  45.692  53.637  1.00  0.00    -0.032 A 
HETATM   16  C   UNL     1      27.890  45.862  54.802  1.00  0.00     0.009 A 
HETATM   17  C   UNL     1      27.707  46.962  55.635  1.00  0.00     0.001 A 
HETATM   18  C   UNL     1      26.747  47.912  55.317  1.00  0.00     0.002 A 
HETATM   19  C   UNL     1      25.961  47.755  54.173  1.00  0.00     0.030 A 
BRANCH  15  20
HETATM   20  C   UNL     1      27.395  44.466  52.794  1.00  0.00     0.036 C 
HETATM   21  C   UNL     1      27.523  43.207  53.638  1.00  0.00     0.010 C 
ENDBRANCH  15  20
ENDBRANCH  11  14
ENDBRANCH   1  10
BRANCH   2  22
HETATM   22  N   UNL     1      25.320  44.136  49.760  1.00  0.00    -0.319 N 
HETATM   23  C   UNL     1      24.980  43.220  50.729  1.00  0.00     0.248 C 
HETATM   24  O   UNL     1      24.256  43.425  51.704  1.00  0.00    -0.271 OA
HETATM   25  H   UNL     1      26.252  44.151  49.363  1.00  0.00     0.169 HD
BRANCH  23  26
HETATM   26  C   UNL     1      25.620  41.849  50.534  1.00  0.00     0.337 C 
BRANCH  26  27
HETATM   27  N   UNL     1      26.109  41.653  49.103  1.00  0.00    -0.059 N 
HETATM   28  H   UNL     1      26.193  42.606  48.714  1.00  0.00     0.280 HD
HETATM   29  C   UNL     1      27.521  41.065  49.041  1.00  0.00     0.261 C 
HETATM   30  C   UNL     1      27.940  40.908  47.574  1.00  0.00     0.195 C 
HETATM   31  O   UNL     1      27.000  40.098  46.855  1.00  0.00    -0.388 OA
HETATM   32  C   UNL     1      25.697  40.689  46.842  1.00  0.00     0.195 C 
HETATM   33  C   UNL     1      25.149  40.837  48.264  1.00  0.00     0.261 C 
ENDBRANCH  26  27
ENDBRANCH  23  26
ENDBRANCH   2  22
BRANCH   8  34
HETATM   34  C   UNL     1      19.743  48.806  47.349  1.00  0.00    -0.047 C 
HETATM   35  C   UNL     1      19.283  47.914  46.176  1.00  0.00     0.015 C 
HETATM   36  C   UNL     1      18.735  48.602  48.502  1.00  0.00     0.015 C 
HETATM   37  C   UNL     1      19.658  50.276  46.892  1.00  0.00     0.015 C 
ENDBRANCH   8  34
TORSDOF 7
ENDMDL
MODEL 6
REMARK VINA RESULT:      -8.4      2.495      8.227
REMARK  7 active torsions:
REMARK  status: ('A' for Active; 'I' for Inactive)
REMARK    1  A    between atoms: C_2  and  C_3 
REMARK    2  A    between atoms: C_4  and  N_5 
REMARK       I    between atoms: N_5  and  C_6 
REMARK    3  A    between atoms: C_6  and  C_7 
REMARK    4  A    between atoms: C_8  and  N_9 
REMARK       I    between atoms: N_9  and  C_10 
REMARK    5  A    between atoms: C_10  and  C_11 
REMARK    6  A    between atoms: C_11  and  N_12 
REMARK    7  A    between atoms: C_25  and  C_26 
ROOT
HETATM    1  C   UNL     1      26.475  43.117  50.160  1.00  0.00     0.073 A 
HETATM    2  C   UNL     1      25.495  43.442  49.238  1.00  0.00     0.093 A 
HETATM    3  S   UNL     1      25.018  42.145  48.254  1.00  0.00    -0.075 SA
HETATM    4  C   UNL     1      26.040  41.073  49.085  1.00  0.00    -0.008 A 
HETATM    5  C   UNL     1      26.782  41.698  50.070  1.00  0.00    -0.026 A 
HETATM    6  C   UNL     1      27.817  40.931  50.842  1.00  0.00     0.041 C 
HETATM    7  C   UNL     1      28.251  39.652  50.105  1.00  0.00     0.010 C 
HETATM    8  C   UNL     1      27.034  38.808  49.635  1.00  0.00    -0.002 C 
HETATM    9  C   UNL     1      26.157  39.638  48.659  1.00  0.00     0.052 C 
ENDROOT
BRANCH   1  10
HETATM   10  C   UNL     1      27.176  44.125  50.974  1.00  0.00     0.259 C 
HETATM   11  N   UNL     1      26.797  44.126  52.301  1.00  0.00    -0.322 N 
HETATM   12  H   UNL     1      25.985  43.565  52.519  1.00  0.00     0.169 HD
HETATM   13  O   UNL     1      27.991  44.884  50.452  1.00  0.00    -0.267 OA
BRANCH  11  14
HETATM   14  C   UNL     1      27.343  44.886  53.364  1.00  0.00     0.041 A 
HETATM   15  C   UNL     1      28.395  44.342  54.136  1.00  0.00    -0.032 A 
HETATM   16  C   UNL     1      28.929  45.097  55.199  1.00  0.00     0.009 A 
HETATM   17  C   UNL     1      28.455  46.375  55.484  1.00  0.00     0.001 A 
HETATM   18  C   UNL     1      27.441  46.919  54.709  1.00  0.00     0.002 A 
HETATM   19  C   UNL     1      26.892  46.181  53.658  1.00  0.00     0.030 A 
BRANCH  15  20
HETATM   20  C   UNL     1      28.984  42.966  53.903  1.00  0.00     0.036 C 
HETATM   21  C   UNL     1      30.182  43.006  52.966  1.00  0.00     0.010 C 
ENDBRANCH  15  20
ENDBRANCH  11  14
ENDBRANCH   1  10
BRANCH   2  22
HETATM   22  N   UNL     1      24.856  44.613  48.898  1.00  0.00    -0.319 N 
HETATM   23  C   UNL     1      24.300  45.444  49.844  1.00  0.00     0.248 C 
HETATM   24  O   UNL     1      23.924  45.117  50.970  1.00  0.00    -0.271 OA
HETATM   25  H   UNL     1      24.635  44.723  47.915  1.00  0.00     0.169 HD
BRANCH  23  26
HETATM   26  C   UNL     1      24.132  46.887  49.377  1.00  0.00     0.337 C 
BRANCH  26  27
HETATM   27  N   UNL     1      22.665  47.304  49.352  1.00  0.00    -0.059 N 
HETATM   28  H   UNL     1      22.305  47.081  50.295  1.00  0.00     0.280 HD
HETATM   29  C   UNL     1      22.488  48.816  49.199  1.00  0.00     0.261 C 
HETATM   30  C   UNL     1      20.992  49.152  49.192  1.00  0.00     0.195 C 
HETATM   31  O   UNL     1      20.309  48.435  48.155  1.00  0.00    -0.388 OA
HETATM   32  C   UNL     1      20.404  47.019  48.343  1.00  0.00     0.195 C 
HETATM   33  C   UNL     1      21.863  46.559  48.306  1.00  0.00     0.261 C 
ENDBRANCH  26  27
ENDBRANCH  23  26
ENDBRANCH   2  22
BRANCH   8  34
HETATM   34  C   UNL     1      27.429  37.397  49.055  1.00  0.00    -0.047 C 
HETATM   35  C   UNL     1      28.555  37.548  48.010  1.00  0.00     0.015 C 
HETATM   36  C   UNL     1      27.967  36.482  50.178  1.00  0.00     0.015 C 
HETATM   37  C   UNL     1      26.243  36.681  48.379  1.00  0.00     0.015 C 
ENDBRANCH   8  34
TORSDOF 7
ENDMDL
MODEL 7
REMARK VINA RESULT:      -8.4      2.458      7.229
REMARK  7 active torsions:
REMARK  status: ('A' for Active; 'I' for Inactive)
REMARK    1  A    between atoms: C_2  and  C_3 
REMARK    2  A    between atoms: C_4  and  N_5 
REMARK       I    between atoms: N_5  and  C_6 
REMARK    3  A    between atoms: C_6  and  C_7 
REMARK    4  A    between atoms: C_8  and  N_9 
REMARK       I    between atoms: N_9  and  C_10 
REMARK    5  A    between atoms: C_10  and  C_11 
REMARK    6  A    between atoms: C_11  and  N_12 
REMARK    7  A    between atoms: C_25  and  C_26 
ROOT
HETATM    1  C   UNL     1      24.381  46.464  50.204  1.00  0.00     0.073 A 
HETATM    2  C   UNL     1      23.444  47.260  49.566  1.00  0.00     0.093 A 
HETATM    3  S   UNL     1      22.586  46.466  48.338  1.00  0.00    -0.075 SA
HETATM    4  C   UNL     1      23.369  44.996  48.672  1.00  0.00    -0.008 A 
HETATM    5  C   UNL     1      24.317  45.111  49.672  1.00  0.00    -0.026 A 
HETATM    6  C   UNL     1      25.184  43.940  50.035  1.00  0.00     0.041 C 
HETATM    7  C   UNL     1      25.227  42.889  48.911  1.00  0.00     0.010 C 
HETATM    8  C   UNL     1      23.806  42.514  48.408  1.00  0.00    -0.002 C 
HETATM    9  C   UNL     1      23.091  43.774  47.846  1.00  0.00     0.052 C 
ENDROOT
BRANCH   1  10
HETATM   10  C   UNL     1      25.371  46.995  51.155  1.00  0.00     0.259 C 
HETATM   11  N   UNL     1      25.336  46.382  52.392  1.00  0.00    -0.322 N 
HETATM   12  H   UNL     1      24.545  45.773  52.549  1.00  0.00     0.169 HD
HETATM   13  O   UNL     1      26.112  47.920  50.826  1.00  0.00    -0.267 OA
BRANCH  11  14
HETATM   14  C   UNL     1      26.211  46.577  53.487  1.00  0.00     0.041 A 
HETATM   15  C   UNL     1      27.232  45.631  53.736  1.00  0.00    -0.032 A 
HETATM   16  C   UNL     1      28.094  45.823  54.835  1.00  0.00     0.009 A 
HETATM   17  C   UNL     1      27.972  46.938  55.659  1.00  0.00     0.001 A 
HETATM   18  C   UNL     1      26.988  47.880  55.399  1.00  0.00     0.002 A 
HETATM   19  C   UNL     1      26.116  47.701  54.321  1.00  0.00     0.030 A 
BRANCH  15  20
HETATM   20  C   UNL     1      27.450  44.390  52.896  1.00  0.00     0.036 C 
HETATM   21  C   UNL     1      28.376  43.393  53.577  1.00  0.00     0.010 C 
ENDBRANCH  15  20
ENDBRANCH  11  14
ENDBRANCH   1  10
BRANCH   2  22
HETATM   22  N   UNL     1      23.094  48.588  49.669  1.00  0.00    -0.319 N 
HETATM   23  C   UNL     1      23.442  49.512  48.711  1.00  0.00     0.248 C 
HETATM   24  O   UNL     1      24.385  49.426  47.923  1.00  0.00    -0.271 OA
HETATM   25  H   UNL     1      22.757  48.883  50.578  1.00  0.00     0.169 HD
BRANCH  23  26
HETATM   26  C   UNL     1      22.554  50.753  48.698  1.00  0.00     0.337 C 
BRANCH  26  27
HETATM   27  N   UNL     1      21.079  50.393  48.841  1.00  0.00    -0.059 N 
HETATM   28  H   UNL     1      21.069  49.387  49.077  1.00  0.00     0.280 HD
HETATM   29  C   UNL     1      20.417  51.093  50.030  1.00  0.00     0.261 C 
HETATM   30  C   UNL     1      18.944  50.673  50.109  1.00  0.00     0.195 C 
HETATM   31  O   UNL     1      18.261  50.961  48.882  1.00  0.00    -0.388 OA
HETATM   32  C   UNL     1      18.829  50.241  47.782  1.00  0.00     0.195 C 
HETATM   33  C   UNL     1      20.293  50.632  47.570  1.00  0.00     0.261 C 
ENDBRANCH  26  27
ENDBRANCH  23  26
ENDBRANCH   2  22
BRANCH   8  34
HETATM   34  C   UNL     1      23.791  41.301  47.402  1.00  0.00    -0.047 C 
HETATM   35  C   UNL     1      23.970  41.809  45.954  1.00  0.00     0.015 C 
HETATM   36  C   UNL     1      24.962  40.339  47.697  1.00  0.00     0.015 C 
HETATM   37  C   UNL     1      22.479  40.495  47.465  1.00  0.00     0.015 C 
ENDBRANCH   8  34
TORSDOF 7
ENDMDL
MODEL 8
REMARK VINA RESULT:      -8.3      1.711      2.175
REMARK  7 active torsions:
REMARK  status: ('A' for Active; 'I' for Inactive)
REMARK    1  A    between atoms: C_2  and  C_3 
REMARK    2  A    between atoms: C_4  and  N_5 
REMARK       I    between atoms: N_5  and  C_6 
REMARK    3  A    between atoms: C_6  and  C_7 
REMARK    4  A    between atoms: C_8  and  N_9 
REMARK       I    between atoms: N_9  and  C_10 
REMARK    5  A    between atoms: C_10  and  C_11 
REMARK    6  A    between atoms: C_11  and  N_12 
REMARK    7  A    between atoms: C_25  and  C_26 
ROOT
HETATM    1  C   UNL     1      23.724  47.295  49.412  1.00  0.00     0.073 A 
HETATM    2  C   UNL     1      23.372  46.103  48.802  1.00  0.00     0.093 A 
HETATM    3  S   UNL     1      21.904  46.170  47.954  1.00  0.00    -0.075 SA
HETATM    4  C   UNL     1      21.726  47.824  48.293  1.00  0.00    -0.008 A 
HETATM    5  C   UNL     1      22.743  48.319  49.089  1.00  0.00    -0.026 A 
HETATM    6  C   UNL     1      22.701  49.738  49.578  1.00  0.00     0.041 C 
HETATM    7  C   UNL     1      21.279  50.325  49.517  1.00  0.00     0.010 C 
HETATM    8  C   UNL     1      20.613  50.095  48.133  1.00  0.00    -0.002 C 
HETATM    9  C   UNL     1      20.507  48.573  47.839  1.00  0.00     0.052 C 
ENDROOT
BRANCH   1  10
HETATM   10  C   UNL     1      24.846  47.411  50.359  1.00  0.00     0.259 C 
HETATM   11  N   UNL     1      24.689  46.646  51.498  1.00  0.00    -0.322 N 
HETATM   12  H   UNL     1      23.774  46.239  51.622  1.00  0.00     0.169 HD
HETATM   13  O   UNL     1      25.790  48.158  50.112  1.00  0.00    -0.267 OA
BRANCH  11  14
HETATM   14  C   UNL     1      25.617  46.447  52.549  1.00  0.00     0.041 A 
HETATM   15  C   UNL     1      26.448  45.304  52.533  1.00  0.00    -0.032 A 
HETATM   16  C   UNL     1      27.363  45.103  53.586  1.00  0.00     0.009 A 
HETATM   17  C   UNL     1      27.478  46.024  54.625  1.00  0.00     0.001 A 
HETATM   18  C   UNL     1      26.681  47.160  54.626  1.00  0.00     0.002 A 
HETATM   19  C   UNL     1      25.760  47.369  53.596  1.00  0.00     0.030 A 
BRANCH  15  20
HETATM   20  C   UNL     1      26.404  44.249  51.447  1.00  0.00     0.036 C 
HETATM   21  C   UNL     1      27.297  44.603  50.267  1.00  0.00     0.010 C 
ENDBRANCH  15  20
ENDBRANCH  11  14
ENDBRANCH   1  10
BRANCH   2  22
HETATM   22  N   UNL     1      23.926  44.843  48.782  1.00  0.00    -0.319 N 
HETATM   23  C   UNL     1      23.497  43.841  49.622  1.00  0.00     0.248 C 
HETATM   24  O   UNL     1      22.932  43.992  50.706  1.00  0.00    -0.271 OA
HETATM   25  H   UNL     1      24.798  44.755  48.271  1.00  0.00     0.169 HD
BRANCH  23  26
HETATM   26  C   UNL     1      23.813  42.436  49.121  1.00  0.00     0.337 C 
BRANCH  26  27
HETATM   27  N   UNL     1      23.757  42.354  47.599  1.00  0.00    -0.059 N 
HETATM   28  H   UNL     1      24.159  43.246  47.266  1.00  0.00     0.280 HD
HETATM   29  C   UNL     1      24.672  41.264  47.036  1.00  0.00     0.261 C 
HETATM   30  C   UNL     1      24.565  41.253  45.507  1.00  0.00     0.195 C 
HETATM   31  O   UNL     1      23.206  41.067  45.088  1.00  0.00    -0.388 OA
HETATM   32  C   UNL     1      22.365  42.131  45.544  1.00  0.00     0.195 C 
HETATM   33  C   UNL     1      22.346  42.196  47.074  1.00  0.00     0.261 C 
ENDBRANCH  26  27
ENDBRANCH  23  26
ENDBRANCH   2  22
BRANCH   8  34
HETATM   34  C   UNL     1      19.240  50.850  47.958  1.00  0.00    -0.047 C 
HETATM   35  C   UNL     1      18.155  50.189  48.835  1.00  0.00     0.015 C 
HETATM   36  C   UNL     1      19.368  52.319  48.419  1.00  0.00     0.015 C 
HETATM   37  C   UNL     1      18.743  50.845  46.499  1.00  0.00     0.015 C 
ENDBRANCH   8  34
TORSDOF 7
ENDMDL
MODEL 9
REMARK VINA RESULT:      -8.3      2.341      8.101
REMARK  7 active torsions:
REMARK  status: ('A' for Active; 'I' for Inactive)
REMARK    1  A    between atoms: C_2  and  C_3 
REMARK    2  A    between atoms: C_4  and  N_5 
REMARK       I    between atoms: N_5  and  C_6 
REMARK    3  A    between atoms: C_6  and  C_7 
REMARK    4  A    between atoms: C_8  and  N_9 
REMARK       I    between atoms: N_9  and  C_10 
REMARK    5  A    between atoms: C_10  and  C_11 
REMARK    6  A    between atoms: C_11  and  N_12 
REMARK    7  A    between atoms: C_25  and  C_26 
ROOT
HETATM    1  C   UNL     1      25.318  43.295  50.665  1.00  0.00     0.073 A 
HETATM    2  C   UNL     1      24.127  43.180  49.967  1.00  0.00     0.093 A 
HETATM    3  S   UNL     1      23.972  41.730  49.102  1.00  0.00    -0.075 SA
HETATM    4  C   UNL     1      25.454  41.156  49.701  1.00  0.00    -0.008 A 
HETATM    5  C   UNL     1      26.095  42.075  50.510  1.00  0.00    -0.026 A 
HETATM    6  C   UNL     1      27.467  41.786  51.049  1.00  0.00     0.041 C 
HETATM    7  C   UNL     1      28.183  40.693  50.236  1.00  0.00     0.010 C 
HETATM    8  C   UNL     1      27.289  39.440  50.028  1.00  0.00    -0.002 C 
HETATM    9  C   UNL     1      25.998  39.829  49.258  1.00  0.00     0.052 C 
ENDROOT
BRANCH   1  10
HETATM   10  C   UNL     1      25.749  44.543  51.316  1.00  0.00     0.259 C 
HETATM   11  N   UNL     1      26.014  44.402  52.664  1.00  0.00    -0.322 N 
HETATM   12  H   UNL     1      25.728  43.523  53.069  1.00  0.00     0.169 HD
HETATM   13  O   UNL     1      25.818  45.587  50.669  1.00  0.00    -0.267 OA
BRANCH  11  14
HETATM   14  C   UNL     1      26.543  45.367  53.554  1.00  0.00     0.041 A 
HETATM   15  C   UNL     1      27.811  45.148  54.140  1.00  0.00    -0.032 A 
HETATM   16  C   UNL     1      28.330  46.106  55.035  1.00  0.00     0.009 A 
HETATM   17  C   UNL     1      27.626  47.271  55.329  1.00  0.00     0.001 A 
HETATM   18  C   UNL     1      26.395  47.499  54.733  1.00  0.00     0.002 A 
HETATM   19  C   UNL     1      25.859  46.555  53.852  1.00  0.00     0.030 A 
BRANCH  15  20
HETATM   20  C   UNL     1      28.655  43.918  53.881  1.00  0.00     0.036 C 
HETATM   21  C   UNL     1      29.797  43.786  54.879  1.00  0.00     0.010 C 
ENDBRANCH  15  20
ENDBRANCH  11  14
ENDBRANCH   1  10
BRANCH   2  22
HETATM   22  N   UNL     1      23.054  44.020  49.770  1.00  0.00    -0.319 N 
HETATM   23  C   UNL     1      22.828  44.647  48.566  1.00  0.00     0.248 C 
HETATM   24  O   UNL     1      23.672  44.897  47.705  1.00  0.00    -0.271 OA
HETATM   25  H   UNL     1      22.567  44.315  50.609  1.00  0.00     0.169 HD
BRANCH  23  26
HETATM   26  C   UNL     1      21.379  45.076  48.355  1.00  0.00     0.337 C 
BRANCH  26  27
HETATM   27  N   UNL     1      21.095  46.433  48.991  1.00  0.00    -0.059 N 
HETATM   28  H   UNL     1      21.368  46.329  49.982  1.00  0.00     0.280 HD
HETATM   29  C   UNL     1      21.995  47.540  48.437  1.00  0.00     0.261 C 
HETATM   30  C   UNL     1      21.653  48.864  49.131  1.00  0.00     0.195 C 
HETATM   31  O   UNL     1      20.265  49.185  48.971  1.00  0.00    -0.388 OA
HETATM   32  C   UNL     1      19.423  48.190  49.561  1.00  0.00     0.195 C 
HETATM   33  C   UNL     1      19.636  46.828  48.897  1.00  0.00     0.261 C 
ENDBRANCH  26  27
ENDBRANCH  23  26
ENDBRANCH   2  22
BRANCH   8  34
HETATM   34  C   UNL     1      28.048  38.221  49.377  1.00  0.00    -0.047 C 
HETATM   35  C   UNL     1      27.234  36.924  49.569  1.00  0.00     0.015 C 
HETATM   36  C   UNL     1      28.213  38.437  47.857  1.00  0.00     0.015 C 
HETATM   37  C   UNL     1      29.447  38.001  49.986  1.00  0.00     0.015 C 
ENDBRANCH   8  34
TORSDOF 7
ENDMDL
MODEL 10
REMARK VINA RESULT:      -8.1      1.702      2.842
REMARK  7 active torsions:
REMARK  status: ('A' for Active; 'I' for Inactive)
REMARK    1  A    between atoms: C_2  and  C_3 
REMARK    2  A    between atoms: C_4  and  N_5 
REMARK       I    between atoms: N_5  and  C_6 
REMARK    3  A    between atoms: C_6  and  C_7 
REMARK    4  A    between atoms: C_8  and  N_9 
REMARK       I    between atoms: N_9  and  C_10 
REMARK    5  A    between atoms: C_10  and  C_11 
REMARK    6  A    between atoms: C_11  and  N_12 
REMARK    7  A    between atoms: C_25  and  C_26 
ROOT
HETATM    1  C   UNL     1      25.141  45.009  49.951  1.00  0.00     0.073 A 
HETATM    2  C   UNL     1      24.534  43.799  49.658  1.00  0.00     0.093 A 
HETATM    3  S   UNL     1      23.000  43.951  48.952  1.00  0.00    -0.075 SA
HETATM    4  C   UNL     1      23.125  45.645  48.925  1.00  0.00    -0.008 A 
HETATM    5  C   UNL     1      24.298  46.103  49.496  1.00  0.00    -0.026 A 
HETATM    6  C   UNL     1      24.539  47.577  49.656  1.00  0.00     0.041 C 
HETATM    7  C   UNL     1      23.228  48.382  49.592  1.00  0.00     0.010 C 
HETATM    8  C   UNL     1      22.365  47.995  48.360  1.00  0.00    -0.002 C 
HETATM    9  C   UNL     1      21.989  46.490  48.426  1.00  0.00     0.052 C 
ENDROOT
BRANCH   1  10
HETATM   10  C   UNL     1      26.378  45.115  50.744  1.00  0.00     0.259 C 
HETATM   11  N   UNL     1      26.171  45.026  52.106  1.00  0.00    -0.322 N 
HETATM   12  H   UNL     1      25.206  45.067  52.399  1.00  0.00     0.169 HD
HETATM   13  O   UNL     1      27.458  45.293  50.185  1.00  0.00    -0.267 OA
BRANCH  11  14
HETATM   14  C   UNL     1      27.144  44.985  53.134  1.00  0.00     0.041 A 
HETATM   15  C   UNL     1      27.217  46.049  54.062  1.00  0.00    -0.032 A 
HETATM   16  C   UNL     1      28.194  46.009  55.078  1.00  0.00     0.009 A 
HETATM   17  C   UNL     1      29.066  44.930  55.196  1.00  0.00     0.001 A 
HETATM   18  C   UNL     1      28.976  43.874  54.302  1.00  0.00     0.002 A 
HETATM   19  C   UNL     1      28.022  43.901  53.281  1.00  0.00     0.030 A 
BRANCH  15  20
HETATM   20  C   UNL     1      26.312  47.262  54.023  1.00  0.00     0.036 C 
HETATM   21  C   UNL     1      26.468  48.134  55.260  1.00  0.00     0.010 C 
ENDBRANCH  15  20
ENDBRANCH  11  14
ENDBRANCH   1  10
BRANCH   2  22
HETATM   22  N   UNL     1      24.880  42.483  49.872  1.00  0.00    -0.319 N 
HETATM   23  C   UNL     1      26.086  41.967  49.455  1.00  0.00     0.248 C 
HETATM   24  O   UNL     1      26.789  42.404  48.544  1.00  0.00    -0.271 OA
HETATM   25  H   UNL     1      24.123  41.872  50.157  1.00  0.00     0.169 HD
BRANCH  23  26
HETATM   26  C   UNL     1      26.518  40.717  50.215  1.00  0.00     0.337 C 
BRANCH  26  27
HETATM   27  N   UNL     1      27.462  39.852  49.386  1.00  0.00    -0.059 N 
HETATM   28  H   UNL     1      27.889  40.498  48.702  1.00  0.00     0.280 HD
HETATM   29  C   UNL     1      28.631  39.306  50.210  1.00  0.00     0.261 C 
HETATM   30  C   UNL     1      29.534  38.458  49.306  1.00  0.00     0.195 C 
HETATM   31  O   UNL     1      28.791  37.402  48.682  1.00  0.00    -0.388 OA
HETATM   32  C   UNL     1      27.749  37.915  47.845  1.00  0.00     0.195 C 
HETATM   33  C   UNL     1      26.745  38.733  48.662  1.00  0.00     0.261 C 
ENDBRANCH  26  27
ENDBRANCH  23  26
ENDBRANCH   2  22
BRANCH   8  34
HETATM   34  C   UNL     1      21.115  48.931  48.144  1.00  0.00    -0.047 C 
HETATM   35  C   UNL     1      20.177  48.326  47.078  1.00  0.00     0.015 C 
HETATM   36  C   UNL     1      20.302  49.057  49.451  1.00  0.00     0.015 C 
HETATM   37  C   UNL     1      21.509  50.348  47.684  1.00  0.00     0.015 C 
ENDBRANCH   8  34
TORSDOF 7
ENDMDL
