MODEL 1
REMARK VINA RESULT:      -8.1      0.000      0.000
REMARK  6 active torsions:
REMARK  status: ('A' for Active; 'I' for Inactive)
REMARK    1  A    between atoms: C_4  and  O_5 
REMARK    2  A    between atoms: O_5  and  C_6 
REMARK    3  A    between atoms: C_7  and  N_8 
REMARK       I    between atoms: N_8  and  C_9 
REMARK       I    between atoms: C_9  and  N_10 
REMARK    4  A    between atoms: N_10  and  C_11 
REMARK    5  A    between atoms: C_11  and  C_12 
REMARK    6  A    between atoms: C_12  and  C_13 
ROOT
HETATM    1  C   UNL     1      28.970  43.735  53.963  1.00  0.00     0.106 C 
HETATM    2  C   UNL     1      27.835  42.917  54.009  1.00  0.00     0.109 C 
HETATM    3  C   UNL     1      27.938  41.620  53.497  1.00  0.00     0.145 C 
HETATM    4  F   UNL     1      26.893  40.783  53.589  1.00  0.00    -0.204 F 
HETATM    5  C   UNL     1      29.090  41.182  52.847  1.00  0.00     0.045 C 
HETATM    6  C   UNL     1      30.178  42.043  52.716  1.00  0.00     0.006 C 
HETATM    7  C   UNL     1      30.120  43.319  53.277  1.00  0.00     0.040 C 
ENDROOT
BRANCH   2   8
HETATM    8  N   UNL     1      26.605  43.298  54.587  1.00  0.00    -0.304 N 
HETATM    9  C   UNL     1      25.743  44.277  54.177  1.00  0.00     0.320 C 
HETATM   10  N   UNL     1      26.087  44.999  53.074  1.00  0.00    -0.342 N 
HETATM   11  O   UNL     1      24.636  44.360  54.707  1.00  0.00    -0.247 OA
HETATM   12  H   UNL     1      27.068  45.225  52.959  1.00  0.00     0.164 HD
HETATM   13  H   UNL     1      26.084  42.562  55.053  1.00  0.00     0.171 HD
BRANCH  10  14
HETATM   14  C   UNL     1      25.152  45.896  52.418  1.00  0.00     0.132 C 
BRANCH  14  15
HETATM   15  C   UNL     1      24.658  45.374  51.070  1.00  0.00     0.102 C 
BRANCH  15  16
HETATM   16  C   UNL     1      25.054  43.959  50.833  1.00  0.00     0.148 A 
HETATM   17  N   UNL     1      24.307  42.921  51.233  1.00  0.00    -0.158 NA
HETATM   18  N   UNL     1      25.048  41.879  50.826  1.00  0.00    -0.270 N 
HETATM   19  H   UNL     1      24.717  40.937  50.997  1.00  0.00     0.190 HD
HETATM   20  C   UNL     1      26.188  42.295  50.216  1.00  0.00     0.227 A 
HETATM   21  N   UNL     1      26.223  43.607  50.202  1.00  0.00    -0.226 NA
ENDBRANCH  15  16
ENDBRANCH  14  15
ENDBRANCH  10  14
ENDBRANCH   2   8
BRANCH   1  22
HETATM   22  O   UNL     1      28.953  44.953  54.607  1.00  0.00    -0.309 OA
BRANCH  22  23
HETATM   23  C   UNL     1      29.536  45.032  55.857  1.00  0.00     0.076 A 
HETATM   24  C   UNL     1      28.948  45.937  56.743  1.00  0.00     0.037 A 
HETATM   25  C   UNL     1      29.462  46.104  58.030  1.00  0.00     0.003 A 
HETATM   26  C   UNL     1      30.564  45.356  58.442  1.00  0.00     0.000 A 
HETATM   27  C   UNL     1      31.137  44.428  57.574  1.00  0.00     0.003 A 
HETATM   28  C   UNL     1      30.618  44.256  56.288  1.00  0.00     0.037 A 
ENDBRANCH  22  23
ENDBRANCH   1  22
TORSDOF 6
ENDMDL
MODEL 2
REMARK VINA RESULT:      -8.1      2.934      4.018
REMARK  6 active torsions:
REMARK  status: ('A' for Active; 'I' for Inactive)
REMARK    1  A    between atoms: C_4  and  O_5 
REMARK    2  A    between atoms: O_5  and  C_6 
REMARK    3  A    between atoms: C_7  and  N_8 
REMARK       I    between atoms: N_8  and  C_9 
REMARK       I    between atoms: C_9  and  N_10 
REMARK    4  A    between atoms: N_10  and  C_11 
REMARK    5  A    between atoms: C_11  and  C_12 
REMARK    6  A    between atoms: C_12  and  C_13 
ROOT
HETATM    1  C   UNL     1      27.489  43.076  53.684  1.00  0.00     0.106 C 
HETATM    2  C   UNL     1      26.764  42.663  52.560  1.00  0.00     0.109 C 
HETATM    3  C   UNL     1      27.375  41.770  51.675  1.00  0.00     0.145 C 
HETATM    4  F   UNL     1      26.685  41.296  50.626  1.00  0.00    -0.204 F 
HETATM    5  C   UNL     1      28.706  41.389  51.827  1.00  0.00     0.045 C 
HETATM    6  C   UNL     1      29.450  41.889  52.894  1.00  0.00     0.006 C 
HETATM    7  C   UNL     1      28.840  42.730  53.826  1.00  0.00     0.040 C 
ENDROOT
BRANCH   2   8
HETATM    8  N   UNL     1      25.434  43.048  52.288  1.00  0.00    -0.304 N 
HETATM    9  C   UNL     1      24.993  44.049  51.467  1.00  0.00     0.320 C 
HETATM   10  N   UNL     1      25.932  44.790  50.816  1.00  0.00    -0.342 N 
HETATM   11  O   UNL     1      23.790  44.136  51.223  1.00  0.00    -0.247 OA
HETATM   12  H   UNL     1      26.783  45.005  51.322  1.00  0.00     0.164 HD
HETATM   13  H   UNL     1      24.739  42.311  52.325  1.00  0.00     0.171 HD
BRANCH  10  14
HETATM   14  C   UNL     1      25.582  45.715  49.751  1.00  0.00     0.132 C 
BRANCH  14  15
HETATM   15  C   UNL     1      25.283  47.127  50.251  1.00  0.00     0.102 C 
BRANCH  15  16
HETATM   16  C   UNL     1      25.997  48.167  49.461  1.00  0.00     0.148 A 
HETATM   17  N   UNL     1      27.285  48.053  49.110  1.00  0.00    -0.158 NA
HETATM   18  N   UNL     1      27.489  49.200  48.443  1.00  0.00    -0.270 N 
HETATM   19  H   UNL     1      28.402  49.390  48.048  1.00  0.00     0.190 HD
HETATM   20  C   UNL     1      26.362  49.957  48.412  1.00  0.00     0.227 A 
HETATM   21  N   UNL     1      25.398  49.332  49.047  1.00  0.00    -0.226 NA
ENDBRANCH  15  16
ENDBRANCH  14  15
ENDBRANCH  10  14
ENDBRANCH   2   8
BRANCH   1  22
HETATM   22  O   UNL     1      26.861  43.818  54.660  1.00  0.00    -0.309 OA
BRANCH  22  23
HETATM   23  C   UNL     1      27.107  45.177  54.699  1.00  0.00     0.076 A 
HETATM   24  C   UNL     1      26.054  45.995  54.283  1.00  0.00     0.037 A 
HETATM   25  C   UNL     1      26.198  47.384  54.274  1.00  0.00     0.003 A 
HETATM   26  C   UNL     1      27.395  47.963  54.692  1.00  0.00     0.000 A 
HETATM   27  C   UNL     1      28.439  47.155  55.138  1.00  0.00     0.003 A 
HETATM   28  C   UNL     1      28.292  45.764  55.154  1.00  0.00     0.037 A 
ENDBRANCH  22  23
ENDBRANCH   1  22
TORSDOF 6
ENDMDL
MODEL 3
REMARK VINA RESULT:      -8.1      3.434      5.870
REMARK  6 active torsions:
REMARK  status: ('A' for Active; 'I' for Inactive)
REMARK    1  A    between atoms: C_4  and  O_5 
REMARK    2  A    between atoms: O_5  and  C_6 
REMARK    3  A    between atoms: C_7  and  N_8 
REMARK       I    between atoms: N_8  and  C_9 
REMARK       I    between atoms: C_9  and  N_10 
REMARK    4  A    between atoms: N_10  and  C_11 
REMARK    5  A    between atoms: C_11  and  C_12 
REMARK    6  A    between atoms: C_12  and  C_13 
ROOT
HETATM    1  C   UNL     1      27.443  43.230  52.877  1.00  0.00     0.106 C 
HETATM    2  C   UNL     1      27.660  41.872  52.612  1.00  0.00     0.109 C 
HETATM    3  C   UNL     1      28.840  41.290  53.085  1.00  0.00     0.145 C 
HETATM    4  F   UNL     1      29.049  39.976  52.914  1.00  0.00    -0.204 F 
HETATM    5  C   UNL     1      29.834  42.052  53.696  1.00  0.00     0.045 C 
HETATM    6  C   UNL     1      29.649  43.423  53.862  1.00  0.00     0.006 C 
HETATM    7  C   UNL     1      28.452  44.013  53.455  1.00  0.00     0.040 C 
ENDROOT
BRANCH   2   8
HETATM    8  N   UNL     1      26.740  41.037  51.943  1.00  0.00    -0.304 N 
HETATM    9  C   UNL     1      26.847  40.488  50.695  1.00  0.00     0.320 C 
HETATM   10  N   UNL     1      27.971  40.766  49.978  1.00  0.00    -0.342 N 
HETATM   11  O   UNL     1      26.020  39.649  50.337  1.00  0.00    -0.247 OA
HETATM   12  H   UNL     1      28.351  41.701  50.060  1.00  0.00     0.164 HD
HETATM   13  H   UNL     1      26.176  40.433  52.531  1.00  0.00     0.171 HD
BRANCH  10  14
HETATM   14  C   UNL     1      28.297  40.060  48.750  1.00  0.00     0.132 C 
BRANCH  14  15
HETATM   15  C   UNL     1      29.561  39.210  48.858  1.00  0.00     0.102 C 
BRANCH  15  16
HETATM   16  C   UNL     1      29.404  38.085  49.820  1.00  0.00     0.148 A 
HETATM   17  N   UNL     1      28.316  37.303  49.848  1.00  0.00    -0.158 NA
HETATM   18  N   UNL     1      28.609  36.465  50.855  1.00  0.00    -0.270 N 
HETATM   19  H   UNL     1      27.947  35.740  51.107  1.00  0.00     0.190 HD
HETATM   20  C   UNL     1      29.821  36.751  51.396  1.00  0.00     0.227 A 
HETATM   21  N   UNL     1      30.352  37.771  50.764  1.00  0.00    -0.226 NA
ENDBRANCH  15  16
ENDBRANCH  14  15
ENDBRANCH  10  14
ENDBRANCH   2   8
BRANCH   1  22
HETATM   22  O   UNL     1      26.222  43.791  52.574  1.00  0.00    -0.309 OA
BRANCH  22  23
HETATM   23  C   UNL     1      26.204  44.888  51.733  1.00  0.00     0.076 A 
HETATM   24  C   UNL     1      25.681  46.062  52.280  1.00  0.00     0.037 A 
HETATM   25  C   UNL     1      25.607  47.227  51.515  1.00  0.00     0.003 A 
HETATM   26  C   UNL     1      26.066  47.226  50.199  1.00  0.00     0.000 A 
HETATM   27  C   UNL     1      26.618  46.067  49.657  1.00  0.00     0.003 A 
HETATM   28  C   UNL     1      26.698  44.902  50.425  1.00  0.00     0.037 A 
ENDBRANCH  22  23
ENDBRANCH   1  22
TORSDOF 6
ENDMDL
MODEL 4
REMARK VINA RESULT:      -8.0      2.572      3.358
REMARK  6 active torsions:
REMARK  status: ('A' for Active; 'I' for Inactive)
REMARK    1  A    between atoms: C_4  and  O_5 
REMARK    2  A    between atoms: O_5  and  C_6 
REMARK    3  A    between atoms: C_7  and  N_8 
REMARK       I    between atoms: N_8  and  C_9 
REMARK       I    between atoms: C_9  and  N_10 
REMARK    4  A    between atoms: N_10  and  C_11 
REMARK    5  A    between atoms: C_11  and  C_12 
REMARK    6  A    between atoms: C_12  and  C_13 
ROOT
HETATM    1  C   UNL     1      29.014  44.130  54.323  1.00  0.00     0.106 C 
HETATM    2  C   UNL     1      27.632  44.298  54.464  1.00  0.00     0.109 C 
HETATM    3  C   UNL     1      26.805  43.204  54.194  1.00  0.00     0.145 C 
HETATM    4  F   UNL     1      25.480  43.306  54.388  1.00  0.00    -0.204 F 
HETATM    5  C   UNL     1      27.315  42.014  53.681  1.00  0.00     0.045 C 
HETATM    6  C   UNL     1      28.684  41.893  53.447  1.00  0.00     0.006 C 
HETATM    7  C   UNL     1      29.535  42.951  53.771  1.00  0.00     0.040 C 
ENDROOT
BRANCH   2   8
HETATM    8  N   UNL     1      27.019  45.488  54.914  1.00  0.00    -0.304 N 
HETATM    9  C   UNL     1      26.392  46.450  54.172  1.00  0.00     0.320 C 
HETATM   10  N   UNL     1      26.336  46.270  52.823  1.00  0.00    -0.342 N 
HETATM   11  O   UNL     1      25.770  47.340  54.750  1.00  0.00    -0.247 OA
HETATM   12  H   UNL     1      27.149  45.859  52.379  1.00  0.00     0.164 HD
HETATM   13  H   UNL     1      26.610  45.456  55.842  1.00  0.00     0.171 HD
BRANCH  10  14
HETATM   14  C   UNL     1      25.503  47.098  51.968  1.00  0.00     0.132 C 
BRANCH  14  15
HETATM   15  C   UNL     1      25.577  46.713  50.493  1.00  0.00     0.102 C 
BRANCH  15  16
HETATM   16  C   UNL     1      26.099  47.820  49.646  1.00  0.00     0.148 A 
HETATM   17  N   UNL     1      27.355  47.845  49.180  1.00  0.00    -0.158 NA
HETATM   18  N   UNL     1      27.371  49.003  48.502  1.00  0.00    -0.270 N 
HETATM   19  H   UNL     1      28.219  49.290  48.027  1.00  0.00     0.190 HD
HETATM   20  C   UNL     1      26.169  49.631  48.574  1.00  0.00     0.227 A 
HETATM   21  N   UNL     1      25.340  48.909  49.290  1.00  0.00    -0.226 NA
ENDBRANCH  15  16
ENDBRANCH  14  15
ENDBRANCH  10  14
ENDBRANCH   2   8
BRANCH   1  22
HETATM   22  O   UNL     1      29.864  45.130  54.741  1.00  0.00    -0.309 OA
BRANCH  22  23
HETATM   23  C   UNL     1      30.305  45.100  56.050  1.00  0.00     0.076 A 
HETATM   24  C   UNL     1      31.220  44.092  56.359  1.00  0.00     0.037 A 
HETATM   25  C   UNL     1      31.723  43.965  57.655  1.00  0.00     0.003 A 
HETATM   26  C   UNL     1      31.320  44.856  58.649  1.00  0.00     0.000 A 
HETATM   27  C   UNL     1      30.431  45.884  58.341  1.00  0.00     0.003 A 
HETATM   28  C   UNL     1      29.932  46.015  57.042  1.00  0.00     0.037 A 
ENDBRANCH  22  23
ENDBRANCH   1  22
TORSDOF 6
ENDMDL
MODEL 5
REMARK VINA RESULT:      -7.7      2.330      4.046
REMARK  6 active torsions:
REMARK  status: ('A' for Active; 'I' for Inactive)
REMARK    1  A    between atoms: C_4  and  O_5 
REMARK    2  A    between atoms: O_5  and  C_6 
REMARK    3  A    between atoms: C_7  and  N_8 
REMARK       I    between atoms: N_8  and  C_9 
REMARK       I    between atoms: C_9  and  N_10 
REMARK    4  A    between atoms: N_10  and  C_11 
REMARK    5  A    between atoms: C_11  and  C_12 
REMARK    6  A    between atoms: C_12  and  C_13 
ROOT
HETATM    1  C   UNL     1      26.747  44.787  53.212  1.00  0.00     0.106 C 
HETATM    2  C   UNL     1      27.104  44.553  51.879  1.00  0.00     0.109 C 
HETATM    3  C   UNL     1      26.799  45.537  50.933  1.00  0.00     0.145 C 
HETATM    4  F   UNL     1      27.190  45.380  49.659  1.00  0.00    -0.204 F 
HETATM    5  C   UNL     1      26.055  46.666  51.270  1.00  0.00     0.045 C 
HETATM    6  C   UNL     1      25.617  46.837  52.582  1.00  0.00     0.006 C 
HETATM    7  C   UNL     1      25.965  45.899  53.554  1.00  0.00     0.040 C 
ENDROOT
BRANCH   2   8
HETATM    8  N   UNL     1      27.800  43.409  51.433  1.00  0.00    -0.304 N 
HETATM    9  C   UNL     1      27.287  42.262  50.893  1.00  0.00     0.320 C 
HETATM   10  N   UNL     1      25.934  42.179  50.758  1.00  0.00    -0.342 N 
HETATM   11  O   UNL     1      28.056  41.433  50.408  1.00  0.00    -0.247 OA
HETATM   12  H   UNL     1      25.371  42.586  51.495  1.00  0.00     0.164 HD
HETATM   13  H   UNL     1      28.731  43.569  51.064  1.00  0.00     0.171 HD
BRANCH  10  14
HETATM   14  C   UNL     1      25.299  41.119  49.993  1.00  0.00     0.132 C 
BRANCH  14  15
HETATM   15  C   UNL     1      24.259  41.630  48.999  1.00  0.00     0.102 C 
BRANCH  15  16
HETATM   16  C   UNL     1      23.770  42.992  49.344  1.00  0.00     0.148 A 
HETATM   17  N   UNL     1      22.892  43.218  50.332  1.00  0.00    -0.158 NA
HETATM   18  N   UNL     1      22.742  44.550  50.264  1.00  0.00    -0.270 N 
HETATM   19  H   UNL     1      22.119  45.014  50.914  1.00  0.00     0.190 HD
HETATM   20  C   UNL     1      23.500  45.079  49.270  1.00  0.00     0.227 A 
HETATM   21  N   UNL     1      24.164  44.122  48.668  1.00  0.00    -0.226 NA
ENDBRANCH  15  16
ENDBRANCH  14  15
ENDBRANCH  10  14
ENDBRANCH   2   8
BRANCH   1  22
HETATM   22  O   UNL     1      27.179  43.920  54.191  1.00  0.00    -0.309 OA
BRANCH  22  23
HETATM   23  C   UNL     1      28.401  44.172  54.786  1.00  0.00     0.076 A 
HETATM   24  C   UNL     1      29.372  43.184  54.616  1.00  0.00     0.037 A 
HETATM   25  C   UNL     1      30.639  43.332  55.183  1.00  0.00     0.003 A 
HETATM   26  C   UNL     1      30.944  44.478  55.916  1.00  0.00     0.000 A 
HETATM   27  C   UNL     1      29.991  45.483  56.063  1.00  0.00     0.003 A 
HETATM   28  C   UNL     1      28.724  45.337  55.489  1.00  0.00     0.037 A 
ENDBRANCH  22  23
ENDBRANCH   1  22
TORSDOF 6
ENDMDL
MODEL 6
REMARK VINA RESULT:      -7.7     13.642     16.006
REMARK  6 active torsions:
REMARK  status: ('A' for Active; 'I' for Inactive)
REMARK    1  A    between atoms: C_4  and  O_5 
REMARK    2  A    between atoms: O_5  and  C_6 
REMARK    3  A    between atoms: C_7  and  N_8 
REMARK       I    between atoms: N_8  and  C_9 
REMARK       I    between atoms: C_9  and  N_10 
REMARK    4  A    between atoms: N_10  and  C_11 
REMARK    5  A    between atoms: C_11  and  C_12 
REMARK    6  A    between atoms: C_12  and  C_13 
ROOT
HETATM    1  C   UNL     1      29.378  49.193  38.620  1.00  0.00     0.106 C 
HETATM    2  C   UNL     1      29.659  47.950  39.199  1.00  0.00     0.109 C 
HETATM    3  C   UNL     1      28.598  47.061  39.397  1.00  0.00     0.145 C 
HETATM    4  F   UNL     1      28.839  45.833  39.883  1.00  0.00    -0.204 F 
HETATM    5  C   UNL     1      27.279  47.433  39.145  1.00  0.00     0.045 C 
HETATM    6  C   UNL     1      27.002  48.712  38.665  1.00  0.00     0.006 C 
HETATM    7  C   UNL     1      28.052  49.592  38.399  1.00  0.00     0.040 C 
ENDROOT
BRANCH   2   8
HETATM    8  N   UNL     1      30.954  47.512  39.548  1.00  0.00    -0.304 N 
HETATM    9  C   UNL     1      31.682  47.825  40.663  1.00  0.00     0.320 C 
HETATM   10  N   UNL     1      31.115  48.668  41.570  1.00  0.00    -0.342 N 
HETATM   11  O   UNL     1      32.731  47.220  40.882  1.00  0.00    -0.247 OA
HETATM   12  H   UNL     1      30.555  49.429  41.205  1.00  0.00     0.164 HD
HETATM   13  H   UNL     1      31.216  46.588  39.222  1.00  0.00     0.171 HD
BRANCH  10  14
HETATM   14  C   UNL     1      31.691  48.884  42.886  1.00  0.00     0.132 C 
BRANCH  14  15
HETATM   15  C   UNL     1      31.878  50.360  43.230  1.00  0.00     0.102 C 
BRANCH  15  16
HETATM   16  C   UNL     1      33.233  50.857  42.866  1.00  0.00     0.148 A 
HETATM   17  N   UNL     1      33.775  51.951  43.419  1.00  0.00    -0.158 NA
HETATM   18  N   UNL     1      34.959  52.015  42.792  1.00  0.00    -0.270 N 
HETATM   19  H   UNL     1      35.603  52.764  43.019  1.00  0.00     0.190 HD
HETATM   20  C   UNL     1      35.100  50.998  41.903  1.00  0.00     0.227 A 
HETATM   21  N   UNL     1      34.025  50.246  41.925  1.00  0.00    -0.226 NA
ENDBRANCH  15  16
ENDBRANCH  14  15
ENDBRANCH  10  14
ENDBRANCH   2   8
BRANCH   1  22
HETATM   22  O   UNL     1      30.417  50.021  38.257  1.00  0.00    -0.309 OA
BRANCH  22  23
HETATM   23  C   UNL     1      30.707  51.094  39.077  1.00  0.00     0.076 A 
HETATM   24  C   UNL     1      32.007  51.595  38.983  1.00  0.00     0.037 A 
HETATM   25  C   UNL     1      32.410  52.672  39.773  1.00  0.00     0.003 A 
HETATM   26  C   UNL     1      31.508  53.263  40.657  1.00  0.00     0.000 A 
HETATM   27  C   UNL     1      30.200  52.789  40.734  1.00  0.00     0.003 A 
HETATM   28  C   UNL     1      29.795  51.715  39.938  1.00  0.00     0.037 A 
ENDBRANCH  22  23
ENDBRANCH   1  22
TORSDOF 6
ENDMDL
MODEL 7
REMARK VINA RESULT:      -7.7     14.215     15.790
REMARK  6 active torsions:
REMARK  status: ('A' for Active; 'I' for Inactive)
REMARK    1  A    between atoms: C_4  and  O_5 
REMARK    2  A    between atoms: O_5  and  C_6 
REMARK    3  A    between atoms: C_7  and  N_8 
REMARK       I    between atoms: N_8  and  C_9 
REMARK       I    between atoms: C_9  and  N_10 
REMARK    4  A    between atoms: N_10  and  C_11 
REMARK    5  A    between atoms: C_11  and  C_12 
REMARK    6  A    between atoms: C_12  and  C_13 
ROOT
HETATM    1  C   UNL     1      31.290  48.212  40.260  1.00  0.00     0.106 C 
HETATM    2  C   UNL     1      31.026  49.079  39.193  1.00  0.00     0.109 C 
HETATM    3  C   UNL     1      29.708  49.179  38.738  1.00  0.00     0.145 C 
HETATM    4  F   UNL     1      29.403  50.053  37.766  1.00  0.00    -0.204 F 
HETATM    5  C   UNL     1      28.699  48.358  39.238  1.00  0.00     0.045 C 
HETATM    6  C   UNL     1      28.997  47.425  40.230  1.00  0.00     0.006 C 
HETATM    7  C   UNL     1      30.293  47.354  40.744  1.00  0.00     0.040 C 
ENDROOT
BRANCH   2   8
HETATM    8  N   UNL     1      31.995  49.901  38.580  1.00  0.00    -0.304 N 
HETATM    9  C   UNL     1      32.244  51.227  38.800  1.00  0.00     0.320 C 
HETATM   10  N   UNL     1      31.473  51.868  39.723  1.00  0.00    -0.342 N 
HETATM   11  O   UNL     1      33.239  51.742  38.292  1.00  0.00    -0.247 OA
HETATM   12  H   UNL     1      30.494  51.611  39.765  1.00  0.00     0.164 HD
HETATM   13  H   UNL     1      32.851  49.440  38.288  1.00  0.00     0.171 HD
BRANCH  10  14
HETATM   14  C   UNL     1      31.795  53.201  40.204  1.00  0.00     0.132 C 
BRANCH  14  15
HETATM   15  C   UNL     1      30.588  53.950  40.763  1.00  0.00     0.102 C 
BRANCH  15  16
HETATM   16  C   UNL     1      29.349  53.127  40.733  1.00  0.00     0.148 A 
HETATM   17  N   UNL     1      28.641  52.925  39.613  1.00  0.00    -0.158 NA
HETATM   18  N   UNL     1      27.634  52.159  40.061  1.00  0.00    -0.270 N 
HETATM   19  H   UNL     1      26.924  51.842  39.413  1.00  0.00     0.190 HD
HETATM   20  C   UNL     1      27.750  51.927  41.394  1.00  0.00     0.227 A 
HETATM   21  N   UNL     1      28.825  52.524  41.851  1.00  0.00    -0.226 NA
ENDBRANCH  15  16
ENDBRANCH  14  15
ENDBRANCH  10  14
ENDBRANCH   2   8
BRANCH   1  22
HETATM   22  O   UNL     1      32.539  48.215  40.841  1.00  0.00    -0.309 OA
BRANCH  22  23
HETATM   23  C   UNL     1      32.859  49.262  41.685  1.00  0.00     0.076 A 
HETATM   24  C   UNL     1      34.133  49.807  41.518  1.00  0.00     0.037 A 
HETATM   25  C   UNL     1      34.563  50.862  42.324  1.00  0.00     0.003 A 
HETATM   26  C   UNL     1      33.713  51.386  43.297  1.00  0.00     0.000 A 
HETATM   27  C   UNL     1      32.428  50.868  43.449  1.00  0.00     0.003 A 
HETATM   28  C   UNL     1      31.996  49.815  42.637  1.00  0.00     0.037 A 
ENDBRANCH  22  23
ENDBRANCH   1  22
TORSDOF 6
ENDMDL
MODEL 8
REMARK VINA RESULT:      -7.6      4.679      6.924
REMARK  6 active torsions:
REMARK  status: ('A' for Active; 'I' for Inactive)
REMARK    1  A    between atoms: C_4  and  O_5 
REMARK    2  A    between atoms: O_5  and  C_6 
REMARK    3  A    between atoms: C_7  and  N_8 
REMARK       I    between atoms: N_8  and  C_9 
REMARK       I    between atoms: C_9  and  N_10 
REMARK    4  A    between atoms: N_10  and  C_11 
REMARK    5  A    between atoms: C_11  and  C_12 
REMARK    6  A    between atoms: C_12  and  C_13 
ROOT
HETATM    1  C   UNL     1      25.233  47.809  49.843  1.00  0.00     0.106 C 
HETATM    2  C   UNL     1      24.313  48.724  49.318  1.00  0.00     0.109 C 
HETATM    3  C   UNL     1      24.788  49.704  48.441  1.00  0.00     0.145 C 
HETATM    4  F   UNL     1      23.925  50.553  47.861  1.00  0.00    -0.204 F 
HETATM    5  C   UNL     1      26.149  49.855  48.184  1.00  0.00     0.045 C 
HETATM    6  C   UNL     1      27.066  49.001  48.795  1.00  0.00     0.006 C 
HETATM    7  C   UNL     1      26.608  47.976  49.623  1.00  0.00     0.040 C 
ENDROOT
BRANCH   2   8
HETATM    8  N   UNL     1      22.926  48.690  49.574  1.00  0.00    -0.304 N 
HETATM    9  C   UNL     1      21.940  48.112  48.823  1.00  0.00     0.320 C 
HETATM   10  N   UNL     1      22.310  47.482  47.674  1.00  0.00    -0.342 N 
HETATM   11  O   UNL     1      20.802  48.039  49.285  1.00  0.00    -0.247 OA
HETATM   12  H   UNL     1      23.055  47.906  47.135  1.00  0.00     0.164 HD
HETATM   13  H   UNL     1      22.652  48.689  50.551  1.00  0.00     0.171 HD
BRANCH  10  14
HETATM   14  C   UNL     1      21.391  46.641  46.926  1.00  0.00     0.132 C 
BRANCH  14  15
HETATM   15  C   UNL     1      21.888  45.209  46.748  1.00  0.00     0.102 C 
BRANCH  15  16
HETATM   16  C   UNL     1      22.490  44.662  47.995  1.00  0.00     0.148 A 
HETATM   17  N   UNL     1      23.810  44.483  48.143  1.00  0.00    -0.158 NA
HETATM   18  N   UNL     1      23.877  43.972  49.382  1.00  0.00    -0.270 N 
HETATM   19  H   UNL     1      24.781  43.734  49.774  1.00  0.00     0.190 HD
HETATM   20  C   UNL     1      22.642  43.853  49.933  1.00  0.00     0.227 A 
HETATM   21  N   UNL     1      21.740  44.282  49.082  1.00  0.00    -0.226 NA
ENDBRANCH  15  16
ENDBRANCH  14  15
ENDBRANCH  10  14
ENDBRANCH   2   8
BRANCH   1  22
HETATM   22  O   UNL     1      24.777  46.733  50.572  1.00  0.00    -0.309 OA
BRANCH  22  23
HETATM   23  C   UNL     1      25.518  46.332  51.667  1.00  0.00     0.076 A 
HETATM   24  C   UNL     1      25.476  47.183  52.773  1.00  0.00     0.037 A 
HETATM   25  C   UNL     1      26.195  46.878  53.930  1.00  0.00     0.003 A 
HETATM   26  C   UNL     1      26.954  45.711  53.990  1.00  0.00     0.000 A 
HETATM   27  C   UNL     1      26.977  44.840  52.902  1.00  0.00     0.003 A 
HETATM   28  C   UNL     1      26.251  45.142  51.746  1.00  0.00     0.037 A 
ENDBRANCH  22  23
ENDBRANCH   1  22
TORSDOF 6
ENDMDL
MODEL 9
REMARK VINA RESULT:      -7.5     14.025     15.484
REMARK  6 active torsions:
REMARK  status: ('A' for Active; 'I' for Inactive)
REMARK    1  A    between atoms: C_4  and  O_5 
REMARK    2  A    between atoms: O_5  and  C_6 
REMARK    3  A    between atoms: C_7  and  N_8 
REMARK       I    between atoms: N_8  and  C_9 
REMARK       I    between atoms: C_9  and  N_10 
REMARK    4  A    between atoms: N_10  and  C_11 
REMARK    5  A    between atoms: C_11  and  C_12 
REMARK    6  A    between atoms: C_12  and  C_13 
ROOT
HETATM    1  C   UNL     1      30.279  51.132  41.274  1.00  0.00     0.106 C 
HETATM    2  C   UNL     1      30.307  50.839  39.906  1.00  0.00     0.109 C 
HETATM    3  C   UNL     1      29.722  51.753  39.025  1.00  0.00     0.145 C 
HETATM    4  F   UNL     1      29.792  51.542  37.702  1.00  0.00    -0.204 F 
HETATM    5  C   UNL     1      29.021  52.865  39.488  1.00  0.00     0.045 C 
HETATM    6  C   UNL     1      28.912  53.091  40.859  1.00  0.00     0.006 C 
HETATM    7  C   UNL     1      29.544  52.226  41.753  1.00  0.00     0.040 C 
ENDROOT
BRANCH   2   8
HETATM    8  N   UNL     1      30.935  49.704  39.350  1.00  0.00    -0.304 N 
HETATM    9  C   UNL     1      30.451  48.428  39.257  1.00  0.00     0.320 C 
HETATM   10  N   UNL     1      29.207  48.188  39.757  1.00  0.00    -0.342 N 
HETATM   11  O   UNL     1      31.072  47.600  38.592  1.00  0.00    -0.247 OA
HETATM   12  H   UNL     1      28.950  48.674  40.608  1.00  0.00     0.164 HD
HETATM   13  H   UNL     1      31.577  49.879  38.585  1.00  0.00     0.171 HD
BRANCH  10  14
HETATM   14  C   UNL     1      28.503  46.941  39.507  1.00  0.00     0.132 C 
BRANCH  14  15
HETATM   15  C   UNL     1      27.155  47.135  38.818  1.00  0.00     0.102 C 
BRANCH  15  16
HETATM   16  C   UNL     1      26.734  48.563  38.792  1.00  0.00     0.148 A 
HETATM   17  N   UNL     1      26.080  49.143  39.807  1.00  0.00    -0.158 NA
HETATM   18  N   UNL     1      25.905  50.390  39.341  1.00  0.00    -0.270 N 
HETATM   19  H   UNL     1      25.426  51.073  39.916  1.00  0.00     0.190 HD
HETATM   20  C   UNL     1      26.434  50.528  38.098  1.00  0.00     0.227 A 
HETATM   21  N   UNL     1      26.968  49.391  37.721  1.00  0.00    -0.226 NA
ENDBRANCH  15  16
ENDBRANCH  14  15
ENDBRANCH  10  14
ENDBRANCH   2   8
BRANCH   1  22
HETATM   22  O   UNL     1      30.990  50.342  42.151  1.00  0.00    -0.309 OA
BRANCH  22  23
HETATM   23  C   UNL     1      32.124  50.877  42.732  1.00  0.00     0.076 A 
HETATM   24  C   UNL     1      33.288  50.808  41.964  1.00  0.00     0.037 A 
HETATM   25  C   UNL     1      34.493  51.311  42.458  1.00  0.00     0.003 A 
HETATM   26  C   UNL     1      34.537  51.896  43.722  1.00  0.00     0.000 A 
HETATM   27  C   UNL     1      33.373  51.997  44.481  1.00  0.00     0.003 A 
HETATM   28  C   UNL     1      32.165  51.500  43.984  1.00  0.00     0.037 A 
ENDBRANCH  22  23
ENDBRANCH   1  22
TORSDOF 6
ENDMDL
MODEL 10
REMARK VINA RESULT:      -7.4      4.799      8.923
REMARK  6 active torsions:
REMARK  status: ('A' for Active; 'I' for Inactive)
REMARK    1  A    between atoms: C_4  and  O_5 
REMARK    2  A    between atoms: O_5  and  C_6 
REMARK    3  A    between atoms: C_7  and  N_8 
REMARK       I    between atoms: N_8  and  C_9 
REMARK       I    between atoms: C_9  and  N_10 
REMARK    4  A    between atoms: N_10  and  C_11 
REMARK    5  A    between atoms: C_11  and  C_12 
REMARK    6  A    between atoms: C_12  and  C_13 
ROOT
HETATM    1  C   UNL     1      24.201  48.727  49.187  1.00  0.00     0.106 C 
HETATM    2  C   UNL     1      25.182  47.808  49.579  1.00  0.00     0.109 C 
HETATM    3  C   UNL     1      26.520  48.127  49.328  1.00  0.00     0.145 C 
HETATM    4  F   UNL     1      27.492  47.304  49.753  1.00  0.00    -0.204 F 
HETATM    5  C   UNL     1      26.875  49.262  48.602  1.00  0.00     0.045 C 
HETATM    6  C   UNL     1      25.882  50.117  48.128  1.00  0.00     0.006 C 
HETATM    7  C   UNL     1      24.544  49.851  48.423  1.00  0.00     0.040 C 
ENDROOT
BRANCH   2   8
HETATM    8  N   UNL     1      24.912  46.601  50.259  1.00  0.00    -0.304 N 
HETATM    9  C   UNL     1      25.135  46.303  51.575  1.00  0.00     0.320 C 
HETATM   10  N   UNL     1      25.690  47.272  52.356  1.00  0.00    -0.342 N 
HETATM   11  O   UNL     1      24.685  45.254  52.036  1.00  0.00    -0.247 OA
HETATM   12  H   UNL     1      26.399  47.857  51.931  1.00  0.00     0.164 HD
HETATM   13  H   UNL     1      24.122  46.064  49.920  1.00  0.00     0.171 HD
BRANCH  10  14
HETATM   14  C   UNL     1      25.756  47.151  53.803  1.00  0.00     0.132 C 
BRANCH  14  15
HETATM   15  C   UNL     1      27.140  47.453  54.372  1.00  0.00     0.102 C 
BRANCH  15  16
HETATM   16  C   UNL     1      27.936  46.218  54.606  1.00  0.00     0.148 A 
HETATM   17  N   UNL     1      28.951  46.165  55.480  1.00  0.00    -0.158 NA
HETATM   18  N   UNL     1      29.363  44.896  55.343  1.00  0.00    -0.270 N 
HETATM   19  H   UNL     1      30.140  44.562  55.900  1.00  0.00     0.190 HD
HETATM   20  C   UNL     1      28.618  44.234  54.420  1.00  0.00     0.227 A 
HETATM   21  N   UNL     1      27.705  45.042  53.934  1.00  0.00    -0.226 NA
ENDBRANCH  15  16
ENDBRANCH  14  15
ENDBRANCH  10  14
ENDBRANCH   2   8
BRANCH   1  22
HETATM   22  O   UNL     1      22.893  48.524  49.568  1.00  0.00    -0.309 OA
BRANCH  22  23
HETATM   23  C   UNL     1      21.937  49.404  49.096  1.00  0.00     0.076 A 
HETATM   24  C   UNL     1      21.284  49.017  47.924  1.00  0.00     0.037 A 
HETATM   25  C   UNL     1      20.307  49.836  47.355  1.00  0.00     0.003 A 
HETATM   26  C   UNL     1      19.970  51.043  47.964  1.00  0.00     0.000 A 
HETATM   27  C   UNL     1      20.595  51.421  49.151  1.00  0.00     0.003 A 
HETATM   28  C   UNL     1      21.569  50.598  49.724  1.00  0.00     0.037 A 
ENDBRANCH  22  23
ENDBRANCH   1  22
TORSDOF 6
ENDMDL
