MODEL 1
REMARK VINA RESULT:     -10.0      0.000      0.000
REMARK  8 active torsions:
REMARK  status: ('A' for Active; 'I' for Inactive)
REMARK    1  A    between atoms: C_2  and  O_3 
REMARK    2  A    between atoms: O_3  and  C_4 
REMARK    3  A    between atoms: C_5  and  C_6 
REMARK    4  A    between atoms: C_6  and  N_7 
REMARK    5  A    between atoms: C_9  and  C_10 
REMARK    6  A    between atoms: C_10  and  C_11 
REMARK       I    between atoms: C_11  and  N_12 
REMARK    7  A    between atoms: N_12  and  C_13 
REMARK    8  A    between atoms: C_13  and  C_14 
ROOT
HETATM    1  N   UNL     1      24.482  45.545  49.636  1.00  0.00    -0.052 N 
HETATM    2  H   UNL     1      25.242  45.505  48.948  1.00  0.00     0.281 HD
HETATM    3  C   UNL     1      24.751  44.419  50.690  1.00  0.00     0.288 C 
HETATM    4  C   UNL     1      24.756  43.012  50.012  1.00  0.00     0.249 C 
HETATM    5  O   UNL     1      25.475  42.083  50.369  1.00  0.00    -0.271 OA
HETATM    6  N   UNL     1      23.862  42.814  48.990  1.00  0.00    -0.358 N 
HETATM    7  C   UNL     1      23.310  43.885  48.184  1.00  0.00     0.150 C 
HETATM    8  C   UNL     1      23.159  45.213  48.934  1.00  0.00     0.256 C 
HETATM    9  H   UNL     1      23.912  41.883  48.582  1.00  0.00     0.162 HD
ENDROOT
BRANCH   3  10
HETATM   10  C   UNL     1      26.080  44.621  51.428  1.00  0.00     0.145 C 
BRANCH  10  11
HETATM   11  C   UNL     1      25.776  45.155  52.811  1.00  0.00     0.220 C 
HETATM   12  N   UNL     1      26.546  46.225  53.183  1.00  0.00    -0.355 N 
HETATM   13  H   UNL     1      27.310  46.539  52.599  1.00  0.00     0.162 HD
HETATM   14  O   UNL     1      24.891  44.663  53.502  1.00  0.00    -0.274 OA
BRANCH  12  15
HETATM   15  C   UNL     1      26.590  46.675  54.556  1.00  0.00     0.179 C 
BRANCH  15  16
HETATM   16  C   UNL     1      27.784  46.038  55.169  1.00  0.00     0.028 A 
HETATM   17  N   UNL     1      28.267  46.428  56.398  1.00  0.00    -0.357 N 
HETATM   18  H   UNL     1      27.860  47.146  56.986  1.00  0.00     0.166 HD
HETATM   19  C   UNL     1      29.352  45.657  56.754  1.00  0.00     0.043 A 
HETATM   20  C   UNL     1      29.584  44.765  55.707  1.00  0.00    -0.005 A 
HETATM   21  C   UNL     1      30.134  45.685  57.916  1.00  0.00     0.033 A 
HETATM   22  C   UNL     1      28.598  45.019  54.714  1.00  0.00     0.040 A 
HETATM   23  C   UNL     1      30.651  43.855  55.813  1.00  0.00     0.056 A 
HETATM   24  C   UNL     1      31.434  43.877  56.968  1.00  0.00     0.117 A 
HETATM   25  C   UNL     1      31.187  44.771  58.002  1.00  0.00     0.044 A 
HETATM   26  F   UNL     1      32.449  43.010  57.081  1.00  0.00    -0.206 F 
ENDBRANCH  15  16
ENDBRANCH  12  15
ENDBRANCH  10  11
ENDBRANCH   3  10
BRANCH   1  27
HETATM   27  C   UNL     1      24.459  46.942  50.233  1.00  0.00     0.277 C 
BRANCH  27  28
HETATM   28  C   UNL     1      25.373  47.966  49.598  1.00  0.00     0.001 A 
HETATM   29  C   UNL     1      24.807  48.986  48.805  1.00  0.00     0.076 A 
HETATM   30  C   UNL     1      25.628  49.941  48.199  1.00  0.00     0.037 A 
HETATM   31  C   UNL     1      27.004  49.923  48.418  1.00  0.00     0.003 A 
HETATM   32  C   UNL     1      27.566  48.964  49.252  1.00  0.00     0.001 A 
HETATM   33  C   UNL     1      26.757  47.998  49.851  1.00  0.00     0.012 A 
BRANCH  29  34
HETATM   34  O   UNL     1      23.443  48.954  48.683  1.00  0.00    -0.351 OA
BRANCH  34  35
HETATM   35  C   UNL     1      22.848  49.936  47.827  1.00  0.00     0.171 C 
HETATM   36  C   UNL     1      22.162  50.966  48.707  1.00  0.00     0.034 C 
ENDBRANCH  34  35
ENDBRANCH  29  34
ENDBRANCH  27  28
ENDBRANCH   1  27
TORSDOF 8
ENDMDL
MODEL 2
REMARK VINA RESULT:      -9.9      4.140      9.068
REMARK  8 active torsions:
REMARK  status: ('A' for Active; 'I' for Inactive)
REMARK    1  A    between atoms: C_2  and  O_3 
REMARK    2  A    between atoms: O_3  and  C_4 
REMARK    3  A    between atoms: C_5  and  C_6 
REMARK    4  A    between atoms: C_6  and  N_7 
REMARK    5  A    between atoms: C_9  and  C_10 
REMARK    6  A    between atoms: C_10  and  C_11 
REMARK       I    between atoms: C_11  and  N_12 
REMARK    7  A    between atoms: N_12  and  C_13 
REMARK    8  A    between atoms: C_13  and  C_14 
ROOT
HETATM    1  N   UNL     1      26.295  43.697  51.241  1.00  0.00    -0.052 N 
HETATM    2  H   UNL     1      25.967  43.350  52.149  1.00  0.00     0.281 HD
HETATM    3  C   UNL     1      25.120  44.516  50.607  1.00  0.00     0.288 C 
HETATM    4  C   UNL     1      23.866  43.611  50.388  1.00  0.00     0.249 C 
HETATM    5  O   UNL     1      22.709  44.009  50.495  1.00  0.00    -0.271 OA
HETATM    6  N   UNL     1      24.098  42.313  50.009  1.00  0.00    -0.358 N 
HETATM    7  C   UNL     1      25.331  41.601  50.283  1.00  0.00     0.150 C 
HETATM    8  C   UNL     1      26.571  42.501  50.321  1.00  0.00     0.256 C 
HETATM    9  H   UNL     1      23.247  41.768  49.885  1.00  0.00     0.162 HD
ENDROOT
BRANCH   3  10
HETATM   10  C   UNL     1      24.722  45.721  51.469  1.00  0.00     0.145 C 
BRANCH  10  11
HETATM   11  C   UNL     1      24.820  46.966  50.615  1.00  0.00     0.220 C 
HETATM   12  N   UNL     1      23.740  47.173  49.798  1.00  0.00    -0.355 N 
HETATM   13  H   UNL     1      23.007  46.481  49.725  1.00  0.00     0.162 HD
HETATM   14  O   UNL     1      25.787  47.715  50.690  1.00  0.00    -0.274 OA
BRANCH  12  15
HETATM   15  C   UNL     1      23.788  48.140  48.724  1.00  0.00     0.179 C 
BRANCH  15  16
HETATM   16  C   UNL     1      22.581  48.993  48.872  1.00  0.00     0.028 A 
HETATM   17  N   UNL     1      21.472  48.572  49.571  1.00  0.00    -0.357 N 
HETATM   18  H   UNL     1      21.384  47.681  50.048  1.00  0.00     0.166 HD
HETATM   19  C   UNL     1      20.513  49.560  49.593  1.00  0.00     0.043 A 
HETATM   20  C   UNL     1      21.016  50.636  48.861  1.00  0.00    -0.005 A 
HETATM   21  C   UNL     1      19.251  49.577  50.201  1.00  0.00     0.033 A 
HETATM   22  C   UNL     1      22.311  50.266  48.407  1.00  0.00     0.040 A 
HETATM   23  C   UNL     1      20.225  51.790  48.720  1.00  0.00     0.056 A 
HETATM   24  C   UNL     1      18.967  51.816  49.324  1.00  0.00     0.117 A 
HETATM   25  C   UNL     1      18.483  50.735  50.051  1.00  0.00     0.044 A 
HETATM   26  F   UNL     1      18.208  52.913  49.201  1.00  0.00    -0.206 F 
ENDBRANCH  15  16
ENDBRANCH  12  15
ENDBRANCH  10  11
ENDBRANCH   3  10
BRANCH   1  27
HETATM   27  C   UNL     1      27.551  44.519  51.475  1.00  0.00     0.277 C 
BRANCH  27  28
HETATM   28  C   UNL     1      28.436  44.093  52.624  1.00  0.00     0.001 A 
HETATM   29  C   UNL     1      28.154  44.578  53.918  1.00  0.00     0.076 A 
HETATM   30  C   UNL     1      28.960  44.207  54.998  1.00  0.00     0.037 A 
HETATM   31  C   UNL     1      30.015  43.315  54.812  1.00  0.00     0.003 A 
HETATM   32  C   UNL     1      30.261  42.778  53.554  1.00  0.00     0.001 A 
HETATM   33  C   UNL     1      29.471  43.152  52.467  1.00  0.00     0.012 A 
BRANCH  29  34
HETATM   34  O   UNL     1      27.070  45.411  54.016  1.00  0.00    -0.351 OA
BRANCH  34  35
HETATM   35  C   UNL     1      27.245  46.610  54.780  1.00  0.00     0.171 C 
HETATM   36  C   UNL     1      26.174  47.596  54.348  1.00  0.00     0.034 C 
ENDBRANCH  34  35
ENDBRANCH  29  34
ENDBRANCH  27  28
ENDBRANCH   1  27
TORSDOF 8
ENDMDL
MODEL 3
REMARK VINA RESULT:      -9.6      1.214      2.568
REMARK  8 active torsions:
REMARK  status: ('A' for Active; 'I' for Inactive)
REMARK    1  A    between atoms: C_2  and  O_3 
REMARK    2  A    between atoms: O_3  and  C_4 
REMARK    3  A    between atoms: C_5  and  C_6 
REMARK    4  A    between atoms: C_6  and  N_7 
REMARK    5  A    between atoms: C_9  and  C_10 
REMARK    6  A    between atoms: C_10  and  C_11 
REMARK       I    between atoms: C_11  and  N_12 
REMARK    7  A    between atoms: N_12  and  C_13 
REMARK    8  A    between atoms: C_13  and  C_14 
ROOT
HETATM    1  N   UNL     1      24.054  46.017  49.124  1.00  0.00    -0.052 N 
HETATM    2  H   UNL     1      24.683  46.374  48.396  1.00  0.00     0.281 HD
HETATM    3  C   UNL     1      24.886  45.031  50.012  1.00  0.00     0.288 C 
HETATM    4  C   UNL     1      25.421  43.834  49.163  1.00  0.00     0.249 C 
HETATM    5  O   UNL     1      26.501  43.284  49.361  1.00  0.00    -0.271 OA
HETATM    6  N   UNL     1      24.596  43.359  48.175  1.00  0.00    -0.358 N 
HETATM    7  C   UNL     1      23.560  44.149  47.540  1.00  0.00     0.150 C 
HETATM    8  C   UNL     1      22.935  45.205  48.459  1.00  0.00     0.256 C 
HETATM    9  H   UNL     1      24.997  42.583  47.651  1.00  0.00     0.162 HD
ENDROOT
BRANCH   3  10
HETATM   10  C   UNL     1      26.070  45.726  50.696  1.00  0.00     0.145 C 
BRANCH  10  11
HETATM   11  C   UNL     1      25.732  45.901  52.161  1.00  0.00     0.220 C 
HETATM   12  N   UNL     1      26.308  46.998  52.743  1.00  0.00    -0.355 N 
HETATM   13  H   UNL     1      26.976  47.562  52.234  1.00  0.00     0.162 HD
HETATM   14  O   UNL     1      24.983  45.122  52.739  1.00  0.00    -0.274 OA
BRANCH  12  15
HETATM   15  C   UNL     1      26.327  47.161  54.180  1.00  0.00     0.179 C 
BRANCH  15  16
HETATM   16  C   UNL     1      27.472  46.357  54.678  1.00  0.00     0.028 A 
HETATM   17  N   UNL     1      27.758  45.107  54.177  1.00  0.00    -0.357 N 
HETATM   18  H   UNL     1      27.245  44.642  53.437  1.00  0.00     0.166 HD
HETATM   19  C   UNL     1      28.887  44.594  54.778  1.00  0.00     0.043 A 
HETATM   20  C   UNL     1      29.319  45.537  55.711  1.00  0.00    -0.005 A 
HETATM   21  C   UNL     1      29.547  43.378  54.563  1.00  0.00     0.033 A 
HETATM   22  C   UNL     1      28.419  46.635  55.645  1.00  0.00     0.040 A 
HETATM   23  C   UNL     1      30.465  45.258  56.476  1.00  0.00     0.056 A 
HETATM   24  C   UNL     1      31.130  44.049  56.267  1.00  0.00     0.117 A 
HETATM   25  C   UNL     1      30.686  43.122  55.332  1.00  0.00     0.044 A 
HETATM   26  F   UNL     1      32.227  43.776  56.987  1.00  0.00    -0.206 F 
ENDBRANCH  15  16
ENDBRANCH  12  15
ENDBRANCH  10  11
ENDBRANCH   3  10
BRANCH   1  27
HETATM   27  C   UNL     1      23.499  47.204  49.892  1.00  0.00     0.277 C 
BRANCH  27  28
HETATM   28  C   UNL     1      23.167  48.439  49.085  1.00  0.00     0.001 A 
HETATM   29  C   UNL     1      24.207  49.330  48.746  1.00  0.00     0.076 A 
HETATM   30  C   UNL     1      23.930  50.485  48.009  1.00  0.00     0.037 A 
HETATM   31  C   UNL     1      22.635  50.735  47.558  1.00  0.00     0.003 A 
HETATM   32  C   UNL     1      21.615  49.829  47.827  1.00  0.00     0.001 A 
HETATM   33  C   UNL     1      21.879  48.682  48.575  1.00  0.00     0.012 A 
BRANCH  29  34
HETATM   34  O   UNL     1      25.456  48.982  49.190  1.00  0.00    -0.351 OA
BRANCH  34  35
HETATM   35  C   UNL     1      26.570  49.565  48.506  1.00  0.00     0.171 C 
HETATM   36  C   UNL     1      27.838  49.099  49.200  1.00  0.00     0.034 C 
ENDBRANCH  34  35
ENDBRANCH  29  34
ENDBRANCH  27  28
ENDBRANCH   1  27
TORSDOF 8
ENDMDL
MODEL 4
REMARK VINA RESULT:      -9.4      1.823      2.350
REMARK  8 active torsions:
REMARK  status: ('A' for Active; 'I' for Inactive)
REMARK    1  A    between atoms: C_2  and  O_3 
REMARK    2  A    between atoms: O_3  and  C_4 
REMARK    3  A    between atoms: C_5  and  C_6 
REMARK    4  A    between atoms: C_6  and  N_7 
REMARK    5  A    between atoms: C_9  and  C_10 
REMARK    6  A    between atoms: C_10  and  C_11 
REMARK       I    between atoms: C_11  and  N_12 
REMARK    7  A    between atoms: N_12  and  C_13 
REMARK    8  A    between atoms: C_13  and  C_14 
ROOT
HETATM    1  N   UNL     1      23.853  45.861  48.916  1.00  0.00    -0.052 N 
HETATM    2  H   UNL     1      24.331  46.059  48.030  1.00  0.00     0.281 HD
HETATM    3  C   UNL     1      24.233  44.399  49.330  1.00  0.00     0.288 C 
HETATM    4  C   UNL     1      23.759  43.374  48.251  1.00  0.00     0.249 C 
HETATM    5  O   UNL     1      24.370  42.347  47.969  1.00  0.00    -0.271 OA
HETATM    6  N   UNL     1      22.564  43.638  47.630  1.00  0.00    -0.358 N 
HETATM    7  C   UNL     1      21.991  44.964  47.515  1.00  0.00     0.150 C 
HETATM    8  C   UNL     1      22.338  45.894  48.681  1.00  0.00     0.256 C 
HETATM    9  H   UNL     1      22.306  42.941  46.934  1.00  0.00     0.162 HD
ENDROOT
BRANCH   3  10
HETATM   10  C   UNL     1      25.742  44.231  49.548  1.00  0.00     0.145 C 
BRANCH  10  11
HETATM   11  C   UNL     1      25.951  43.475  50.842  1.00  0.00     0.220 C 
HETATM   12  N   UNL     1      27.239  43.055  51.046  1.00  0.00    -0.355 N 
HETATM   13  H   UNL     1      27.940  43.170  50.326  1.00  0.00     0.162 HD
HETATM   14  O   UNL     1      25.029  43.293  51.628  1.00  0.00    -0.274 OA
BRANCH  12  15
HETATM   15  C   UNL     1      27.558  42.088  52.072  1.00  0.00     0.179 C 
BRANCH  15  16
HETATM   16  C   UNL     1      28.209  42.843  53.173  1.00  0.00     0.028 A 
HETATM   17  N   UNL     1      29.311  42.355  53.839  1.00  0.00    -0.357 N 
HETATM   18  H   UNL     1      29.775  41.476  53.637  1.00  0.00     0.166 HD
HETATM   19  C   UNL     1      29.743  43.260  54.783  1.00  0.00     0.043 A 
HETATM   20  C   UNL     1      28.872  44.350  54.735  1.00  0.00    -0.005 A 
HETATM   21  C   UNL     1      30.829  43.193  55.664  1.00  0.00     0.033 A 
HETATM   22  C   UNL     1      27.909  44.073  53.726  1.00  0.00     0.040 A 
HETATM   23  C   UNL     1      29.086  45.429  55.610  1.00  0.00     0.056 A 
HETATM   24  C   UNL     1      30.168  45.370  56.490  1.00  0.00     0.117 A 
HETATM   25  C   UNL     1      31.026  44.278  56.523  1.00  0.00     0.044 A 
HETATM   26  F   UNL     1      30.384  46.396  57.324  1.00  0.00    -0.206 F 
ENDBRANCH  15  16
ENDBRANCH  12  15
ENDBRANCH  10  11
ENDBRANCH   3  10
BRANCH   1  27
HETATM   27  C   UNL     1      24.283  46.909  49.929  1.00  0.00     0.277 C 
BRANCH  27  28
HETATM   28  C   UNL     1      25.248  47.967  49.442  1.00  0.00     0.001 A 
HETATM   29  C   UNL     1      24.738  49.095  48.768  1.00  0.00     0.076 A 
HETATM   30  C   UNL     1      25.607  50.085  48.299  1.00  0.00     0.037 A 
HETATM   31  C   UNL     1      26.976  49.988  48.543  1.00  0.00     0.003 A 
HETATM   32  C   UNL     1      27.483  48.914  49.265  1.00  0.00     0.001 A 
HETATM   33  C   UNL     1      26.626  47.915  49.725  1.00  0.00     0.012 A 
BRANCH  29  34
HETATM   34  O   UNL     1      23.377  49.131  48.615  1.00  0.00    -0.351 OA
BRANCH  34  35
HETATM   35  C   UNL     1      22.663  50.083  49.412  1.00  0.00     0.171 C 
HETATM   36  C   UNL     1      21.944  51.031  48.469  1.00  0.00     0.034 C 
ENDBRANCH  34  35
ENDBRANCH  29  34
ENDBRANCH  27  28
ENDBRANCH   1  27
TORSDOF 8
ENDMDL
MODEL 5
REMARK VINA RESULT:      -8.9      2.391      4.432
REMARK  8 active torsions:
REMARK  status: ('A' for Active; 'I' for Inactive)
REMARK    1  A    between atoms: C_2  and  O_3 
REMARK    2  A    between atoms: O_3  and  C_4 
REMARK    3  A    between atoms: C_5  and  C_6 
REMARK    4  A    between atoms: C_6  and  N_7 
REMARK    5  A    between atoms: C_9  and  C_10 
REMARK    6  A    between atoms: C_10  and  C_11 
REMARK       I    between atoms: C_11  and  N_12 
REMARK    7  A    between atoms: N_12  and  C_13 
REMARK    8  A    between atoms: C_13  and  C_14 
ROOT
HETATM    1  N   UNL     1      23.899  48.982  49.206  1.00  0.00    -0.052 N 
HETATM    2  H   UNL     1      23.975  49.679  49.955  1.00  0.00     0.281 HD
HETATM    3  C   UNL     1      24.925  47.844  49.528  1.00  0.00     0.288 C 
HETATM    4  C   UNL     1      26.383  48.402  49.566  1.00  0.00     0.249 C 
HETATM    5  O   UNL     1      27.256  47.982  50.320  1.00  0.00    -0.271 OA
HETATM    6  N   UNL     1      26.692  49.385  48.660  1.00  0.00    -0.358 N 
HETATM    7  C   UNL     1      25.710  50.267  48.061  1.00  0.00     0.150 C 
HETATM    8  C   UNL     1      24.329  49.627  47.882  1.00  0.00     0.256 C 
HETATM    9  H   UNL     1      27.653  49.715  48.732  1.00  0.00     0.162 HD
ENDROOT
BRANCH   3  10
HETATM   10  C   UNL     1      24.621  47.151  50.864  1.00  0.00     0.145 C 
BRANCH  10  11
HETATM   11  C   UNL     1      25.211  45.759  50.819  1.00  0.00     0.220 C 
HETATM   12  N   UNL     1      25.915  45.410  51.940  1.00  0.00    -0.355 N 
HETATM   13  H   UNL     1      26.089  46.086  52.672  1.00  0.00     0.162 HD
HETATM   14  O   UNL     1      25.034  45.024  49.854  1.00  0.00    -0.274 OA
BRANCH  12  15
HETATM   15  C   UNL     1      26.773  44.246  51.954  1.00  0.00     0.179 C 
BRANCH  15  16
HETATM   16  C   UNL     1      27.668  44.399  53.131  1.00  0.00     0.028 A 
HETATM   17  N   UNL     1      28.706  43.528  53.375  1.00  0.00    -0.357 N 
HETATM   18  H   UNL     1      28.960  42.741  52.788  1.00  0.00     0.166 HD
HETATM   19  C   UNL     1      29.402  43.913  54.500  1.00  0.00     0.043 A 
HETATM   20  C   UNL     1      28.771  45.050  55.004  1.00  0.00    -0.005 A 
HETATM   21  C   UNL     1      30.532  43.342  55.098  1.00  0.00     0.033 A 
HETATM   22  C   UNL     1      27.679  45.341  54.141  1.00  0.00     0.040 A 
HETATM   23  C   UNL     1      29.283  45.652  56.167  1.00  0.00     0.056 A 
HETATM   24  C   UNL     1      30.410  45.089  56.769  1.00  0.00     0.117 A 
HETATM   25  C   UNL     1      31.027  43.957  56.251  1.00  0.00     0.044 A 
HETATM   26  F   UNL     1      30.909  45.658  57.874  1.00  0.00    -0.206 F 
ENDBRANCH  15  16
ENDBRANCH  12  15
ENDBRANCH  10  11
ENDBRANCH   3  10
BRANCH   1  27
HETATM   27  C   UNL     1      22.458  48.503  49.149  1.00  0.00     0.277 C 
BRANCH  27  28
HETATM   28  C   UNL     1      21.422  49.520  48.728  1.00  0.00     0.001 A 
HETATM   29  C   UNL     1      20.532  49.192  47.684  1.00  0.00     0.076 A 
HETATM   30  C   UNL     1      19.569  50.115  47.266  1.00  0.00     0.037 A 
HETATM   31  C   UNL     1      19.447  51.343  47.914  1.00  0.00     0.003 A 
HETATM   32  C   UNL     1      20.274  51.651  48.989  1.00  0.00     0.001 A 
HETATM   33  C   UNL     1      21.248  50.742  49.403  1.00  0.00     0.012 A 
BRANCH  29  34
HETATM   34  O   UNL     1      20.692  47.946  47.137  1.00  0.00    -0.351 OA
BRANCH  34  35
HETATM   35  C   UNL     1      19.521  47.125  47.045  1.00  0.00     0.171 C 
HETATM   36  C   UNL     1      19.346  46.416  48.376  1.00  0.00     0.034 C 
ENDBRANCH  34  35
ENDBRANCH  29  34
ENDBRANCH  27  28
ENDBRANCH   1  27
TORSDOF 8
ENDMDL
MODEL 6
REMARK VINA RESULT:      -8.8      3.531      6.065
REMARK  8 active torsions:
REMARK  status: ('A' for Active; 'I' for Inactive)
REMARK    1  A    between atoms: C_2  and  O_3 
REMARK    2  A    between atoms: O_3  and  C_4 
REMARK    3  A    between atoms: C_5  and  C_6 
REMARK    4  A    between atoms: C_6  and  N_7 
REMARK    5  A    between atoms: C_9  and  C_10 
REMARK    6  A    between atoms: C_10  and  C_11 
REMARK       I    between atoms: C_11  and  N_12 
REMARK    7  A    between atoms: N_12  and  C_13 
REMARK    8  A    between atoms: C_13  and  C_14 
ROOT
HETATM    1  N   UNL     1      25.529  41.715  48.955  1.00  0.00    -0.052 N 
HETATM    2  H   UNL     1      25.274  40.823  49.394  1.00  0.00     0.281 HD
HETATM    3  C   UNL     1      24.856  42.853  49.793  1.00  0.00     0.288 C 
HETATM    4  C   UNL     1      23.301  42.704  49.787  1.00  0.00     0.249 C 
HETATM    5  O   UNL     1      22.582  42.998  50.738  1.00  0.00    -0.271 OA
HETATM    6  N   UNL     1      22.727  42.260  48.622  1.00  0.00    -0.358 N 
HETATM    7  C   UNL     1      23.426  41.468  47.630  1.00  0.00     0.150 C 
HETATM    8  C   UNL     1      24.927  41.764  47.545  1.00  0.00     0.256 C 
HETATM    9  H   UNL     1      21.714  42.177  48.676  1.00  0.00     0.162 HD
ENDROOT
BRANCH   3  10
HETATM   10  C   UNL     1      25.350  42.872  51.246  1.00  0.00     0.145 C 
BRANCH  10  11
HETATM   11  C   UNL     1      25.676  44.303  51.615  1.00  0.00     0.220 C 
HETATM   12  N   UNL     1      26.722  44.433  52.488  1.00  0.00    -0.355 N 
HETATM   13  H   UNL     1      27.149  43.618  52.908  1.00  0.00     0.162 HD
HETATM   14  O   UNL     1      25.052  45.242  51.134  1.00  0.00    -0.274 OA
BRANCH  12  15
HETATM   15  C   UNL     1      26.985  45.686  53.161  1.00  0.00     0.179 C 
BRANCH  15  16
HETATM   16  C   UNL     1      27.976  45.390  54.227  1.00  0.00     0.028 A 
HETATM   17  N   UNL     1      28.826  44.310  54.153  1.00  0.00    -0.357 N 
HETATM   18  H   UNL     1      28.866  43.649  53.385  1.00  0.00     0.166 HD
HETATM   19  C   UNL     1      29.668  44.284  55.243  1.00  0.00     0.043 A 
HETATM   20  C   UNL     1      29.326  45.368  56.051  1.00  0.00    -0.005 A 
HETATM   21  C   UNL     1      30.696  43.389  55.566  1.00  0.00     0.033 A 
HETATM   22  C   UNL     1      28.258  46.051  55.408  1.00  0.00     0.040 A 
HETATM   23  C   UNL     1      30.037  45.575  57.247  1.00  0.00     0.056 A 
HETATM   24  C   UNL     1      31.064  44.689  57.575  1.00  0.00     0.117 A 
HETATM   25  C   UNL     1      31.392  43.615  56.756  1.00  0.00     0.044 A 
HETATM   26  F   UNL     1      31.752  44.880  58.708  1.00  0.00    -0.206 F 
ENDBRANCH  15  16
ENDBRANCH  12  15
ENDBRANCH  10  11
ENDBRANCH   3  10
BRANCH   1  27
HETATM   27  C   UNL     1      27.045  41.804  48.915  1.00  0.00     0.277 C 
BRANCH  27  28
HETATM   28  C   UNL     1      27.803  40.496  48.923  1.00  0.00     0.001 A 
HETATM   29  C   UNL     1      28.230  39.963  50.157  1.00  0.00     0.076 A 
HETATM   30  C   UNL     1      28.940  38.760  50.194  1.00  0.00     0.037 A 
HETATM   31  C   UNL     1      29.183  38.053  49.018  1.00  0.00     0.003 A 
HETATM   32  C   UNL     1      28.709  38.534  47.803  1.00  0.00     0.001 A 
HETATM   33  C   UNL     1      28.011  39.741  47.754  1.00  0.00     0.012 A 
BRANCH  29  34
HETATM   34  O   UNL     1      27.905  40.700  51.265  1.00  0.00    -0.351 OA
BRANCH  34  35
HETATM   35  C   UNL     1      28.892  40.777  52.301  1.00  0.00     0.171 C 
HETATM   36  C   UNL     1      28.173  41.067  53.607  1.00  0.00     0.034 C 
ENDBRANCH  34  35
ENDBRANCH  29  34
ENDBRANCH  27  28
ENDBRANCH   1  27
TORSDOF 8
ENDMDL
MODEL 7
REMARK VINA RESULT:      -8.8      4.688      9.190
REMARK  8 active torsions:
REMARK  status: ('A' for Active; 'I' for Inactive)
REMARK    1  A    between atoms: C_2  and  O_3 
REMARK    2  A    between atoms: O_3  and  C_4 
REMARK    3  A    between atoms: C_5  and  C_6 
REMARK    4  A    between atoms: C_6  and  N_7 
REMARK    5  A    between atoms: C_9  and  C_10 
REMARK    6  A    between atoms: C_10  and  C_11 
REMARK       I    between atoms: C_11  and  N_12 
REMARK    7  A    between atoms: N_12  and  C_13 
REMARK    8  A    between atoms: C_13  and  C_14 
ROOT
HETATM    1  N   UNL     1      25.834  43.145  49.934  1.00  0.00    -0.052 N 
HETATM    2  H   UNL     1      25.658  42.728  50.855  1.00  0.00     0.281 HD
HETATM    3  C   UNL     1      24.453  43.262  49.207  1.00  0.00     0.288 C 
HETATM    4  C   UNL     1      23.803  41.855  49.017  1.00  0.00     0.249 C 
HETATM    5  O   UNL     1      22.593  41.649  49.060  1.00  0.00    -0.271 OA
HETATM    6  N   UNL     1      24.652  40.813  48.742  1.00  0.00    -0.358 N 
HETATM    7  C   UNL     1      26.056  40.800  49.104  1.00  0.00     0.150 C 
HETATM    8  C   UNL     1      26.707  42.187  49.114  1.00  0.00     0.256 C 
HETATM    9  H   UNL     1      24.176  39.919  48.633  1.00  0.00     0.162 HD
ENDROOT
BRANCH   3  10
HETATM   10  C   UNL     1      23.472  44.166  49.965  1.00  0.00     0.145 C 
BRANCH  10  11
HETATM   11  C   UNL     1      22.549  44.813  48.957  1.00  0.00     0.220 C 
HETATM   12  N   UNL     1      21.284  45.049  49.423  1.00  0.00    -0.355 N 
HETATM   13  H   UNL     1      20.998  44.714  50.333  1.00  0.00     0.162 HD
HETATM   14  O   UNL     1      22.942  45.110  47.834  1.00  0.00    -0.274 OA
BRANCH  12  15
HETATM   15  C   UNL     1      20.205  45.393  48.523  1.00  0.00     0.179 C 
BRANCH  15  16
HETATM   16  C   UNL     1      20.032  46.865  48.617  1.00  0.00     0.028 A 
HETATM   17  N   UNL     1      19.470  47.464  49.721  1.00  0.00    -0.357 N 
HETATM   18  H   UNL     1      19.149  46.977  50.551  1.00  0.00     0.166 HD
HETATM   19  C   UNL     1      19.462  48.834  49.575  1.00  0.00     0.043 A 
HETATM   20  C   UNL     1      20.013  49.116  48.324  1.00  0.00    -0.005 A 
HETATM   21  C   UNL     1      19.013  49.831  50.449  1.00  0.00     0.033 A 
HETATM   22  C   UNL     1      20.360  47.872  47.729  1.00  0.00     0.040 A 
HETATM   23  C   UNL     1      20.121  50.457  47.916  1.00  0.00     0.056 A 
HETATM   24  C   UNL     1      19.676  51.456  48.783  1.00  0.00     0.117 A 
HETATM   25  C   UNL     1      19.132  51.157  50.026  1.00  0.00     0.044 A 
HETATM   26  F   UNL     1      19.779  52.737  48.406  1.00  0.00    -0.206 F 
ENDBRANCH  15  16
ENDBRANCH  12  15
ENDBRANCH  10  11
ENDBRANCH   3  10
BRANCH   1  27
HETATM   27  C   UNL     1      26.524  44.483  50.146  1.00  0.00     0.277 C 
BRANCH  27  28
HETATM   28  C   UNL     1      26.393  45.104  51.518  1.00  0.00     0.001 A 
HETATM   29  C   UNL     1      26.820  44.368  52.642  1.00  0.00     0.076 A 
HETATM   30  C   UNL     1      26.703  44.913  53.924  1.00  0.00     0.037 A 
HETATM   31  C   UNL     1      26.213  46.207  54.094  1.00  0.00     0.003 A 
HETATM   32  C   UNL     1      25.852  46.968  52.988  1.00  0.00     0.001 A 
HETATM   33  C   UNL     1      25.952  46.427  51.705  1.00  0.00     0.012 A 
BRANCH  29  34
HETATM   34  O   UNL     1      27.332  43.125  52.378  1.00  0.00    -0.351 OA
BRANCH  34  35
HETATM   35  C   UNL     1      28.316  42.624  53.291  1.00  0.00     0.171 C 
HETATM   36  C   UNL     1      29.682  43.041  52.777  1.00  0.00     0.034 C 
ENDBRANCH  34  35
ENDBRANCH  29  34
ENDBRANCH  27  28
ENDBRANCH   1  27
TORSDOF 8
ENDMDL
MODEL 8
REMARK VINA RESULT:      -8.7      4.492      9.025
REMARK  8 active torsions:
REMARK  status: ('A' for Active; 'I' for Inactive)
REMARK    1  A    between atoms: C_2  and  O_3 
REMARK    2  A    between atoms: O_3  and  C_4 
REMARK    3  A    between atoms: C_5  and  C_6 
REMARK    4  A    between atoms: C_6  and  N_7 
REMARK    5  A    between atoms: C_9  and  C_10 
REMARK    6  A    between atoms: C_10  and  C_11 
REMARK       I    between atoms: C_11  and  N_12 
REMARK    7  A    between atoms: N_12  and  C_13 
REMARK    8  A    between atoms: C_13  and  C_14 
ROOT
HETATM    1  N   UNL     1      26.088  42.807  50.477  1.00  0.00    -0.052 N 
HETATM    2  H   UNL     1      25.716  42.383  51.335  1.00  0.00     0.281 HD
HETATM    3  C   UNL     1      24.862  43.222  49.597  1.00  0.00     0.288 C 
HETATM    4  C   UNL     1      23.999  41.975  49.221  1.00  0.00     0.249 C 
HETATM    5  O   UNL     1      22.778  42.001  49.098  1.00  0.00    -0.271 OA
HETATM    6  N   UNL     1      24.675  40.807  48.973  1.00  0.00    -0.358 N 
HETATM    7  C   UNL     1      25.991  40.509  49.503  1.00  0.00     0.150 C 
HETATM    8  C   UNL     1      26.875  41.744  49.700  1.00  0.00     0.256 C 
HETATM    9  H   UNL     1      24.064  40.027  48.738  1.00  0.00     0.162 HD
ENDROOT
BRANCH   3  10
HETATM   10  C   UNL     1      23.968  44.254  50.296  1.00  0.00     0.145 C 
BRANCH  10  11
HETATM   11  C   UNL     1      23.079  44.893  49.252  1.00  0.00     0.220 C 
HETATM   12  N   UNL     1      21.745  44.872  49.561  1.00  0.00    -0.355 N 
HETATM   13  H   UNL     1      21.411  44.374  50.377  1.00  0.00     0.162 HD
HETATM   14  O   UNL     1      23.549  45.398  48.239  1.00  0.00    -0.274 OA
BRANCH  12  15
HETATM   15  C   UNL     1      20.740  45.175  48.567  1.00  0.00     0.179 C 
BRANCH  15  16
HETATM   16  C   UNL     1      20.465  46.631  48.677  1.00  0.00     0.028 A 
HETATM   17  N   UNL     1      19.693  47.152  49.691  1.00  0.00    -0.357 N 
HETATM   18  H   UNL     1      19.270  46.614  50.440  1.00  0.00     0.166 HD
HETATM   19  C   UNL     1      19.627  48.524  49.589  1.00  0.00     0.043 A 
HETATM   20  C   UNL     1      20.358  48.887  48.457  1.00  0.00    -0.005 A 
HETATM   21  C   UNL     1      18.979  49.458  50.407  1.00  0.00     0.033 A 
HETATM   22  C   UNL     1      20.873  47.690  47.889  1.00  0.00     0.040 A 
HETATM   23  C   UNL     1      20.449  50.248  48.115  1.00  0.00     0.056 A 
HETATM   24  C   UNL     1      19.808  51.184  48.927  1.00  0.00     0.117 A 
HETATM   25  C   UNL     1      19.086  50.805  50.052  1.00  0.00     0.044 A 
HETATM   26  F   UNL     1      19.894  52.484  48.614  1.00  0.00    -0.206 F 
ENDBRANCH  15  16
ENDBRANCH  12  15
ENDBRANCH  10  11
ENDBRANCH   3  10
BRANCH   1  27
HETATM   27  C   UNL     1      26.974  43.976  50.875  1.00  0.00     0.277 C 
BRANCH  27  28
HETATM   28  C   UNL     1      27.805  43.803  52.126  1.00  0.00     0.001 A 
HETATM   29  C   UNL     1      27.222  44.095  53.376  1.00  0.00     0.076 A 
HETATM   30  C   UNL     1      27.969  43.954  54.549  1.00  0.00     0.037 A 
HETATM   31  C   UNL     1      29.276  43.471  54.494  1.00  0.00     0.003 A 
HETATM   32  C   UNL     1      29.838  43.115  53.274  1.00  0.00     0.001 A 
HETATM   33  C   UNL     1      29.106  43.267  52.096  1.00  0.00     0.012 A 
BRANCH  29  34
HETATM   34  O   UNL     1      25.920  44.517  53.339  1.00  0.00    -0.351 OA
BRANCH  34  35
HETATM   35  C   UNL     1      25.616  45.738  54.025  1.00  0.00     0.171 C 
HETATM   36  C   UNL     1      25.772  46.878  53.035  1.00  0.00     0.034 C 
ENDBRANCH  34  35
ENDBRANCH  29  34
ENDBRANCH  27  28
ENDBRANCH   1  27
TORSDOF 8
ENDMDL
MODEL 9
REMARK VINA RESULT:      -8.6      4.916      8.495
REMARK  8 active torsions:
REMARK  status: ('A' for Active; 'I' for Inactive)
REMARK    1  A    between atoms: C_2  and  O_3 
REMARK    2  A    between atoms: O_3  and  C_4 
REMARK    3  A    between atoms: C_5  and  C_6 
REMARK    4  A    between atoms: C_6  and  N_7 
REMARK    5  A    between atoms: C_9  and  C_10 
REMARK    6  A    between atoms: C_10  and  C_11 
REMARK       I    between atoms: C_11  and  N_12 
REMARK    7  A    between atoms: N_12  and  C_13 
REMARK    8  A    between atoms: C_13  and  C_14 
ROOT
HETATM    1  N   UNL     1      25.847  44.449  51.804  1.00  0.00    -0.052 N 
HETATM    2  H   UNL     1      26.397  45.256  51.488  1.00  0.00     0.281 HD
HETATM    3  C   UNL     1      26.501  43.171  51.181  1.00  0.00     0.288 C 
HETATM    4  C   UNL     1      26.470  43.234  49.621  1.00  0.00     0.249 C 
HETATM    5  O   UNL     1      27.350  42.771  48.900  1.00  0.00    -0.271 OA
HETATM    6  N   UNL     1      25.362  43.803  49.046  1.00  0.00    -0.358 N 
HETATM    7  C   UNL     1      24.508  44.762  49.719  1.00  0.00     0.150 C 
HETATM    8  C   UNL     1      24.427  44.564  51.237  1.00  0.00     0.256 C 
HETATM    9  H   UNL     1      25.396  43.823  48.029  1.00  0.00     0.162 HD
ENDROOT
BRANCH   3  10
HETATM   10  C   UNL     1      27.951  42.977  51.643  1.00  0.00     0.145 C 
BRANCH  10  11
HETATM   11  C   UNL     1      28.165  41.505  51.922  1.00  0.00     0.220 C 
HETATM   12  N   UNL     1      28.810  40.831  50.920  1.00  0.00    -0.355 N 
HETATM   13  H   UNL     1      29.020  41.288  50.042  1.00  0.00     0.162 HD
HETATM   14  O   UNL     1      27.800  40.998  52.977  1.00  0.00    -0.274 OA
BRANCH  12  15
HETATM   15  C   UNL     1      28.845  39.386  50.890  1.00  0.00     0.179 C 
BRANCH  15  16
HETATM   16  C   UNL     1      28.682  38.991  49.467  1.00  0.00     0.028 A 
HETATM   17  N   UNL     1      28.229  39.874  48.513  1.00  0.00    -0.357 N 
HETATM   18  H   UNL     1      27.989  40.845  48.681  1.00  0.00     0.166 HD
HETATM   19  C   UNL     1      28.207  39.274  47.273  1.00  0.00     0.043 A 
HETATM   20  C   UNL     1      28.635  37.958  47.447  1.00  0.00    -0.005 A 
HETATM   21  C   UNL     1      27.844  39.797  46.026  1.00  0.00     0.033 A 
HETATM   22  C   UNL     1      28.923  37.790  48.829  1.00  0.00     0.040 A 
HETATM   23  C   UNL     1      28.703  37.112  46.326  1.00  0.00     0.056 A 
HETATM   24  C   UNL     1      28.344  37.626  45.079  1.00  0.00     0.117 A 
HETATM   25  C   UNL     1      27.922  38.941  44.924  1.00  0.00     0.044 A 
HETATM   26  F   UNL     1      28.410  36.831  44.003  1.00  0.00    -0.206 F 
ENDBRANCH  15  16
ENDBRANCH  12  15
ENDBRANCH  10  11
ENDBRANCH   3  10
BRANCH   1  27
HETATM   27  C   UNL     1      25.841  44.449  53.324  1.00  0.00     0.277 C 
BRANCH  27  28
HETATM   28  C   UNL     1      26.375  45.688  54.005  1.00  0.00     0.001 A 
HETATM   29  C   UNL     1      27.607  45.612  54.687  1.00  0.00     0.076 A 
HETATM   30  C   UNL     1      28.122  46.739  55.334  1.00  0.00     0.037 A 
HETATM   31  C   UNL     1      27.448  47.957  55.264  1.00  0.00     0.003 A 
HETATM   32  C   UNL     1      26.267  48.061  54.538  1.00  0.00     0.001 A 
HETATM   33  C   UNL     1      25.738  46.938  53.900  1.00  0.00     0.012 A 
BRANCH  29  34
HETATM   34  O   UNL     1      28.224  44.388  54.665  1.00  0.00    -0.351 OA
BRANCH  34  35
HETATM   35  C   UNL     1      29.579  44.340  55.125  1.00  0.00     0.171 C 
HETATM   36  C   UNL     1      30.129  42.960  54.807  1.00  0.00     0.034 C 
ENDBRANCH  34  35
ENDBRANCH  29  34
ENDBRANCH  27  28
ENDBRANCH   1  27
TORSDOF 8
ENDMDL
MODEL 10
REMARK VINA RESULT:      -8.6      5.104     10.878
REMARK  8 active torsions:
REMARK  status: ('A' for Active; 'I' for Inactive)
REMARK    1  A    between atoms: C_2  and  O_3 
REMARK    2  A    between atoms: O_3  and  C_4 
REMARK    3  A    between atoms: C_5  and  C_6 
REMARK    4  A    between atoms: C_6  and  N_7 
REMARK    5  A    between atoms: C_9  and  C_10 
REMARK    6  A    between atoms: C_10  and  C_11 
REMARK       I    between atoms: C_11  and  N_12 
REMARK    7  A    between atoms: N_12  and  C_13 
REMARK    8  A    between atoms: C_13  and  C_14 
ROOT
HETATM    1  N   UNL     1      25.533  47.613  49.717  1.00  0.00    -0.052 N 
HETATM    2  H   UNL     1      25.653  47.008  48.897  1.00  0.00     0.281 HD
HETATM    3  C   UNL     1      24.773  48.896  49.240  1.00  0.00     0.288 C 
HETATM    4  C   UNL     1      25.596  49.659  48.154  1.00  0.00     0.249 C 
HETATM    5  O   UNL     1      25.090  50.271  47.217  1.00  0.00    -0.271 OA
HETATM    6  N   UNL     1      26.960  49.671  48.307  1.00  0.00    -0.358 N 
HETATM    7  C   UNL     1      27.697  48.664  49.045  1.00  0.00     0.150 C 
HETATM    8  C   UNL     1      26.915  48.055  50.214  1.00  0.00     0.256 C 
HETATM    9  H   UNL     1      27.446  50.178  47.570  1.00  0.00     0.162 HD
ENDROOT
BRANCH   3  10
HETATM   10  C   UNL     1      23.384  48.570  48.674  1.00  0.00     0.145 C 
BRANCH  10  11
HETATM   11  C   UNL     1      22.361  49.385  49.435  1.00  0.00     0.220 C 
HETATM   12  N   UNL     1      21.129  48.795  49.529  1.00  0.00    -0.355 N 
HETATM   13  H   UNL     1      20.928  47.936  49.034  1.00  0.00     0.162 HD
HETATM   14  O   UNL     1      22.652  50.466  49.934  1.00  0.00    -0.274 OA
BRANCH  12  15
HETATM   15  C   UNL     1      19.971  49.543  49.965  1.00  0.00     0.179 C 
BRANCH  15  16
HETATM   16  C   UNL     1      19.381  50.152  48.746  1.00  0.00     0.028 A 
HETATM   17  N   UNL     1      19.368  49.496  47.536  1.00  0.00    -0.357 N 
HETATM   18  H   UNL     1      19.731  48.563  47.372  1.00  0.00     0.166 HD
HETATM   19  C   UNL     1      18.731  50.257  46.581  1.00  0.00     0.043 A 
HETATM   20  C   UNL     1      18.348  51.450  47.196  1.00  0.00    -0.005 A 
HETATM   21  C   UNL     1      18.469  49.979  45.234  1.00  0.00     0.033 A 
HETATM   22  C   UNL     1      18.769  51.375  48.553  1.00  0.00     0.040 A 
HETATM   23  C   UNL     1      17.674  52.421  46.435  1.00  0.00     0.056 A 
HETATM   24  C   UNL     1      17.408  52.150  45.092  1.00  0.00     0.117 A 
HETATM   25  C   UNL     1      17.795  50.955  44.496  1.00  0.00     0.044 A 
HETATM   26  F   UNL     1      16.761  53.065  44.359  1.00  0.00    -0.206 F 
ENDBRANCH  15  16
ENDBRANCH  12  15
ENDBRANCH  10  11
ENDBRANCH   3  10
BRANCH   1  27
HETATM   27  C   UNL     1      24.786  46.825  50.780  1.00  0.00     0.277 C 
BRANCH  27  28
HETATM   28  C   UNL     1      25.602  46.318  51.948  1.00  0.00     0.001 A 
HETATM   29  C   UNL     1      26.365  45.143  51.786  1.00  0.00     0.076 A 
HETATM   30  C   UNL     1      27.122  44.645  52.850  1.00  0.00     0.037 A 
HETATM   31  C   UNL     1      27.171  45.337  54.060  1.00  0.00     0.003 A 
HETATM   32  C   UNL     1      26.477  46.532  54.209  1.00  0.00     0.001 A 
HETATM   33  C   UNL     1      25.707  47.029  53.157  1.00  0.00     0.012 A 
BRANCH  29  34
HETATM   34  O   UNL     1      26.296  44.556  50.550  1.00  0.00    -0.351 OA
BRANCH  34  35
HETATM   35  C   UNL     1      25.999  43.155  50.516  1.00  0.00     0.171 C 
HETATM   36  C   UNL     1      24.542  42.979  50.907  1.00  0.00     0.034 C 
ENDBRANCH  34  35
ENDBRANCH  29  34
ENDBRANCH  27  28
ENDBRANCH   1  27
TORSDOF 8
ENDMDL
