MODEL 1
REMARK VINA RESULT:      -8.7      0.000      0.000
REMARK  7 active torsions:
REMARK  status: ('A' for Active; 'I' for Inactive)
REMARK    1  A    between atoms: C_8  and  C_9 
REMARK    2  A    between atoms: C_9  and  N_10 
REMARK    3  A    between atoms: C_9  and  C_14 
REMARK       I    between atoms: C_14  and  N_15 
REMARK    4  A    between atoms: N_15  and  C_16 
REMARK    5  A    between atoms: C_16  and  C_17 
REMARK    6  A    between atoms: C_17  and  C_18 
REMARK    7  A    between atoms: C_20  and  C_21 
ROOT
HETATM    1  C   UNL     1      25.608  46.591  51.641  1.00  0.00     0.253 C 
HETATM    2  N   UNL     1      26.225  45.567  52.318  1.00  0.00    -0.359 N 
HETATM    3  O   UNL     1      25.125  47.583  52.191  1.00  0.00    -0.271 OA
HETATM    4  H   UNL     1      26.378  44.674  51.856  1.00  0.00     0.162 HD
ENDROOT
BRANCH   1   5
HETATM    5  C   UNL     1      25.604  46.513  50.097  1.00  0.00     0.311 C 
BRANCH   5   6
HETATM    6  C   UNL     1      25.409  47.844  49.457  1.00  0.00     0.031 A 
HETATM    7  C   UNL     1      26.346  48.816  49.133  1.00  0.00     0.035 A 
HETATM    8  C   UNL     1      27.821  48.900  49.287  1.00  0.00     0.070 C 
HETATM    9  N   UNL     1      25.636  49.859  48.596  1.00  0.00    -0.282 N 
HETATM   10  H   UNL     1      25.977  50.768  48.284  1.00  0.00     0.189 HD
HETATM   11  N   UNL     1      24.325  49.614  48.515  1.00  0.00    -0.179 NA
HETATM   12  C   UNL     1      24.166  48.401  49.041  1.00  0.00     0.061 A 
HETATM   13  C   UNL     1      22.800  47.816  49.124  1.00  0.00     0.073 C 
ENDBRANCH   5   6
BRANCH   5  14
HETATM   14  N   UNL     1      26.882  45.885  49.631  1.00  0.00    -0.062 N 
HETATM   15  H   UNL     1      27.232  46.408  48.820  1.00  0.00     0.275 HD
HETATM   16  H   UNL     1      27.601  45.991  50.357  1.00  0.00     0.275 HD
HETATM   17  H   UNL     1      26.764  44.901  49.377  1.00  0.00     0.275 HD
ENDBRANCH   5  14
ENDBRANCH   1   5
BRANCH   2  18
HETATM   18  C   UNL     1      26.300  45.540  53.774  1.00  0.00     0.127 C 
BRANCH  18  19
HETATM   19  C   UNL     1      27.655  46.013  54.317  1.00  0.00     0.058 C 
BRANCH  19  20
HETATM   20  C   UNL     1      28.682  44.907  54.411  1.00  0.00    -0.056 A 
HETATM   21  C   UNL     1      29.468  44.769  55.563  1.00  0.00     0.023 A 
HETATM   22  C   UNL     1      30.425  43.744  55.672  1.00  0.00     0.048 A 
HETATM   23  C   UNL     1      30.582  42.848  54.607  1.00  0.00     0.016 A 
HETATM   24  C   UNL     1      29.817  42.989  53.449  1.00  0.00     0.001 A 
HETATM   25  C   UNL     1      28.876  44.014  53.350  1.00  0.00     0.007 A 
BRANCH  22  26
HETATM   26  C   UNL     1      31.237  43.593  56.934  1.00  0.00     0.417 C 
HETATM   27  F   UNL     1      31.051  42.388  57.542  1.00  0.00    -0.166 F 
HETATM   28  F   UNL     1      32.580  43.661  56.685  1.00  0.00    -0.166 F 
HETATM   29  F   UNL     1      30.978  44.539  57.874  1.00  0.00    -0.166 F 
ENDBRANCH  22  26
ENDBRANCH  19  20
ENDBRANCH  18  19
ENDBRANCH   2  18
TORSDOF 7
ENDMDL
MODEL 2
REMARK VINA RESULT:      -8.6      1.735      2.650
REMARK  7 active torsions:
REMARK  status: ('A' for Active; 'I' for Inactive)
REMARK    1  A    between atoms: C_8  and  C_9 
REMARK    2  A    between atoms: C_9  and  N_10 
REMARK    3  A    between atoms: C_9  and  C_14 
REMARK       I    between atoms: C_14  and  N_15 
REMARK    4  A    between atoms: N_15  and  C_16 
REMARK    5  A    between atoms: C_16  and  C_17 
REMARK    6  A    between atoms: C_17  and  C_18 
REMARK    7  A    between atoms: C_20  and  C_21 
ROOT
HETATM    1  C   UNL     1      25.256  44.290  51.459  1.00  0.00     0.253 C 
HETATM    2  N   UNL     1      26.559  44.121  51.860  1.00  0.00    -0.359 N 
HETATM    3  O   UNL     1      24.292  44.242  52.225  1.00  0.00    -0.271 OA
HETATM    4  H   UNL     1      27.280  43.922  51.171  1.00  0.00     0.162 HD
ENDROOT
BRANCH   1   5
HETATM    5  C   UNL     1      25.017  44.641  49.972  1.00  0.00     0.311 C 
BRANCH   5   6
HETATM    6  C   UNL     1      24.366  45.968  49.795  1.00  0.00     0.031 A 
HETATM    7  C   UNL     1      23.164  46.289  49.176  1.00  0.00     0.035 A 
HETATM    8  C   UNL     1      22.122  45.480  48.495  1.00  0.00     0.070 C 
HETATM    9  N   UNL     1      23.050  47.653  49.260  1.00  0.00    -0.282 N 
HETATM   10  H   UNL     1      22.323  48.256  48.878  1.00  0.00     0.189 HD
HETATM   11  N   UNL     1      24.063  48.224  49.918  1.00  0.00    -0.179 NA
HETATM   12  C   UNL     1      24.876  47.221  50.242  1.00  0.00     0.061 A 
HETATM   13  C   UNL     1      26.135  47.510  50.981  1.00  0.00     0.073 C 
ENDBRANCH   5   6
BRANCH   5  14
HETATM   14  N   UNL     1      26.321  44.589  49.237  1.00  0.00    -0.062 N 
HETATM   15  H   UNL     1      26.291  45.261  48.461  1.00  0.00     0.275 HD
HETATM   16  H   UNL     1      27.076  44.914  49.853  1.00  0.00     0.275 HD
HETATM   17  H   UNL     1      26.526  43.655  48.871  1.00  0.00     0.275 HD
ENDBRANCH   5  14
ENDBRANCH   1   5
BRANCH   2  18
HETATM   18  C   UNL     1      26.907  43.800  53.240  1.00  0.00     0.127 C 
BRANCH  18  19
HETATM   19  C   UNL     1      27.612  44.952  53.968  1.00  0.00     0.058 C 
BRANCH  19  20
HETATM   20  C   UNL     1      28.841  44.513  54.732  1.00  0.00    -0.056 A 
HETATM   21  C   UNL     1      29.171  45.121  55.950  1.00  0.00     0.023 A 
HETATM   22  C   UNL     1      30.307  44.724  56.678  1.00  0.00     0.048 A 
HETATM   23  C   UNL     1      31.112  43.697  56.170  1.00  0.00     0.016 A 
HETATM   24  C   UNL     1      30.803  43.098  54.948  1.00  0.00     0.001 A 
HETATM   25  C   UNL     1      29.677  43.505  54.232  1.00  0.00     0.007 A 
BRANCH  22  26
HETATM   26  C   UNL     1      30.625  45.369  58.004  1.00  0.00     0.417 C 
HETATM   27  F   UNL     1      29.639  45.194  58.927  1.00  0.00    -0.166 F 
HETATM   28  F   UNL     1      31.745  44.832  58.575  1.00  0.00    -0.166 F 
HETATM   29  F   UNL     1      30.844  46.708  57.928  1.00  0.00    -0.166 F 
ENDBRANCH  22  26
ENDBRANCH  19  20
ENDBRANCH  18  19
ENDBRANCH   2  18
TORSDOF 7
ENDMDL
MODEL 3
REMARK VINA RESULT:      -8.6      3.566      5.263
REMARK  7 active torsions:
REMARK  status: ('A' for Active; 'I' for Inactive)
REMARK    1  A    between atoms: C_8  and  C_9 
REMARK    2  A    between atoms: C_9  and  N_10 
REMARK    3  A    between atoms: C_9  and  C_14 
REMARK       I    between atoms: C_14  and  N_15 
REMARK    4  A    between atoms: N_15  and  C_16 
REMARK    5  A    between atoms: C_16  and  C_17 
REMARK    6  A    between atoms: C_17  and  C_18 
REMARK    7  A    between atoms: C_20  and  C_21 
ROOT
HETATM    1  C   UNL     1      26.935  43.801  50.770  1.00  0.00     0.253 C 
HETATM    2  N   UNL     1      26.752  44.046  52.109  1.00  0.00    -0.359 N 
HETATM    3  O   UNL     1      27.575  44.541  50.020  1.00  0.00    -0.271 OA
HETATM    4  H   UNL     1      26.023  43.553  52.620  1.00  0.00     0.162 HD
ENDROOT
BRANCH   1   5
HETATM    5  C   UNL     1      26.367  42.476  50.212  1.00  0.00     0.311 C 
BRANCH   5   6
HETATM    6  C   UNL     1      27.413  41.429  50.048  1.00  0.00     0.031 A 
HETATM    7  C   UNL     1      28.203  40.810  51.009  1.00  0.00     0.035 A 
HETATM    8  C   UNL     1      28.304  40.942  52.484  1.00  0.00     0.070 C 
HETATM    9  N   UNL     1      29.023  39.949  50.324  1.00  0.00    -0.282 N 
HETATM   10  H   UNL     1      29.769  39.357  50.686  1.00  0.00     0.189 HD
HETATM   11  N   UNL     1      28.791  39.941  49.008  1.00  0.00    -0.179 NA
HETATM   12  C   UNL     1      27.825  40.838  48.819  1.00  0.00     0.061 A 
HETATM   13  C   UNL     1      27.328  41.097  47.441  1.00  0.00     0.073 C 
ENDBRANCH   5   6
BRANCH   5  14
HETATM   14  N   UNL     1      25.270  41.992  51.110  1.00  0.00    -0.062 N 
HETATM   15  H   UNL     1      24.377  42.058  50.608  1.00  0.00     0.275 HD
HETATM   16  H   UNL     1      25.403  40.992  51.305  1.00  0.00     0.275 HD
HETATM   17  H   UNL     1      25.213  42.528  51.980  1.00  0.00     0.275 HD
ENDBRANCH   5  14
ENDBRANCH   1   5
BRANCH   2  18
HETATM   18  C   UNL     1      27.254  45.257  52.749  1.00  0.00     0.127 C 
BRANCH  18  19
HETATM   19  C   UNL     1      27.232  45.184  54.281  1.00  0.00     0.058 C 
BRANCH  19  20
HETATM   20  C   UNL     1      28.543  44.724  54.877  1.00  0.00    -0.056 A 
HETATM   21  C   UNL     1      28.984  45.243  56.103  1.00  0.00     0.023 A 
HETATM   22  C   UNL     1      30.198  44.825  56.675  1.00  0.00     0.048 A 
HETATM   23  C   UNL     1      30.969  43.868  56.005  1.00  0.00     0.016 A 
HETATM   24  C   UNL     1      30.549  43.359  54.776  1.00  0.00     0.001 A 
HETATM   25  C   UNL     1      29.345  43.786  54.214  1.00  0.00     0.007 A 
BRANCH  22  26
HETATM   26  C   UNL     1      30.637  45.372  58.011  1.00  0.00     0.417 C 
HETATM   27  F   UNL     1      29.688  45.231  58.978  1.00  0.00    -0.166 F 
HETATM   28  F   UNL     1      31.735  44.716  58.493  1.00  0.00    -0.166 F 
HETATM   29  F   UNL     1      30.965  46.691  57.987  1.00  0.00    -0.166 F 
ENDBRANCH  22  26
ENDBRANCH  19  20
ENDBRANCH  18  19
ENDBRANCH   2  18
TORSDOF 7
ENDMDL
MODEL 4
REMARK VINA RESULT:      -8.5      1.670      2.402
REMARK  7 active torsions:
REMARK  status: ('A' for Active; 'I' for Inactive)
REMARK    1  A    between atoms: C_8  and  C_9 
REMARK    2  A    between atoms: C_9  and  N_10 
REMARK    3  A    between atoms: C_9  and  C_14 
REMARK       I    between atoms: C_14  and  N_15 
REMARK    4  A    between atoms: N_15  and  C_16 
REMARK    5  A    between atoms: C_16  and  C_17 
REMARK    6  A    between atoms: C_17  and  C_18 
REMARK    7  A    between atoms: C_20  and  C_21 
ROOT
HETATM    1  C   UNL     1      25.238  44.168  51.399  1.00  0.00     0.253 C 
HETATM    2  N   UNL     1      26.512  43.758  51.709  1.00  0.00    -0.359 N 
HETATM    3  O   UNL     1      24.361  44.374  52.240  1.00  0.00    -0.271 OA
HETATM    4  H   UNL     1      27.109  43.367  50.984  1.00  0.00     0.162 HD
ENDROOT
BRANCH   1   5
HETATM    5  C   UNL     1      24.933  44.459  49.911  1.00  0.00     0.311 C 
BRANCH   5   6
HETATM    6  C   UNL     1      24.387  45.827  49.696  1.00  0.00     0.031 A 
HETATM    7  C   UNL     1      24.913  47.059  50.067  1.00  0.00     0.035 A 
HETATM    8  C   UNL     1      26.151  47.464  50.779  1.00  0.00     0.070 C 
HETATM    9  N   UNL     1      23.999  47.996  49.659  1.00  0.00    -0.282 N 
HETATM   10  H   UNL     1      24.017  49.005  49.798  1.00  0.00     0.189 HD
HETATM   11  N   UNL     1      22.952  47.464  49.021  1.00  0.00    -0.179 NA
HETATM   12  C   UNL     1      23.164  46.150  49.041  1.00  0.00     0.061 A 
HETATM   13  C   UNL     1      22.164  45.240  48.421  1.00  0.00     0.073 C 
ENDBRANCH   5   6
BRANCH   5  14
HETATM   14  N   UNL     1      26.178  44.253  49.103  1.00  0.00    -0.062 N 
HETATM   15  H   UNL     1      26.182  43.293  48.740  1.00  0.00     0.275 HD
HETATM   16  H   UNL     1      26.154  44.860  48.275  1.00  0.00     0.275 HD
HETATM   17  H   UNL     1      27.029  44.415  49.648  1.00  0.00     0.275 HD
ENDBRANCH   5  14
ENDBRANCH   1   5
BRANCH   2  18
HETATM   18  C   UNL     1      26.917  43.467  53.079  1.00  0.00     0.127 C 
BRANCH  18  19
HETATM   19  C   UNL     1      28.435  43.306  53.238  1.00  0.00     0.058 C 
BRANCH  19  20
HETATM   20  C   UNL     1      29.005  44.111  54.383  1.00  0.00    -0.056 A 
HETATM   21  C   UNL     1      29.968  43.549  55.233  1.00  0.00     0.023 A 
HETATM   22  C   UNL     1      30.514  44.284  56.301  1.00  0.00     0.048 A 
HETATM   23  C   UNL     1      30.086  45.601  56.505  1.00  0.00     0.016 A 
HETATM   24  C   UNL     1      29.115  46.164  55.677  1.00  0.00     0.001 A 
HETATM   25  C   UNL     1      28.575  45.423  54.624  1.00  0.00     0.007 A 
BRANCH  22  26
HETATM   26  C   UNL     1      31.572  43.670  57.183  1.00  0.00     0.417 C 
HETATM   27  F   UNL     1      31.793  44.385  58.321  1.00  0.00    -0.166 F 
HETATM   28  F   UNL     1      31.215  42.421  57.611  1.00  0.00    -0.166 F 
HETATM   29  F   UNL     1      32.782  43.530  56.579  1.00  0.00    -0.166 F 
ENDBRANCH  22  26
ENDBRANCH  19  20
ENDBRANCH  18  19
ENDBRANCH   2  18
TORSDOF 7
ENDMDL
MODEL 5
REMARK VINA RESULT:      -8.4      4.629      7.003
REMARK  7 active torsions:
REMARK  status: ('A' for Active; 'I' for Inactive)
REMARK    1  A    between atoms: C_8  and  C_9 
REMARK    2  A    between atoms: C_9  and  N_10 
REMARK    3  A    between atoms: C_9  and  C_14 
REMARK       I    between atoms: C_14  and  N_15 
REMARK    4  A    between atoms: N_15  and  C_16 
REMARK    5  A    between atoms: C_16  and  C_17 
REMARK    6  A    between atoms: C_17  and  C_18 
REMARK    7  A    between atoms: C_20  and  C_21 
ROOT
HETATM    1  C   UNL     1      27.143  41.329  49.512  1.00  0.00     0.253 C 
HETATM    2  N   UNL     1      26.693  42.001  50.623  1.00  0.00    -0.359 N 
HETATM    3  O   UNL     1      27.626  41.886  48.524  1.00  0.00    -0.271 OA
HETATM    4  H   UNL     1      26.086  41.530  51.289  1.00  0.00     0.162 HD
ENDROOT
BRANCH   1   5
HETATM    5  C   UNL     1      27.106  39.785  49.560  1.00  0.00     0.311 C 
BRANCH   5   6
HETATM    6  C   UNL     1      28.430  39.191  49.895  1.00  0.00     0.031 A 
HETATM    7  C   UNL     1      29.211  39.354  51.032  1.00  0.00     0.035 A 
HETATM    8  C   UNL     1      29.037  40.135  52.283  1.00  0.00     0.070 C 
HETATM    9  N   UNL     1      30.347  38.615  50.818  1.00  0.00    -0.282 N 
HETATM   10  H   UNL     1      31.170  38.528  51.411  1.00  0.00     0.189 HD
HETATM   11  N   UNL     1      30.334  37.962  49.652  1.00  0.00    -0.179 NA
HETATM   12  C   UNL     1      29.186  38.306  49.073  1.00  0.00     0.061 A 
HETATM   13  C   UNL     1      28.854  37.761  47.729  1.00  0.00     0.073 C 
ENDBRANCH   5   6
BRANCH   5  14
HETATM   14  N   UNL     1      26.066  39.346  50.545  1.00  0.00    -0.062 N 
HETATM   15  H   UNL     1      25.143  39.642  50.207  1.00  0.00     0.275 HD
HETATM   16  H   UNL     1      26.031  38.319  50.573  1.00  0.00     0.275 HD
HETATM   17  H   UNL     1      26.226  39.730  51.480  1.00  0.00     0.275 HD
ENDBRANCH   5  14
ENDBRANCH   1   5
BRANCH   2  18
HETATM   18  C   UNL     1      26.691  43.458  50.696  1.00  0.00     0.127 C 
BRANCH  18  19
HETATM   19  C   UNL     1      25.988  43.998  51.949  1.00  0.00     0.058 C 
BRANCH  19  20
HETATM   20  C   UNL     1      26.948  44.492  53.008  1.00  0.00    -0.056 A 
HETATM   21  C   UNL     1      28.078  43.735  53.346  1.00  0.00     0.023 A 
HETATM   22  C   UNL     1      28.985  44.179  54.325  1.00  0.00     0.048 A 
HETATM   23  C   UNL     1      28.748  45.403  54.961  1.00  0.00     0.016 A 
HETATM   24  C   UNL     1      27.616  46.155  54.646  1.00  0.00     0.001 A 
HETATM   25  C   UNL     1      26.720  45.701  53.677  1.00  0.00     0.007 A 
BRANCH  22  26
HETATM   26  C   UNL     1      30.212  43.364  54.649  1.00  0.00     0.417 C 
HETATM   27  F   UNL     1      30.803  42.834  53.542  1.00  0.00    -0.166 F 
HETATM   28  F   UNL     1      31.184  44.123  55.241  1.00  0.00    -0.166 F 
HETATM   29  F   UNL     1      29.979  42.325  55.493  1.00  0.00    -0.166 F 
ENDBRANCH  22  26
ENDBRANCH  19  20
ENDBRANCH  18  19
ENDBRANCH   2  18
TORSDOF 7
ENDMDL
MODEL 6
REMARK VINA RESULT:      -8.4      2.341      3.561
REMARK  7 active torsions:
REMARK  status: ('A' for Active; 'I' for Inactive)
REMARK    1  A    between atoms: C_8  and  C_9 
REMARK    2  A    between atoms: C_9  and  N_10 
REMARK    3  A    between atoms: C_9  and  C_14 
REMARK       I    between atoms: C_14  and  N_15 
REMARK    4  A    between atoms: N_15  and  C_16 
REMARK    5  A    between atoms: C_16  and  C_17 
REMARK    6  A    between atoms: C_17  and  C_18 
REMARK    7  A    between atoms: C_20  and  C_21 
ROOT
HETATM    1  C   UNL     1      26.311  42.809  51.569  1.00  0.00     0.253 C 
HETATM    2  N   UNL     1      26.990  42.484  52.718  1.00  0.00    -0.359 N 
HETATM    3  O   UNL     1      26.691  42.499  50.438  1.00  0.00    -0.271 OA
HETATM    4  H   UNL     1      26.777  42.968  53.587  1.00  0.00     0.162 HD
ENDROOT
BRANCH   1   5
HETATM    5  C   UNL     1      24.955  43.533  51.732  1.00  0.00     0.311 C 
BRANCH   5   6
HETATM    6  C   UNL     1      25.085  45.014  51.663  1.00  0.00     0.031 A 
HETATM    7  C   UNL     1      25.002  45.860  50.564  1.00  0.00     0.035 A 
HETATM    8  C   UNL     1      24.760  45.628  49.117  1.00  0.00     0.070 C 
HETATM    9  N   UNL     1      25.228  47.125  51.044  1.00  0.00    -0.282 N 
HETATM   10  H   UNL     1      25.291  48.000  50.526  1.00  0.00     0.189 HD
HETATM   11  N   UNL     1      25.410  47.158  52.367  1.00  0.00    -0.179 NA
HETATM   12  C   UNL     1      25.337  45.888  52.760  1.00  0.00     0.061 A 
HETATM   13  C   UNL     1      25.516  45.558  54.200  1.00  0.00     0.073 C 
ENDBRANCH   5   6
BRANCH   5  14
HETATM   14  N   UNL     1      24.001  43.037  50.689  1.00  0.00    -0.062 N 
HETATM   15  H   UNL     1      24.535  42.762  49.856  1.00  0.00     0.275 HD
HETATM   16  H   UNL     1      23.547  42.176  51.020  1.00  0.00     0.275 HD
HETATM   17  H   UNL     1      23.304  43.740  50.431  1.00  0.00     0.275 HD
ENDBRANCH   5  14
ENDBRANCH   1   5
BRANCH   2  18
HETATM   18  C   UNL     1      28.273  41.790  52.687  1.00  0.00     0.127 C 
BRANCH  18  19
HETATM   19  C   UNL     1      29.474  42.744  52.661  1.00  0.00     0.058 C 
BRANCH  19  20
HETATM   20  C   UNL     1      29.598  43.586  53.910  1.00  0.00    -0.056 A 
HETATM   21  C   UNL     1      30.432  43.178  54.960  1.00  0.00     0.023 A 
HETATM   22  C   UNL     1      30.563  43.950  56.127  1.00  0.00     0.048 A 
HETATM   23  C   UNL     1      29.849  45.150  56.229  1.00  0.00     0.016 A 
HETATM   24  C   UNL     1      29.002  45.556  55.199  1.00  0.00     0.001 A 
HETATM   25  C   UNL     1      28.874  44.778  54.047  1.00  0.00     0.007 A 
BRANCH  22  26
HETATM   26  C   UNL     1      31.492  43.508  57.230  1.00  0.00     0.417 C 
HETATM   27  F   UNL     1      32.800  43.495  56.848  1.00  0.00    -0.166 F 
HETATM   28  F   UNL     1      31.445  44.354  58.304  1.00  0.00    -0.166 F 
HETATM   29  F   UNL     1      31.224  42.267  57.715  1.00  0.00    -0.166 F 
ENDBRANCH  22  26
ENDBRANCH  19  20
ENDBRANCH  18  19
ENDBRANCH   2  18
TORSDOF 7
ENDMDL
MODEL 7
REMARK VINA RESULT:      -8.3      4.969      6.064
REMARK  7 active torsions:
REMARK  status: ('A' for Active; 'I' for Inactive)
REMARK    1  A    between atoms: C_8  and  C_9 
REMARK    2  A    between atoms: C_9  and  N_10 
REMARK    3  A    between atoms: C_9  and  C_14 
REMARK       I    between atoms: C_14  and  N_15 
REMARK    4  A    between atoms: N_15  and  C_16 
REMARK    5  A    between atoms: C_16  and  C_17 
REMARK    6  A    between atoms: C_17  and  C_18 
REMARK    7  A    between atoms: C_20  and  C_21 
ROOT
HETATM    1  C   UNL     1      26.515  41.213  51.318  1.00  0.00     0.253 C 
HETATM    2  N   UNL     1      27.308  40.625  52.273  1.00  0.00    -0.359 N 
HETATM    3  O   UNL     1      26.234  42.413  51.304  1.00  0.00    -0.271 OA
HETATM    4  H   UNL     1      27.304  39.614  52.383  1.00  0.00     0.162 HD
ENDROOT
BRANCH   1   5
HETATM    5  C   UNL     1      26.023  40.315  50.160  1.00  0.00     0.311 C 
BRANCH   5   6
HETATM    6  C   UNL     1      26.575  40.729  48.840  1.00  0.00     0.031 A 
HETATM    7  C   UNL     1      25.936  41.334  47.764  1.00  0.00     0.035 A 
HETATM    8  C   UNL     1      24.539  41.777  47.528  1.00  0.00     0.070 C 
HETATM    9  N   UNL     1      26.890  41.469  46.788  1.00  0.00    -0.282 N 
HETATM   10  H   UNL     1      26.784  41.827  45.840  1.00  0.00     0.189 HD
HETATM   11  N   UNL     1      28.095  41.036  47.170  1.00  0.00    -0.179 NA
HETATM   12  C   UNL     1      27.923  40.575  48.407  1.00  0.00     0.061 A 
HETATM   13  C   UNL     1      29.081  39.993  49.137  1.00  0.00     0.073 C 
ENDBRANCH   5   6
BRANCH   5  14
HETATM   14  N   UNL     1      26.377  38.889  50.456  1.00  0.00    -0.062 N 
HETATM   15  H   UNL     1      26.265  38.335  49.599  1.00  0.00     0.275 HD
HETATM   16  H   UNL     1      27.374  38.826  50.696  1.00  0.00     0.275 HD
HETATM   17  H   UNL     1      25.798  38.489  51.199  1.00  0.00     0.275 HD
ENDBRANCH   5  14
ENDBRANCH   1   5
BRANCH   2  18
HETATM   18  C   UNL     1      27.840  41.376  53.404  1.00  0.00     0.127 C 
BRANCH  18  19
HETATM   19  C   UNL     1      29.129  42.138  53.071  1.00  0.00     0.058 C 
BRANCH  19  20
HETATM   20  C   UNL     1      29.471  43.207  54.084  1.00  0.00    -0.056 A 
HETATM   21  C   UNL     1      28.673  44.353  54.199  1.00  0.00     0.023 A 
HETATM   22  C   UNL     1      28.972  45.357  55.138  1.00  0.00     0.048 A 
HETATM   23  C   UNL     1      30.085  45.194  55.972  1.00  0.00     0.016 A 
HETATM   24  C   UNL     1      30.897  44.066  55.852  1.00  0.00     0.001 A 
HETATM   25  C   UNL     1      30.594  43.080  54.912  1.00  0.00     0.007 A 
BRANCH  22  26
HETATM   26  C   UNL     1      28.080  46.566  55.268  1.00  0.00     0.417 C 
HETATM   27  F   UNL     1      26.832  46.360  54.761  1.00  0.00    -0.166 F 
HETATM   28  F   UNL     1      27.879  46.910  56.576  1.00  0.00    -0.166 F 
HETATM   29  F   UNL     1      28.563  47.678  54.655  1.00  0.00    -0.166 F 
ENDBRANCH  22  26
ENDBRANCH  19  20
ENDBRANCH  18  19
ENDBRANCH   2  18
TORSDOF 7
ENDMDL
MODEL 8
REMARK VINA RESULT:      -8.3      3.543      4.928
REMARK  7 active torsions:
REMARK  status: ('A' for Active; 'I' for Inactive)
REMARK    1  A    between atoms: C_8  and  C_9 
REMARK    2  A    between atoms: C_9  and  N_10 
REMARK    3  A    between atoms: C_9  and  C_14 
REMARK       I    between atoms: C_14  and  N_15 
REMARK    4  A    between atoms: N_15  and  C_16 
REMARK    5  A    between atoms: C_16  and  C_17 
REMARK    6  A    between atoms: C_17  and  C_18 
REMARK    7  A    between atoms: C_20  and  C_21 
ROOT
HETATM    1  C   UNL     1      26.867  43.057  51.267  1.00  0.00     0.253 C 
HETATM    2  N   UNL     1      26.678  44.229  51.959  1.00  0.00    -0.359 N 
HETATM    3  O   UNL     1      26.989  41.955  51.806  1.00  0.00    -0.271 OA
HETATM    4  H   UNL     1      26.833  45.121  51.496  1.00  0.00     0.162 HD
ENDROOT
BRANCH   1   5
HETATM    5  C   UNL     1      26.841  43.137  49.723  1.00  0.00     0.311 C 
BRANCH   5   6
HETATM    6  C   UNL     1      26.124  41.990  49.103  1.00  0.00     0.031 A 
HETATM    7  C   UNL     1      24.763  41.711  49.067  1.00  0.00     0.035 A 
HETATM    8  C   UNL     1      23.567  42.410  49.600  1.00  0.00     0.070 C 
HETATM    9  N   UNL     1      24.641  40.518  48.401  1.00  0.00    -0.282 N 
HETATM   10  H   UNL     1      23.799  39.973  48.221  1.00  0.00     0.189 HD
HETATM   11  N   UNL     1      25.811  40.034  47.975  1.00  0.00    -0.179 NA
HETATM   12  C   UNL     1      26.723  40.906  48.398  1.00  0.00     0.061 A 
HETATM   13  C   UNL     1      28.161  40.659  48.104  1.00  0.00     0.073 C 
ENDBRANCH   5   6
BRANCH   5  14
HETATM   14  N   UNL     1      26.221  44.436  49.307  1.00  0.00    -0.062 N 
HETATM   15  H   UNL     1      25.230  44.430  49.574  1.00  0.00     0.275 HD
HETATM   16  H   UNL     1      26.645  45.205  49.841  1.00  0.00     0.275 HD
HETATM   17  H   UNL     1      26.303  44.603  48.301  1.00  0.00     0.275 HD
ENDBRANCH   5  14
ENDBRANCH   1   5
BRANCH   2  18
HETATM   18  C   UNL     1      26.671  44.272  53.416  1.00  0.00     0.127 C 
BRANCH  18  19
HETATM   19  C   UNL     1      27.608  45.342  53.993  1.00  0.00     0.058 C 
BRANCH  19  20
HETATM   20  C   UNL     1      28.794  44.763  54.731  1.00  0.00    -0.056 A 
HETATM   21  C   UNL     1      29.181  45.290  55.971  1.00  0.00     0.023 A 
HETATM   22  C   UNL     1      30.278  44.763  56.675  1.00  0.00     0.048 A 
HETATM   23  C   UNL     1      30.984  43.688  56.123  1.00  0.00     0.016 A 
HETATM   24  C   UNL     1      30.619  43.168  54.880  1.00  0.00     0.001 A 
HETATM   25  C   UNL     1      29.533  43.704  54.187  1.00  0.00     0.007 A 
BRANCH  22  26
HETATM   26  C   UNL     1      30.656  45.324  58.023  1.00  0.00     0.417 C 
HETATM   27  F   UNL     1      31.785  44.758  58.535  1.00  0.00    -0.166 F 
HETATM   28  F   UNL     1      30.929  46.662  57.958  1.00  0.00    -0.166 F 
HETATM   29  F   UNL     1      29.693  45.181  58.972  1.00  0.00    -0.166 F 
ENDBRANCH  22  26
ENDBRANCH  19  20
ENDBRANCH  18  19
ENDBRANCH   2  18
TORSDOF 7
ENDMDL
MODEL 9
REMARK VINA RESULT:      -8.1      3.543      4.770
REMARK  7 active torsions:
REMARK  status: ('A' for Active; 'I' for Inactive)
REMARK    1  A    between atoms: C_8  and  C_9 
REMARK    2  A    between atoms: C_9  and  N_10 
REMARK    3  A    between atoms: C_9  and  C_14 
REMARK       I    between atoms: C_14  and  N_15 
REMARK    4  A    between atoms: N_15  and  C_16 
REMARK    5  A    between atoms: C_16  and  C_17 
REMARK    6  A    between atoms: C_17  and  C_18 
REMARK    7  A    between atoms: C_20  and  C_21 
ROOT
HETATM    1  C   UNL     1      27.115  41.704  50.766  1.00  0.00     0.253 C 
HETATM    2  N   UNL     1      26.937  41.970  52.102  1.00  0.00    -0.359 N 
HETATM    3  O   UNL     1      28.082  41.090  50.312  1.00  0.00    -0.271 OA
HETATM    4  H   UNL     1      26.271  42.681  52.393  1.00  0.00     0.162 HD
ENDROOT
BRANCH   1   5
HETATM    5  C   UNL     1      25.984  42.138  49.805  1.00  0.00     0.311 C 
BRANCH   5   6
HETATM    6  C   UNL     1      25.360  43.429  50.202  1.00  0.00     0.031 A 
HETATM    7  C   UNL     1      24.022  43.737  50.418  1.00  0.00     0.035 A 
HETATM    8  C   UNL     1      22.770  42.941  50.345  1.00  0.00     0.070 C 
HETATM    9  N   UNL     1      23.988  45.072  50.731  1.00  0.00    -0.282 N 
HETATM   10  H   UNL     1      23.178  45.663  50.908  1.00  0.00     0.189 HD
HETATM   11  N   UNL     1      25.201  45.631  50.770  1.00  0.00    -0.179 NA
HETATM   12  C   UNL     1      26.045  44.655  50.443  1.00  0.00     0.061 A 
HETATM   13  C   UNL     1      27.503  44.943  50.373  1.00  0.00     0.073 C 
ENDBRANCH   5   6
BRANCH   5  14
HETATM   14  N   UNL     1      26.526  42.219  48.410  1.00  0.00    -0.062 N 
HETATM   15  H   UNL     1      26.197  43.090  47.977  1.00  0.00     0.275 HD
HETATM   16  H   UNL     1      27.550  42.299  48.444  1.00  0.00     0.275 HD
HETATM   17  H   UNL     1      26.241  41.423  47.833  1.00  0.00     0.275 HD
ENDBRANCH   5  14
ENDBRANCH   1   5
BRANCH   2  18
HETATM   18  C   UNL     1      27.931  41.596  53.102  1.00  0.00     0.127 C 
BRANCH  18  19
HETATM   19  C   UNL     1      29.254  42.358  52.952  1.00  0.00     0.058 C 
BRANCH  19  20
HETATM   20  C   UNL     1      29.483  43.382  54.041  1.00  0.00    -0.056 A 
HETATM   21  C   UNL     1      28.656  44.510  54.137  1.00  0.00     0.023 A 
HETATM   22  C   UNL     1      28.850  45.470  55.146  1.00  0.00     0.048 A 
HETATM   23  C   UNL     1      29.884  45.282  56.070  1.00  0.00     0.016 A 
HETATM   24  C   UNL     1      30.724  44.172  55.973  1.00  0.00     0.001 A 
HETATM   25  C   UNL     1      30.527  43.230  54.963  1.00  0.00     0.007 A 
BRANCH  22  26
HETATM   26  C   UNL     1      27.928  46.659  55.250  1.00  0.00     0.417 C 
HETATM   27  F   UNL     1      27.732  47.067  56.535  1.00  0.00    -0.166 F 
HETATM   28  F   UNL     1      28.435  47.753  54.604  1.00  0.00    -0.166 F 
HETATM   29  F   UNL     1      26.693  46.449  54.724  1.00  0.00    -0.166 F 
ENDBRANCH  22  26
ENDBRANCH  19  20
ENDBRANCH  18  19
ENDBRANCH   2  18
TORSDOF 7
ENDMDL
MODEL 10
REMARK VINA RESULT:      -8.1     12.663     14.091
REMARK  7 active torsions:
REMARK  status: ('A' for Active; 'I' for Inactive)
REMARK    1  A    between atoms: C_8  and  C_9 
REMARK    2  A    between atoms: C_9  and  N_10 
REMARK    3  A    between atoms: C_9  and  C_14 
REMARK       I    between atoms: C_14  and  N_15 
REMARK    4  A    between atoms: N_15  and  C_16 
REMARK    5  A    between atoms: C_16  and  C_17 
REMARK    6  A    between atoms: C_17  and  C_18 
REMARK    7  A    between atoms: C_20  and  C_21 
ROOT
HETATM    1  C   UNL     1      29.749  49.994  38.696  1.00  0.00     0.253 C 
HETATM    2  N   UNL     1      30.869  49.299  39.084  1.00  0.00    -0.359 N 
HETATM    3  O   UNL     1      28.627  49.490  38.606  1.00  0.00    -0.271 OA
HETATM    4  H   UNL     1      31.792  49.685  38.902  1.00  0.00     0.162 HD
ENDROOT
BRANCH   1   5
HETATM    5  C   UNL     1      29.912  51.510  38.442  1.00  0.00     0.311 C 
BRANCH   5   6
HETATM    6  C   UNL     1      30.548  52.217  39.587  1.00  0.00     0.031 A 
HETATM    7  C   UNL     1      31.889  52.500  39.819  1.00  0.00     0.035 A 
HETATM    8  C   UNL     1      33.133  52.226  39.057  1.00  0.00     0.070 C 
HETATM    9  N   UNL     1      31.935  53.137  41.033  1.00  0.00    -0.282 N 
HETATM   10  H   UNL     1      32.750  53.455  41.554  1.00  0.00     0.189 HD
HETATM   11  N   UNL     1      30.727  53.318  41.575  1.00  0.00    -0.179 NA
HETATM   12  C   UNL     1      29.874  52.759  40.719  1.00  0.00     0.061 A 
HETATM   13  C   UNL     1      28.419  52.766  41.028  1.00  0.00     0.073 C 
ENDBRANCH   5   6
BRANCH   5  14
HETATM   14  N   UNL     1      30.705  51.717  37.187  1.00  0.00    -0.062 N 
HETATM   15  H   UNL     1      31.111  50.820  36.899  1.00  0.00     0.275 HD
HETATM   16  H   UNL     1      30.073  51.990  36.424  1.00  0.00     0.275 HD
HETATM   17  H   UNL     1      31.451  52.408  37.306  1.00  0.00     0.275 HD
ENDBRANCH   5  14
ENDBRANCH   1   5
BRANCH   2  18
HETATM   18  C   UNL     1      30.832  47.868  39.362  1.00  0.00     0.127 C 
BRANCH  18  19
HETATM   19  C   UNL     1      31.798  47.445  40.477  1.00  0.00     0.058 C 
BRANCH  19  20
HETATM   20  C   UNL     1      32.248  48.596  41.348  1.00  0.00    -0.056 A 
HETATM   21  C   UNL     1      33.533  49.136  41.200  1.00  0.00     0.023 A 
HETATM   22  C   UNL     1      33.967  50.210  41.997  1.00  0.00     0.048 A 
HETATM   23  C   UNL     1      33.090  50.745  42.949  1.00  0.00     0.016 A 
HETATM   24  C   UNL     1      31.816  50.202  43.117  1.00  0.00     0.001 A 
HETATM   25  C   UNL     1      31.398  49.133  42.325  1.00  0.00     0.007 A 
BRANCH  22  26
HETATM   26  C   UNL     1      35.342  50.797  41.798  1.00  0.00     0.417 C 
HETATM   27  F   UNL     1      36.235  50.388  42.742  1.00  0.00    -0.166 F 
HETATM   28  F   UNL     1      35.889  50.415  40.604  1.00  0.00    -0.166 F 
HETATM   29  F   UNL     1      35.371  52.155  41.809  1.00  0.00    -0.166 F 
ENDBRANCH  22  26
ENDBRANCH  19  20
ENDBRANCH  18  19
ENDBRANCH   2  18
TORSDOF 7
ENDMDL
