MODEL 1
REMARK VINA RESULT:      -9.0      0.000      0.000
REMARK  8 active torsions:
REMARK  status: ('A' for Active; 'I' for Inactive)
REMARK    1  A    between atoms: C_2  and  O_3 
REMARK    2  A    between atoms: O_3  and  C_4 
REMARK    3  A    between atoms: C_5  and  N_6 
REMARK       I    between atoms: N_6  and  C_7 
REMARK    4  A    between atoms: C_7  and  C_8 
REMARK    5  A    between atoms: C_8  and  C_9 
REMARK    6  A    between atoms: C_9  and  N_10 
REMARK    7  A    between atoms: N_10  and  S_11 
REMARK    8  A    between atoms: S_11  and  C_12 
ROOT
HETATM    1  N   UNL     1      25.427  42.626  51.825  1.00  0.00    -0.315 N 
HETATM    2  H   UNL     1      25.119  41.807  52.347  1.00  0.00     0.172 HD
ENDROOT
BRANCH   1   3
HETATM    3  C   UNL     1      24.583  43.134  50.732  1.00  0.00     0.141 C 
BRANCH   3   4
HETATM    4  C   UNL     1      24.159  44.571  51.009  1.00  0.00     0.123 C 
BRANCH   4   5
HETATM    5  C   UNL     1      24.740  45.496  49.954  1.00  0.00     0.223 C 
HETATM    6  N   UNL     1      24.874  46.796  50.397  1.00  0.00    -0.325 N 
HETATM    7  H   UNL     1      24.474  47.053  51.294  1.00  0.00     0.169 HD
HETATM    8  O   UNL     1      25.071  45.071  48.852  1.00  0.00    -0.273 OA
BRANCH   6   9
HETATM    9  C   UNL     1      25.433  47.893  49.699  1.00  0.00     0.068 A 
HETATM   10  C   UNL     1      24.534  48.801  49.098  1.00  0.00     0.095 A 
HETATM   11  C   UNL     1      25.027  49.911  48.406  1.00  0.00     0.039 A 
HETATM   12  C   UNL     1      26.404  50.120  48.303  1.00  0.00     0.003 A 
HETATM   13  C   UNL     1      27.291  49.224  48.893  1.00  0.00     0.002 A 
HETATM   14  C   UNL     1      26.808  48.115  49.588  1.00  0.00     0.032 A 
BRANCH  10  15
HETATM   15  O   UNL     1      23.197  48.503  49.253  1.00  0.00    -0.349 OA
BRANCH  15  16
HETATM   16  C   UNL     1      22.429  48.358  48.058  1.00  0.00     0.171 C 
HETATM   17  C   UNL     1      21.884  46.942  48.017  1.00  0.00     0.034 C 
ENDBRANCH  15  16
ENDBRANCH  10  15
ENDBRANCH   6   9
ENDBRANCH   4   5
ENDBRANCH   3   4
ENDBRANCH   1   3
BRANCH   1  18
HETATM   18  S   UNL     1      27.095  42.587  51.568  1.00  0.00     0.258 S 
HETATM   19  O   UNL     1      27.487  41.209  51.775  1.00  0.00    -0.201 OA
HETATM   20  O   UNL     1      27.384  43.277  50.332  1.00  0.00    -0.201 OA
BRANCH  18  21
HETATM   21  C   UNL     1      27.731  43.548  52.920  1.00  0.00     0.080 A 
HETATM   22  C   UNL     1      28.840  43.076  53.633  1.00  0.00     0.034 A 
HETATM   23  C   UNL     1      29.339  43.815  54.710  1.00  0.00    -0.029 A 
HETATM   24  C   UNL     1      28.690  44.993  55.095  1.00  0.00     0.041 A 
HETATM   25  C   UNL     1      30.490  43.307  55.534  1.00  0.00     0.050 C 
HETATM   26  N   UNL     1      29.163  45.713  56.195  1.00  0.00    -0.327 N 
HETATM   27  C   UNL     1      27.555  45.439  54.413  1.00  0.00     0.031 A 
HETATM   28  C   UNL     1      30.349  45.453  56.831  1.00  0.00     0.222 C 
HETATM   29  H   UNL     1      28.622  46.479  56.574  1.00  0.00     0.169 HD
HETATM   30  O   UNL     1      30.683  46.089  57.828  1.00  0.00    -0.273 OA
HETATM   31  C   UNL     1      31.264  44.453  56.164  1.00  0.00     0.108 C 
HETATM   32  C   UNL     1      27.077  44.719  53.315  1.00  0.00     0.027 A 
ENDBRANCH  18  21
ENDBRANCH   1  18
TORSDOF 8
ENDMDL
MODEL 2
REMARK VINA RESULT:      -9.0      1.884      2.383
REMARK  8 active torsions:
REMARK  status: ('A' for Active; 'I' for Inactive)
REMARK    1  A    between atoms: C_2  and  O_3 
REMARK    2  A    between atoms: O_3  and  C_4 
REMARK    3  A    between atoms: C_5  and  N_6 
REMARK       I    between atoms: N_6  and  C_7 
REMARK    4  A    between atoms: C_7  and  C_8 
REMARK    5  A    between atoms: C_8  and  C_9 
REMARK    6  A    between atoms: C_9  and  N_10 
REMARK    7  A    between atoms: N_10  and  S_11 
REMARK    8  A    between atoms: S_11  and  C_12 
ROOT
HETATM    1  N   UNL     1      26.027  44.586  52.100  1.00  0.00    -0.315 N 
HETATM    2  H   UNL     1      26.526  44.954  51.292  1.00  0.00     0.172 HD
ENDROOT
BRANCH   1   3
HETATM    3  C   UNL     1      24.709  43.961  51.901  1.00  0.00     0.141 C 
BRANCH   3   4
HETATM    4  C   UNL     1      23.955  44.655  50.774  1.00  0.00     0.123 C 
BRANCH   4   5
HETATM    5  C   UNL     1      24.910  45.503  49.954  1.00  0.00     0.223 C 
HETATM    6  N   UNL     1      24.703  46.857  50.120  1.00  0.00    -0.325 N 
HETATM    7  H   UNL     1      23.889  47.168  50.642  1.00  0.00     0.169 HD
HETATM    8  O   UNL     1      25.780  44.987  49.260  1.00  0.00    -0.273 OA
BRANCH   6   9
HETATM    9  C   UNL     1      25.448  47.921  49.559  1.00  0.00     0.068 A 
HETATM   10  C   UNL     1      24.722  48.955  48.929  1.00  0.00     0.095 A 
HETATM   11  C   UNL     1      25.403  50.039  48.366  1.00  0.00     0.039 A 
HETATM   12  C   UNL     1      26.796  50.099  48.422  1.00  0.00     0.003 A 
HETATM   13  C   UNL     1      27.514  49.079  49.042  1.00  0.00     0.002 A 
HETATM   14  C   UNL     1      26.842  47.995  49.608  1.00  0.00     0.032 A 
BRANCH  10  15
HETATM   15  O   UNL     1      23.352  48.799  48.922  1.00  0.00    -0.349 OA
BRANCH  15  16
HETATM   16  C   UNL     1      22.574  49.943  49.273  1.00  0.00     0.171 C 
HETATM   17  C   UNL     1      21.910  50.467  48.012  1.00  0.00     0.034 C 
ENDBRANCH  15  16
ENDBRANCH  10  15
ENDBRANCH   6   9
ENDBRANCH   4   5
ENDBRANCH   3   4
ENDBRANCH   1   3
BRANCH   1  18
HETATM   18  S   UNL     1      26.215  45.597  53.439  1.00  0.00     0.258 S 
HETATM   19  O   UNL     1      26.564  46.894  52.898  1.00  0.00    -0.201 OA
HETATM   20  O   UNL     1      25.074  45.423  54.308  1.00  0.00    -0.201 OA
BRANCH  18  21
HETATM   21  C   UNL     1      27.652  44.932  54.244  1.00  0.00     0.080 A 
HETATM   22  C   UNL     1      28.209  45.623  55.327  1.00  0.00     0.034 A 
HETATM   23  C   UNL     1      29.351  45.118  55.959  1.00  0.00    -0.029 A 
HETATM   24  C   UNL     1      29.952  43.955  55.466  1.00  0.00     0.041 A 
HETATM   25  C   UNL     1      30.009  45.866  57.086  1.00  0.00     0.050 C 
HETATM   26  N   UNL     1      31.114  43.470  56.070  1.00  0.00    -0.327 N 
HETATM   27  C   UNL     1      29.422  43.293  54.356  1.00  0.00     0.031 A 
HETATM   28  C   UNL     1      31.624  43.949  57.250  1.00  0.00     0.222 C 
HETATM   29  H   UNL     1      31.641  42.723  55.638  1.00  0.00     0.169 HD
HETATM   30  O   UNL     1      32.681  43.515  57.703  1.00  0.00    -0.273 OA
HETATM   31  C   UNL     1      30.753  44.920  58.013  1.00  0.00     0.108 C 
HETATM   32  C   UNL     1      28.262  43.778  53.746  1.00  0.00     0.027 A 
ENDBRANCH  18  21
ENDBRANCH   1  18
TORSDOF 8
ENDMDL
MODEL 3
REMARK VINA RESULT:      -8.9      2.025      8.266
REMARK  8 active torsions:
REMARK  status: ('A' for Active; 'I' for Inactive)
REMARK    1  A    between atoms: C_2  and  O_3 
REMARK    2  A    between atoms: O_3  and  C_4 
REMARK    3  A    between atoms: C_5  and  N_6 
REMARK       I    between atoms: N_6  and  C_7 
REMARK    4  A    between atoms: C_7  and  C_8 
REMARK    5  A    between atoms: C_8  and  C_9 
REMARK    6  A    between atoms: C_9  and  N_10 
REMARK    7  A    between atoms: N_10  and  S_11 
REMARK    8  A    between atoms: S_11  and  C_12 
ROOT
HETATM    1  N   UNL     1      26.306  43.206  50.984  1.00  0.00    -0.315 N 
HETATM    2  H   UNL     1      26.160  42.844  50.043  1.00  0.00     0.172 HD
ENDROOT
BRANCH   1   3
HETATM    3  C   UNL     1      27.136  42.435  51.924  1.00  0.00     0.141 C 
BRANCH   3   4
HETATM    4  C   UNL     1      28.412  43.198  52.258  1.00  0.00     0.123 C 
BRANCH   4   5
HETATM    5  C   UNL     1      28.596  43.269  53.763  1.00  0.00     0.223 C 
HETATM    6  N   UNL     1      29.806  43.821  54.130  1.00  0.00    -0.325 N 
HETATM    7  H   UNL     1      30.499  44.005  53.411  1.00  0.00     0.169 HD
HETATM    8  O   UNL     1      27.713  42.892  54.527  1.00  0.00    -0.273 OA
BRANCH   6   9
HETATM    9  C   UNL     1      30.271  44.091  55.439  1.00  0.00     0.068 A 
HETATM   10  C   UNL     1      29.932  45.343  55.998  1.00  0.00     0.095 A 
HETATM   11  C   UNL     1      30.352  45.662  57.293  1.00  0.00     0.039 A 
HETATM   12  C   UNL     1      31.107  44.749  58.031  1.00  0.00     0.003 A 
HETATM   13  C   UNL     1      31.443  43.515  57.480  1.00  0.00     0.002 A 
HETATM   14  C   UNL     1      31.026  43.187  56.190  1.00  0.00     0.032 A 
BRANCH  10  15
HETATM   15  O   UNL     1      29.189  46.174  55.187  1.00  0.00    -0.349 OA
BRANCH  15  16
HETATM   16  C   UNL     1      27.900  46.556  55.667  1.00  0.00     0.171 C 
HETATM   17  C   UNL     1      27.377  47.668  54.775  1.00  0.00     0.034 C 
ENDBRANCH  15  16
ENDBRANCH  10  15
ENDBRANCH   6   9
ENDBRANCH   4   5
ENDBRANCH   3   4
ENDBRANCH   1   3
BRANCH   1  18
HETATM   18  S   UNL     1      24.893  43.908  51.587  1.00  0.00     0.258 S 
HETATM   19  O   UNL     1      23.806  43.129  51.032  1.00  0.00    -0.201 OA
HETATM   20  O   UNL     1      25.043  44.087  53.013  1.00  0.00    -0.201 OA
BRANCH  18  21
HETATM   21  C   UNL     1      24.878  45.505  50.810  1.00  0.00     0.080 A 
HETATM   22  C   UNL     1      23.830  45.832  49.940  1.00  0.00     0.034 A 
HETATM   23  C   UNL     1      23.815  47.080  49.309  1.00  0.00    -0.029 A 
HETATM   24  C   UNL     1      24.877  47.967  49.515  1.00  0.00     0.041 A 
HETATM   25  C   UNL     1      22.738  47.439  48.323  1.00  0.00     0.050 C 
HETATM   26  N   UNL     1      24.885  49.199  48.856  1.00  0.00    -0.327 N 
HETATM   27  C   UNL     1      25.945  47.621  50.347  1.00  0.00     0.031 A 
HETATM   28  C   UNL     1      23.822  49.699  48.149  1.00  0.00     0.222 C 
HETATM   29  H   UNL     1      25.710  49.784  48.878  1.00  0.00     0.169 HD
HETATM   30  O   UNL     1      23.910  50.766  47.547  1.00  0.00    -0.273 OA
HETATM   31  C   UNL     1      22.519  48.942  48.270  1.00  0.00     0.108 C 
HETATM   32  C   UNL     1      25.943  46.389  51.004  1.00  0.00     0.027 A 
ENDBRANCH  18  21
ENDBRANCH   1  18
TORSDOF 8
ENDMDL
MODEL 4
REMARK VINA RESULT:      -8.7      1.372      2.587
REMARK  8 active torsions:
REMARK  status: ('A' for Active; 'I' for Inactive)
REMARK    1  A    between atoms: C_2  and  O_3 
REMARK    2  A    between atoms: O_3  and  C_4 
REMARK    3  A    between atoms: C_5  and  N_6 
REMARK       I    between atoms: N_6  and  C_7 
REMARK    4  A    between atoms: C_7  and  C_8 
REMARK    5  A    between atoms: C_8  and  C_9 
REMARK    6  A    between atoms: C_9  and  N_10 
REMARK    7  A    between atoms: N_10  and  S_11 
REMARK    8  A    between atoms: S_11  and  C_12 
ROOT
HETATM    1  N   UNL     1      25.199  44.194  51.256  1.00  0.00    -0.315 N 
HETATM    2  H   UNL     1      24.595  43.379  51.356  1.00  0.00     0.172 HD
ENDROOT
BRANCH   1   3
HETATM    3  C   UNL     1      24.744  45.321  50.426  1.00  0.00     0.141 C 
BRANCH   3   4
HETATM    4  C   UNL     1      23.583  44.894  49.537  1.00  0.00     0.123 C 
BRANCH   4   5
HETATM    5  C   UNL     1      23.009  46.101  48.817  1.00  0.00     0.223 C 
HETATM    6  N   UNL     1      23.074  47.255  49.571  1.00  0.00    -0.325 N 
HETATM    7  H   UNL     1      23.359  47.191  50.543  1.00  0.00     0.169 HD
HETATM    8  O   UNL     1      22.577  46.010  47.672  1.00  0.00    -0.273 OA
BRANCH   6   9
HETATM    9  C   UNL     1      22.688  48.561  49.185  1.00  0.00     0.068 A 
HETATM   10  C   UNL     1      23.721  49.501  48.971  1.00  0.00     0.095 A 
HETATM   11  C   UNL     1      23.402  50.804  48.576  1.00  0.00     0.039 A 
HETATM   12  C   UNL     1      22.069  51.178  48.398  1.00  0.00     0.003 A 
HETATM   13  C   UNL     1      21.051  50.253  48.610  1.00  0.00     0.002 A 
HETATM   14  C   UNL     1      21.359  48.949  49.002  1.00  0.00     0.032 A 
BRANCH  10  15
HETATM   15  O   UNL     1      25.001  49.034  49.179  1.00  0.00    -0.349 OA
BRANCH  15  16
HETATM   16  C   UNL     1      26.047  49.686  48.459  1.00  0.00     0.171 C 
HETATM   17  C   UNL     1      27.374  49.198  49.013  1.00  0.00     0.034 C 
ENDBRANCH  15  16
ENDBRANCH  10  15
ENDBRANCH   6   9
ENDBRANCH   4   5
ENDBRANCH   3   4
ENDBRANCH   1   3
BRANCH   1  18
HETATM   18  S   UNL     1      26.818  43.734  51.126  1.00  0.00     0.258 S 
HETATM   19  O   UNL     1      26.815  42.287  51.181  1.00  0.00    -0.201 OA
HETATM   20  O   UNL     1      27.409  44.446  50.016  1.00  0.00    -0.201 OA
BRANCH  18  21
HETATM   21  C   UNL     1      27.530  44.340  52.636  1.00  0.00     0.080 A 
HETATM   22  C   UNL     1      28.586  43.635  53.226  1.00  0.00     0.034 A 
HETATM   23  C   UNL     1      29.143  44.093  54.424  1.00  0.00    -0.029 A 
HETATM   24  C   UNL     1      28.602  45.223  55.047  1.00  0.00     0.041 A 
HETATM   25  C   UNL     1      30.237  43.326  55.115  1.00  0.00     0.050 C 
HETATM   26  N   UNL     1      29.131  45.660  56.263  1.00  0.00    -0.327 N 
HETATM   27  C   UNL     1      27.518  45.898  54.481  1.00  0.00     0.031 A 
HETATM   28  C   UNL     1      30.284  45.170  56.820  1.00  0.00     0.222 C 
HETATM   29  H   UNL     1      28.659  46.380  56.796  1.00  0.00     0.169 HD
HETATM   30  O   UNL     1      30.668  45.559  57.920  1.00  0.00    -0.273 OA
HETATM   31  C   UNL     1      31.109  44.246  55.954  1.00  0.00     0.108 C 
HETATM   32  C   UNL     1      26.983  45.461  53.267  1.00  0.00     0.027 A 
ENDBRANCH  18  21
ENDBRANCH   1  18
TORSDOF 8
ENDMDL
MODEL 5
REMARK VINA RESULT:      -8.7      1.855      2.643
REMARK  8 active torsions:
REMARK  status: ('A' for Active; 'I' for Inactive)
REMARK    1  A    between atoms: C_2  and  O_3 
REMARK    2  A    between atoms: O_3  and  C_4 
REMARK    3  A    between atoms: C_5  and  N_6 
REMARK       I    between atoms: N_6  and  C_7 
REMARK    4  A    between atoms: C_7  and  C_8 
REMARK    5  A    between atoms: C_8  and  C_9 
REMARK    6  A    between atoms: C_9  and  N_10 
REMARK    7  A    between atoms: N_10  and  S_11 
REMARK    8  A    between atoms: S_11  and  C_12 
ROOT
HETATM    1  N   UNL     1      26.132  45.320  52.307  1.00  0.00    -0.315 N 
HETATM    2  H   UNL     1      26.423  45.758  53.179  1.00  0.00     0.172 HD
ENDROOT
BRANCH   1   3
HETATM    3  C   UNL     1      24.697  45.103  52.062  1.00  0.00     0.141 C 
BRANCH   3   4
HETATM    4  C   UNL     1      24.357  45.382  50.603  1.00  0.00     0.123 C 
BRANCH   4   5
HETATM    5  C   UNL     1      24.334  46.879  50.353  1.00  0.00     0.223 C 
HETATM    6  N   UNL     1      23.434  47.245  49.373  1.00  0.00    -0.325 N 
HETATM    7  H   UNL     1      22.979  46.519  48.829  1.00  0.00     0.169 HD
HETATM    8  O   UNL     1      25.038  47.642  51.007  1.00  0.00    -0.273 OA
BRANCH   6   9
HETATM    9  C   UNL     1      23.117  48.554  48.937  1.00  0.00     0.068 A 
HETATM   10  C   UNL     1      21.753  48.921  48.941  1.00  0.00     0.095 A 
HETATM   11  C   UNL     1      21.379  50.205  48.532  1.00  0.00     0.039 A 
HETATM   12  C   UNL     1      22.347  51.121  48.118  1.00  0.00     0.003 A 
HETATM   13  C   UNL     1      23.692  50.759  48.113  1.00  0.00     0.002 A 
HETATM   14  C   UNL     1      24.075  49.481  48.521  1.00  0.00     0.032 A 
BRANCH  10  15
HETATM   15  O   UNL     1      20.876  47.944  49.361  1.00  0.00    -0.349 OA
BRANCH  15  16
HETATM   16  C   UNL     1      19.488  48.188  49.139  1.00  0.00     0.171 C 
HETATM   17  C   UNL     1      18.838  48.465  50.483  1.00  0.00     0.034 C 
ENDBRANCH  15  16
ENDBRANCH  10  15
ENDBRANCH   6   9
ENDBRANCH   4   5
ENDBRANCH   3   4
ENDBRANCH   1   3
BRANCH   1  18
HETATM   18  S   UNL     1      27.194  44.082  51.867  1.00  0.00     0.258 S 
HETATM   19  O   UNL     1      26.399  42.872  51.866  1.00  0.00    -0.201 OA
HETATM   20  O   UNL     1      27.929  44.504  50.698  1.00  0.00    -0.201 OA
BRANCH  18  21
HETATM   21  C   UNL     1      28.311  44.005  53.246  1.00  0.00     0.080 A 
HETATM   22  C   UNL     1      28.252  45.000  54.230  1.00  0.00     0.034 A 
HETATM   23  C   UNL     1      29.137  44.960  55.312  1.00  0.00    -0.029 A 
HETATM   24  C   UNL     1      30.107  43.953  55.370  1.00  0.00     0.041 A 
HETATM   25  C   UNL     1      29.141  46.046  56.353  1.00  0.00     0.050 C 
HETATM   26  N   UNL     1      31.018  43.933  56.429  1.00  0.00    -0.327 N 
HETATM   27  C   UNL     1      30.195  42.989  54.363  1.00  0.00     0.031 A 
HETATM   28  C   UNL     1      30.922  44.731  57.539  1.00  0.00     0.222 C 
HETATM   29  H   UNL     1      31.811  43.306  56.407  1.00  0.00     0.169 HD
HETATM   30  O   UNL     1      31.786  44.703  58.413  1.00  0.00    -0.273 OA
HETATM   31  C   UNL     1      29.645  45.525  57.689  1.00  0.00     0.108 C 
HETATM   32  C   UNL     1      29.288  43.008  53.301  1.00  0.00     0.027 A 
ENDBRANCH  18  21
ENDBRANCH   1  18
TORSDOF 8
ENDMDL
MODEL 6
REMARK VINA RESULT:      -8.6      2.083      7.499
REMARK  8 active torsions:
REMARK  status: ('A' for Active; 'I' for Inactive)
REMARK    1  A    between atoms: C_2  and  O_3 
REMARK    2  A    between atoms: O_3  and  C_4 
REMARK    3  A    between atoms: C_5  and  N_6 
REMARK       I    between atoms: N_6  and  C_7 
REMARK    4  A    between atoms: C_7  and  C_8 
REMARK    5  A    between atoms: C_8  and  C_9 
REMARK    6  A    between atoms: C_9  and  N_10 
REMARK    7  A    between atoms: N_10  and  S_11 
REMARK    8  A    between atoms: S_11  and  C_12 
ROOT
HETATM    1  N   UNL     1      27.274  41.069  52.125  1.00  0.00    -0.315 N 
HETATM    2  H   UNL     1      26.712  41.708  52.687  1.00  0.00     0.172 HD
ENDROOT
BRANCH   1   3
HETATM    3  C   UNL     1      28.724  40.996  52.364  1.00  0.00     0.141 C 
BRANCH   3   4
HETATM    4  C   UNL     1      29.305  42.393  52.549  1.00  0.00     0.123 C 
BRANCH   4   5
HETATM    5  C   UNL     1      29.166  42.826  53.997  1.00  0.00     0.223 C 
HETATM    6  N   UNL     1      30.255  43.542  54.449  1.00  0.00    -0.325 N 
HETATM    7  H   UNL     1      31.079  43.608  53.859  1.00  0.00     0.169 HD
HETATM    8  O   UNL     1      28.154  42.569  54.641  1.00  0.00    -0.273 OA
BRANCH   6   9
HETATM    9  C   UNL     1      30.426  44.145  55.719  1.00  0.00     0.068 A 
HETATM   10  C   UNL     1      29.718  45.342  55.964  1.00  0.00     0.095 A 
HETATM   11  C   UNL     1      29.838  45.977  57.204  1.00  0.00     0.039 A 
HETATM   12  C   UNL     1      30.655  45.433  58.196  1.00  0.00     0.003 A 
HETATM   13  C   UNL     1      31.355  44.254  57.955  1.00  0.00     0.002 A 
HETATM   14  C   UNL     1      31.239  43.612  56.721  1.00  0.00     0.032 A 
BRANCH  10  15
HETATM   15  O   UNL     1      28.944  45.799  54.919  1.00  0.00    -0.349 OA
BRANCH  15  16
HETATM   16  C   UNL     1      28.203  46.998  55.145  1.00  0.00     0.171 C 
HETATM   17  C   UNL     1      27.023  47.009  54.190  1.00  0.00     0.034 C 
ENDBRANCH  15  16
ENDBRANCH  10  15
ENDBRANCH   6   9
ENDBRANCH   4   5
ENDBRANCH   3   4
ENDBRANCH   1   3
BRANCH   1  18
HETATM   18  S   UNL     1      26.746  41.051  50.521  1.00  0.00     0.258 S 
HETATM   19  O   UNL     1      27.947  41.130  49.718  1.00  0.00    -0.201 OA
HETATM   20  O   UNL     1      25.801  39.970  50.363  1.00  0.00    -0.201 OA
BRANCH  18  21
HETATM   21  C   UNL     1      25.878  42.593  50.368  1.00  0.00     0.080 A 
HETATM   22  C   UNL     1      26.595  43.793  50.464  1.00  0.00     0.034 A 
HETATM   23  C   UNL     1      25.921  45.014  50.362  1.00  0.00    -0.029 A 
HETATM   24  C   UNL     1      24.529  45.021  50.217  1.00  0.00     0.041 A 
HETATM   25  C   UNL     1      26.650  46.320  50.522  1.00  0.00     0.050 C 
HETATM   26  N   UNL     1      23.848  46.240  50.154  1.00  0.00    -0.327 N 
HETATM   27  C   UNL     1      23.811  43.824  50.168  1.00  0.00     0.031 A 
HETATM   28  C   UNL     1      24.464  47.458  50.035  1.00  0.00     0.222 C 
HETATM   29  H   UNL     1      22.838  46.263  50.199  1.00  0.00     0.169 HD
HETATM   30  O   UNL     1      23.811  48.499  50.039  1.00  0.00    -0.273 OA
HETATM   31  C   UNL     1      25.951  47.437  49.764  1.00  0.00     0.108 C 
HETATM   32  C   UNL     1      24.487  42.604  50.235  1.00  0.00     0.027 A 
ENDBRANCH  18  21
ENDBRANCH   1  18
TORSDOF 8
ENDMDL
MODEL 7
REMARK VINA RESULT:      -8.4      2.126      6.893
REMARK  8 active torsions:
REMARK  status: ('A' for Active; 'I' for Inactive)
REMARK    1  A    between atoms: C_2  and  O_3 
REMARK    2  A    between atoms: O_3  and  C_4 
REMARK    3  A    between atoms: C_5  and  N_6 
REMARK       I    between atoms: N_6  and  C_7 
REMARK    4  A    between atoms: C_7  and  C_8 
REMARK    5  A    between atoms: C_8  and  C_9 
REMARK    6  A    between atoms: C_9  and  N_10 
REMARK    7  A    between atoms: N_10  and  S_11 
REMARK    8  A    between atoms: S_11  and  C_12 
ROOT
HETATM    1  N   UNL     1      28.347  41.380  51.048  1.00  0.00    -0.315 N 
HETATM    2  H   UNL     1      29.274  41.288  50.635  1.00  0.00     0.172 HD
ENDROOT
BRANCH   1   3
HETATM    3  C   UNL     1      28.103  40.815  52.384  1.00  0.00     0.141 C 
BRANCH   3   4
HETATM    4  C   UNL     1      28.888  41.583  53.440  1.00  0.00     0.123 C 
BRANCH   4   5
HETATM    5  C   UNL     1      28.686  43.076  53.254  1.00  0.00     0.223 C 
HETATM    6  N   UNL     1      27.760  43.605  54.130  1.00  0.00    -0.325 N 
HETATM    7  H   UNL     1      27.216  42.974  54.709  1.00  0.00     0.169 HD
HETATM    8  O   UNL     1      29.330  43.703  52.419  1.00  0.00    -0.273 OA
BRANCH   6   9
HETATM    9  C   UNL     1      27.380  44.961  54.270  1.00  0.00     0.068 A 
HETATM   10  C   UNL     1      28.156  45.761  55.138  1.00  0.00     0.095 A 
HETATM   11  C   UNL     1      27.837  47.112  55.307  1.00  0.00     0.039 A 
HETATM   12  C   UNL     1      26.754  47.669  54.625  1.00  0.00     0.003 A 
HETATM   13  C   UNL     1      25.988  46.881  53.771  1.00  0.00     0.002 A 
HETATM   14  C   UNL     1      26.300  45.532  53.593  1.00  0.00     0.032 A 
BRANCH  10  15
HETATM   15  O   UNL     1      29.199  45.116  55.767  1.00  0.00    -0.349 OA
BRANCH  15  16
HETATM   16  C   UNL     1      30.150  45.939  56.441  1.00  0.00     0.171 C 
HETATM   17  C   UNL     1      29.996  45.711  57.934  1.00  0.00     0.034 C 
ENDBRANCH  15  16
ENDBRANCH  10  15
ENDBRANCH   6   9
ENDBRANCH   4   5
ENDBRANCH   3   4
ENDBRANCH   1   3
BRANCH   1  18
HETATM   18  S   UNL     1      27.142  41.174  49.883  1.00  0.00     0.258 S 
HETATM   19  O   UNL     1      27.832  41.161  48.610  1.00  0.00    -0.201 OA
HETATM   20  O   UNL     1      26.292  40.079  50.292  1.00  0.00    -0.201 OA
BRANCH  18  21
HETATM   21  C   UNL     1      26.217  42.686  49.992  1.00  0.00     0.080 A 
HETATM   22  C   UNL     1      26.891  43.909  49.892  1.00  0.00     0.034 A 
HETATM   23  C   UNL     1      26.176  45.107  49.993  1.00  0.00    -0.029 A 
HETATM   24  C   UNL     1      24.801  45.067  50.247  1.00  0.00     0.041 A 
HETATM   25  C   UNL     1      26.878  46.436  49.950  1.00  0.00     0.050 C 
HETATM   26  N   UNL     1      24.091  46.262  50.387  1.00  0.00    -0.327 N 
HETATM   27  C   UNL     1      24.137  43.847  50.393  1.00  0.00     0.031 A 
HETATM   28  C   UNL     1      24.608  47.500  50.109  1.00  0.00     0.222 C 
HETATM   29  H   UNL     1      23.134  46.251  50.715  1.00  0.00     0.169 HD
HETATM   30  O   UNL     1      23.949  48.519  50.304  1.00  0.00    -0.273 OA
HETATM   31  C   UNL     1      25.958  47.528  49.429  1.00  0.00     0.108 C 
HETATM   32  C   UNL     1      24.845  42.650  50.257  1.00  0.00     0.027 A 
ENDBRANCH  18  21
ENDBRANCH   1  18
TORSDOF 8
ENDMDL
MODEL 8
REMARK VINA RESULT:      -8.4      1.967      3.426
REMARK  8 active torsions:
REMARK  status: ('A' for Active; 'I' for Inactive)
REMARK    1  A    between atoms: C_2  and  O_3 
REMARK    2  A    between atoms: O_3  and  C_4 
REMARK    3  A    between atoms: C_5  and  N_6 
REMARK       I    between atoms: N_6  and  C_7 
REMARK    4  A    between atoms: C_7  and  C_8 
REMARK    5  A    between atoms: C_8  and  C_9 
REMARK    6  A    between atoms: C_9  and  N_10 
REMARK    7  A    between atoms: N_10  and  S_11 
REMARK    8  A    between atoms: S_11  and  C_12 
ROOT
HETATM    1  N   UNL     1      25.648  46.882  51.711  1.00  0.00    -0.315 N 
HETATM    2  H   UNL     1      25.517  47.427  52.562  1.00  0.00     0.172 HD
ENDROOT
BRANCH   1   3
HETATM    3  C   UNL     1      24.837  47.203  50.526  1.00  0.00     0.141 C 
BRANCH   3   4
HETATM    4  C   UNL     1      25.581  48.172  49.616  1.00  0.00     0.123 C 
BRANCH   4   5
HETATM    5  C   UNL     1      24.593  49.072  48.896  1.00  0.00     0.223 C 
HETATM    6  N   UNL     1      23.297  48.908  49.340  1.00  0.00    -0.325 N 
HETATM    7  H   UNL     1      23.090  48.148  49.981  1.00  0.00     0.169 HD
HETATM    8  O   UNL     1      24.967  49.869  48.042  1.00  0.00    -0.273 OA
BRANCH   6   9
HETATM    9  C   UNL     1      22.147  49.625  48.933  1.00  0.00     0.068 A 
HETATM   10  C   UNL     1      21.439  49.128  47.817  1.00  0.00     0.095 A 
HETATM   11  C   UNL     1      20.288  49.788  47.375  1.00  0.00     0.039 A 
HETATM   12  C   UNL     1      19.840  50.935  48.031  1.00  0.00     0.003 A 
HETATM   13  C   UNL     1      20.538  51.427  49.131  1.00  0.00     0.002 A 
HETATM   14  C   UNL     1      21.687  50.774  49.580  1.00  0.00     0.032 A 
BRANCH  10  15
HETATM   15  O   UNL     1      21.966  47.994  47.237  1.00  0.00    -0.349 OA
BRANCH  15  16
HETATM   16  C   UNL     1      21.241  46.779  47.427  1.00  0.00     0.171 C 
HETATM   17  C   UNL     1      22.190  45.621  47.180  1.00  0.00     0.034 C 
ENDBRANCH  15  16
ENDBRANCH  10  15
ENDBRANCH   6   9
ENDBRANCH   4   5
ENDBRANCH   3   4
ENDBRANCH   1   3
BRANCH   1  18
HETATM   18  S   UNL     1      25.892  45.250  52.070  1.00  0.00     0.258 S 
HETATM   19  O   UNL     1      24.637  44.783  52.621  1.00  0.00    -0.201 OA
HETATM   20  O   UNL     1      26.496  44.614  50.922  1.00  0.00    -0.201 OA
BRANCH  18  21
HETATM   21  C   UNL     1      27.085  45.304  53.385  1.00  0.00     0.080 A 
HETATM   22  C   UNL     1      27.929  44.205  53.588  1.00  0.00     0.034 A 
HETATM   23  C   UNL     1      28.861  44.228  54.630  1.00  0.00    -0.029 A 
HETATM   24  C   UNL     1      28.901  45.330  55.492  1.00  0.00     0.041 A 
HETATM   25  C   UNL     1      29.740  43.041  54.913  1.00  0.00     0.050 C 
HETATM   26  N   UNL     1      29.804  45.339  56.558  1.00  0.00    -0.327 N 
HETATM   27  C   UNL     1      28.026  46.405  55.317  1.00  0.00     0.031 A 
HETATM   28  C   UNL     1      30.804  44.417  56.725  1.00  0.00     0.222 C 
HETATM   29  H   UNL     1      29.745  46.054  57.271  1.00  0.00     0.169 HD
HETATM   30  O   UNL     1      31.533  44.448  57.714  1.00  0.00    -0.273 OA
HETATM   31  C   UNL     1      31.040  43.465  55.575  1.00  0.00     0.108 C 
HETATM   32  C   UNL     1      27.119  46.398  54.255  1.00  0.00     0.027 A 
ENDBRANCH  18  21
ENDBRANCH   1  18
TORSDOF 8
ENDMDL
MODEL 9
REMARK VINA RESULT:      -8.2      2.354      8.575
REMARK  8 active torsions:
REMARK  status: ('A' for Active; 'I' for Inactive)
REMARK    1  A    between atoms: C_2  and  O_3 
REMARK    2  A    between atoms: O_3  and  C_4 
REMARK    3  A    between atoms: C_5  and  N_6 
REMARK       I    between atoms: N_6  and  C_7 
REMARK    4  A    between atoms: C_7  and  C_8 
REMARK    5  A    between atoms: C_8  and  C_9 
REMARK    6  A    between atoms: C_9  and  N_10 
REMARK    7  A    between atoms: N_10  and  S_11 
REMARK    8  A    between atoms: S_11  and  C_12 
ROOT
HETATM    1  N   UNL     1      25.688  44.702  50.203  1.00  0.00    -0.315 N 
HETATM    2  H   UNL     1      25.223  44.430  49.339  1.00  0.00     0.172 HD
ENDROOT
BRANCH   1   3
HETATM    3  C   UNL     1      25.260  44.085  51.469  1.00  0.00     0.141 C 
BRANCH   3   4
HETATM    4  C   UNL     1      26.187  42.935  51.842  1.00  0.00     0.123 C 
BRANCH   4   5
HETATM    5  C   UNL     1      27.508  43.478  52.357  1.00  0.00     0.223 C 
HETATM    6  N   UNL     1      27.595  43.458  53.733  1.00  0.00    -0.325 N 
HETATM    7  H   UNL     1      26.770  43.222  54.275  1.00  0.00     0.169 HD
HETATM    8  O   UNL     1      28.384  43.851  51.583  1.00  0.00    -0.273 OA
BRANCH   6   9
HETATM    9  C   UNL     1      28.702  43.831  54.534  1.00  0.00     0.068 A 
HETATM   10  C   UNL     1      28.662  45.110  55.133  1.00  0.00     0.095 A 
HETATM   11  C   UNL     1      29.720  45.529  55.945  1.00  0.00     0.039 A 
HETATM   12  C   UNL     1      30.815  44.690  56.161  1.00  0.00     0.003 A 
HETATM   13  C   UNL     1      30.856  43.431  55.569  1.00  0.00     0.002 A 
HETATM   14  C   UNL     1      29.803  43.003  54.760  1.00  0.00     0.032 A 
BRANCH  10  15
HETATM   15  O   UNL     1      27.541  45.862  54.853  1.00  0.00    -0.349 OA
BRANCH  15  16
HETATM   16  C   UNL     1      27.597  47.248  55.188  1.00  0.00     0.171 C 
HETATM   17  C   UNL     1      26.258  47.871  54.841  1.00  0.00     0.034 C 
ENDBRANCH  15  16
ENDBRANCH  10  15
ENDBRANCH   6   9
ENDBRANCH   4   5
ENDBRANCH   3   4
ENDBRANCH   1   3
BRANCH   1  18
HETATM   18  S   UNL     1      26.019  46.358  50.216  1.00  0.00     0.258 S 
HETATM   19  O   UNL     1      26.115  46.723  51.613  1.00  0.00    -0.201 OA
HETATM   20  O   UNL     1      27.100  46.615  49.292  1.00  0.00    -0.201 OA
BRANCH  18  21
HETATM   21  C   UNL     1      24.529  47.069  49.561  1.00  0.00     0.080 A 
HETATM   22  C   UNL     1      24.352  48.457  49.618  1.00  0.00     0.034 A 
HETATM   23  C   UNL     1      23.175  49.027  49.121  1.00  0.00    -0.029 A 
HETATM   24  C   UNL     1      22.166  48.197  48.621  1.00  0.00     0.041 A 
HETATM   25  C   UNL     1      22.927  50.507  49.221  1.00  0.00     0.050 C 
HETATM   26  N   UNL     1      20.974  48.761  48.161  1.00  0.00    -0.327 N 
HETATM   27  C   UNL     1      22.325  46.809  48.609  1.00  0.00     0.031 A 
HETATM   28  C   UNL     1      20.778  50.106  47.984  1.00  0.00     0.222 C 
HETATM   29  H   UNL     1      20.184  48.171  47.937  1.00  0.00     0.169 HD
HETATM   30  O   UNL     1      19.688  50.544  47.626  1.00  0.00    -0.273 OA
HETATM   31  C   UNL     1      22.000  50.986  48.116  1.00  0.00     0.108 C 
HETATM   32  C   UNL     1      23.514  46.241  49.073  1.00  0.00     0.027 A 
ENDBRANCH  18  21
ENDBRANCH   1  18
TORSDOF 8
ENDMDL
MODEL 10
REMARK VINA RESULT:      -8.2      2.168      8.650
REMARK  8 active torsions:
REMARK  status: ('A' for Active; 'I' for Inactive)
REMARK    1  A    between atoms: C_2  and  O_3 
REMARK    2  A    between atoms: O_3  and  C_4 
REMARK    3  A    between atoms: C_5  and  N_6 
REMARK       I    between atoms: N_6  and  C_7 
REMARK    4  A    between atoms: C_7  and  C_8 
REMARK    5  A    between atoms: C_8  and  C_9 
REMARK    6  A    between atoms: C_9  and  N_10 
REMARK    7  A    between atoms: N_10  and  S_11 
REMARK    8  A    between atoms: S_11  and  C_12 
ROOT
HETATM    1  N   UNL     1      26.504  46.154  51.664  1.00  0.00    -0.315 N 
HETATM    2  H   UNL     1      27.514  46.182  51.795  1.00  0.00     0.172 HD
ENDROOT
BRANCH   1   3
HETATM    3  C   UNL     1      25.637  45.970  52.838  1.00  0.00     0.141 C 
BRANCH   3   4
HETATM    4  C   UNL     1      25.867  47.084  53.852  1.00  0.00     0.123 C 
BRANCH   4   5
HETATM    5  C   UNL     1      27.244  46.943  54.475  1.00  0.00     0.223 C 
HETATM    6  N   UNL     1      27.527  45.650  54.862  1.00  0.00    -0.325 N 
HETATM    7  H   UNL     1      26.788  44.954  54.828  1.00  0.00     0.169 HD
HETATM    8  O   UNL     1      27.999  47.906  54.568  1.00  0.00    -0.273 OA
BRANCH   6   9
HETATM    9  C   UNL     1      28.734  45.158  55.416  1.00  0.00     0.068 A 
HETATM   10  C   UNL     1      29.357  44.081  54.748  1.00  0.00     0.095 A 
HETATM   11  C   UNL     1      30.558  43.561  55.240  1.00  0.00     0.039 A 
HETATM   12  C   UNL     1      31.138  44.099  56.390  1.00  0.00     0.003 A 
HETATM   13  C   UNL     1      30.524  45.160  57.050  1.00  0.00     0.002 A 
HETATM   14  C   UNL     1      29.326  45.688  56.564  1.00  0.00     0.032 A 
BRANCH  10  15
HETATM   15  O   UNL     1      28.702  43.619  53.627  1.00  0.00    -0.349 OA
BRANCH  15  16
HETATM   16  C   UNL     1      29.224  42.437  53.019  1.00  0.00     0.171 C 
HETATM   17  C   UNL     1      28.306  41.281  53.373  1.00  0.00     0.034 C 
ENDBRANCH  15  16
ENDBRANCH  10  15
ENDBRANCH   6   9
ENDBRANCH   4   5
ENDBRANCH   3   4
ENDBRANCH   1   3
BRANCH   1  18
HETATM   18  S   UNL     1      26.101  45.312  50.257  1.00  0.00     0.258 S 
HETATM   19  O   UNL     1      27.251  45.436  49.388  1.00  0.00    -0.201 OA
HETATM   20  O   UNL     1      25.573  44.020  50.632  1.00  0.00    -0.201 OA
BRANCH  18  21
HETATM   21  C   UNL     1      24.784  46.287  49.570  1.00  0.00     0.080 A 
HETATM   22  C   UNL     1      24.922  47.680  49.516  1.00  0.00     0.034 A 
HETATM   23  C   UNL     1      23.886  48.460  48.993  1.00  0.00    -0.029 A 
HETATM   24  C   UNL     1      22.701  47.842  48.579  1.00  0.00     0.041 A 
HETATM   25  C   UNL     1      23.977  49.961  48.976  1.00  0.00     0.050 C 
HETATM   26  N   UNL     1      21.649  48.622  48.093  1.00  0.00    -0.327 N 
HETATM   27  C   UNL     1      22.547  46.457  48.678  1.00  0.00     0.031 A 
HETATM   28  C   UNL     1      21.752  49.959  47.810  1.00  0.00     0.222 C 
HETATM   29  H   UNL     1      20.740  48.209  47.931  1.00  0.00     0.169 HD
HETATM   30  O   UNL     1      20.774  50.602  47.435  1.00  0.00    -0.273 OA
HETATM   31  C   UNL     1      23.142  50.550  47.851  1.00  0.00     0.108 C 
HETATM   32  C   UNL     1      23.595  45.674  49.167  1.00  0.00     0.027 A 
ENDBRANCH  18  21
ENDBRANCH   1  18
TORSDOF 8
ENDMDL
