MODEL 1
REMARK VINA RESULT:     -10.6      0.000      0.000
REMARK  4 active torsions:
REMARK  status: ('A' for Active; 'I' for Inactive)
REMARK    1  A    between atoms: C_4  and  N_5 
REMARK       I    between atoms: N_5  and  C_6 
REMARK    2  A    between atoms: C_6  and  C_7 
REMARK    3  A    between atoms: C_7  and  N_8 
REMARK    4  A    between atoms: C_12  and  C_13 
ROOT
HETATM    1  N   UNL     1      29.530  43.662  54.188  1.00  0.00    -0.304 N 
HETATM    2  C   UNL     1      28.668  44.491  53.484  1.00  0.00     0.261 C 
HETATM    3  O   UNL     1      28.393  44.377  52.303  1.00  0.00    -0.267 OA
HETATM    4  C   UNL     1      28.272  45.575  54.464  1.00  0.00     0.068 C 
HETATM    5  C   UNL     1      27.231  46.416  54.299  1.00  0.00     0.093 C 
HETATM    6  C   UNL     1      26.823  47.396  55.386  1.00  0.00     0.025 C 
HETATM    7  N   UNL     1      26.486  48.209  56.288  1.00  0.00    -0.096 N 
HETATM    8  C   UNL     1      29.164  45.410  55.635  1.00  0.00     0.008 A 
HETATM    9  C   UNL     1      29.878  44.220  55.424  1.00  0.00     0.049 A 
HETATM   10  C   UNL     1      29.391  46.153  56.784  1.00  0.00     0.015 A 
HETATM   11  C   UNL     1      30.323  45.682  57.717  1.00  0.00     0.001 A 
HETATM   12  C   UNL     1      31.022  44.487  57.497  1.00  0.00     0.002 A 
HETATM   13  C   UNL     1      30.803  43.742  56.338  1.00  0.00     0.030 A 
ENDROOT
BRANCH   5  14
HETATM   14  C   UNL     1      26.348  46.341  53.183  1.00  0.00     0.149 A 
HETATM   15  N   UNL     1      26.107  47.206  52.219  1.00  0.00    -0.228 NA
HETATM   16  C   UNL     1      25.239  46.585  51.355  1.00  0.00     0.086 A 
HETATM   17  C   UNL     1      24.965  45.291  51.778  1.00  0.00     0.062 A 
HETATM   18  C   UNL     1      24.651  47.057  50.174  1.00  0.00     0.034 A 
HETATM   19  N   UNL     1      25.670  45.163  52.946  1.00  0.00    -0.338 N 
HETATM   20  C   UNL     1      24.141  44.409  51.076  1.00  0.00     0.032 A 
HETATM   21  H   UNL     1      25.696  44.330  53.517  1.00  0.00     0.167 HD
HETATM   22  C   UNL     1      23.570  44.895  49.894  1.00  0.00     0.002 A 
HETATM   23  C   UNL     1      23.814  46.198  49.450  1.00  0.00     0.002 A 
ENDBRANCH   5  14
BRANCH   1  24
HETATM   24  C   UNL     1      29.896  42.337  53.740  1.00  0.00     0.235 C 
BRANCH  24  25
HETATM   25  C   UNL     1      28.772  41.537  53.090  1.00  0.00     0.240 C 
HETATM   26  N   UNL     1      28.972  41.315  51.739  1.00  0.00    -0.326 N 
HETATM   27  H   UNL     1      29.923  41.443  51.390  1.00  0.00     0.169 HD
HETATM   28  O   UNL     1      27.776  41.224  53.742  1.00  0.00    -0.271 OA
BRANCH  26  29
HETATM   29  C   UNL     1      27.991  40.970  50.787  1.00  0.00     0.035 A 
HETATM   30  C   UNL     1      27.926  39.718  50.166  1.00  0.00     0.036 A 
HETATM   31  C   UNL     1      26.874  39.397  49.293  1.00  0.00    -0.060 A 
HETATM   32  C   UNL     1      26.766  38.018  48.711  1.00  0.00     0.048 C 
HETATM   33  C   UNL     1      25.882  40.350  49.040  1.00  0.00     0.007 A 
HETATM   34  C   UNL     1      25.944  41.604  49.645  1.00  0.00     0.003 A 
HETATM   35  C   UNL     1      26.988  41.909  50.522  1.00  0.00     0.029 A 
ENDBRANCH  26  29
ENDBRANCH  24  25
ENDBRANCH   1  24
TORSDOF 4
ENDMDL
MODEL 2
REMARK VINA RESULT:     -10.2      2.442      6.778
REMARK  4 active torsions:
REMARK  status: ('A' for Active; 'I' for Inactive)
REMARK    1  A    between atoms: C_4  and  N_5 
REMARK       I    between atoms: N_5  and  C_6 
REMARK    2  A    between atoms: C_6  and  C_7 
REMARK    3  A    between atoms: C_7  and  N_8 
REMARK    4  A    between atoms: C_12  and  C_13 
ROOT
HETATM    1  N   UNL     1      26.415  44.123  52.244  1.00  0.00    -0.304 N 
HETATM    2  C   UNL     1      25.200  44.112  51.574  1.00  0.00     0.261 C 
HETATM    3  O   UNL     1      24.282  44.888  51.772  1.00  0.00    -0.267 OA
HETATM    4  C   UNL     1      25.256  42.897  50.671  1.00  0.00     0.068 C 
HETATM    5  C   UNL     1      24.420  42.671  49.638  1.00  0.00     0.093 C 
HETATM    6  C   UNL     1      24.618  41.488  48.704  1.00  0.00     0.025 C 
HETATM    7  N   UNL     1      24.782  40.507  47.929  1.00  0.00    -0.096 N 
HETATM    8  C   UNL     1      26.456  42.137  51.088  1.00  0.00     0.008 A 
HETATM    9  C   UNL     1      27.132  42.942  52.018  1.00  0.00     0.049 A 
HETATM   10  C   UNL     1      26.972  40.894  50.752  1.00  0.00     0.015 A 
HETATM   11  C   UNL     1      28.172  40.481  51.344  1.00  0.00     0.001 A 
HETATM   12  C   UNL     1      28.841  41.301  52.263  1.00  0.00     0.002 A 
HETATM   13  C   UNL     1      28.320  42.547  52.611  1.00  0.00     0.030 A 
ENDROOT
BRANCH   5  14
HETATM   14  C   UNL     1      23.404  43.591  49.250  1.00  0.00     0.149 A 
HETATM   15  N   UNL     1      22.094  43.527  49.372  1.00  0.00    -0.228 NA
HETATM   16  C   UNL     1      21.607  44.727  48.915  1.00  0.00     0.086 A 
HETATM   17  C   UNL     1      22.645  45.566  48.536  1.00  0.00     0.062 A 
HETATM   18  C   UNL     1      20.286  45.181  48.810  1.00  0.00     0.034 A 
HETATM   19  N   UNL     1      23.775  44.820  48.745  1.00  0.00    -0.338 N 
HETATM   20  C   UNL     1      22.451  46.867  48.066  1.00  0.00     0.032 A 
HETATM   21  H   UNL     1      24.718  45.139  48.573  1.00  0.00     0.167 HD
HETATM   22  C   UNL     1      21.126  47.308  47.976  1.00  0.00     0.002 A 
HETATM   23  C   UNL     1      20.058  46.480  48.336  1.00  0.00     0.002 A 
ENDBRANCH   5  14
BRANCH   1  24
HETATM   24  C   UNL     1      26.911  45.274  52.964  1.00  0.00     0.235 C 
BRANCH  24  25
HETATM   25  C   UNL     1      27.268  45.023  54.425  1.00  0.00     0.240 C 
HETATM   26  N   UNL     1      28.420  45.676  54.825  1.00  0.00    -0.326 N 
HETATM   27  H   UNL     1      28.740  46.445  54.233  1.00  0.00     0.169 HD
HETATM   28  O   UNL     1      26.601  44.240  55.101  1.00  0.00    -0.271 OA
BRANCH  26  29
HETATM   29  C   UNL     1      29.221  45.366  55.943  1.00  0.00     0.035 A 
HETATM   30  C   UNL     1      30.206  44.373  55.934  1.00  0.00     0.036 A 
HETATM   31  C   UNL     1      31.037  44.167  57.048  1.00  0.00    -0.060 A 
HETATM   32  C   UNL     1      32.151  43.164  56.987  1.00  0.00     0.048 C 
HETATM   33  C   UNL     1      30.867  44.967  58.182  1.00  0.00     0.007 A 
HETATM   34  C   UNL     1      29.880  45.952  58.205  1.00  0.00     0.003 A 
HETATM   35  C   UNL     1      29.068  46.156  57.087  1.00  0.00     0.029 A 
ENDBRANCH  26  29
ENDBRANCH  24  25
ENDBRANCH   1  24
TORSDOF 4
ENDMDL
MODEL 3
REMARK VINA RESULT:     -10.2      2.285      7.090
REMARK  4 active torsions:
REMARK  status: ('A' for Active; 'I' for Inactive)
REMARK    1  A    between atoms: C_4  and  N_5 
REMARK       I    between atoms: N_5  and  C_6 
REMARK    2  A    between atoms: C_6  and  C_7 
REMARK    3  A    between atoms: C_7  and  N_8 
REMARK    4  A    between atoms: C_12  and  C_13 
ROOT
HETATM    1  N   UNL     1      25.427  44.406  52.105  1.00  0.00    -0.304 N 
HETATM    2  C   UNL     1      26.016  43.202  51.748  1.00  0.00     0.261 C 
HETATM    3  O   UNL     1      25.493  42.342  51.060  1.00  0.00    -0.267 OA
HETATM    4  C   UNL     1      27.342  43.176  52.478  1.00  0.00     0.068 C 
HETATM    5  C   UNL     1      28.358  42.337  52.192  1.00  0.00     0.093 C 
HETATM    6  C   UNL     1      29.704  42.457  52.890  1.00  0.00     0.025 C 
HETATM    7  N   UNL     1      30.819  42.556  53.469  1.00  0.00    -0.096 N 
HETATM    8  C   UNL     1      27.305  44.311  53.428  1.00  0.00     0.008 A 
HETATM    9  C   UNL     1      26.138  45.035  53.135  1.00  0.00     0.049 A 
HETATM   10  C   UNL     1      28.138  44.736  54.452  1.00  0.00     0.015 A 
HETATM   11  C   UNL     1      27.796  45.895  55.161  1.00  0.00     0.001 A 
HETATM   12  C   UNL     1      26.633  46.613  54.849  1.00  0.00     0.002 A 
HETATM   13  C   UNL     1      25.788  46.183  53.826  1.00  0.00     0.030 A 
ENDROOT
BRANCH   5  14
HETATM   14  C   UNL     1      28.307  41.399  51.123  1.00  0.00     0.149 A 
HETATM   15  N   UNL     1      28.036  41.566  49.844  1.00  0.00    -0.228 NA
HETATM   16  C   UNL     1      28.220  40.342  49.249  1.00  0.00     0.086 A 
HETATM   17  C   UNL     1      28.651  39.404  50.178  1.00  0.00     0.062 A 
HETATM   18  C   UNL     1      28.056  39.956  47.912  1.00  0.00     0.034 A 
HETATM   19  N   UNL     1      28.686  40.094  51.361  1.00  0.00    -0.338 N 
HETATM   20  C   UNL     1      28.954  38.080  49.851  1.00  0.00     0.032 A 
HETATM   21  H   UNL     1      28.966  39.703  52.250  1.00  0.00     0.167 HD
HETATM   22  C   UNL     1      28.793  37.715  48.510  1.00  0.00     0.002 A 
HETATM   23  C   UNL     1      28.347  38.633  47.555  1.00  0.00     0.002 A 
ENDBRANCH   5  14
BRANCH   1  24
HETATM   24  C   UNL     1      24.305  44.980  51.398  1.00  0.00     0.235 C 
BRANCH  24  25
HETATM   25  C   UNL     1      24.660  45.760  50.137  1.00  0.00     0.240 C 
HETATM   26  N   UNL     1      25.180  47.015  50.402  1.00  0.00    -0.326 N 
HETATM   27  H   UNL     1      25.527  47.177  51.349  1.00  0.00     0.169 HD
HETATM   28  O   UNL     1      24.405  45.296  49.027  1.00  0.00    -0.271 OA
BRANCH  26  29
HETATM   29  C   UNL     1      25.243  48.106  49.512  1.00  0.00     0.035 A 
HETATM   30  C   UNL     1      24.111  48.750  48.999  1.00  0.00     0.036 A 
HETATM   31  C   UNL     1      24.232  49.890  48.188  1.00  0.00    -0.060 A 
HETATM   32  C   UNL     1      23.008  50.626  47.725  1.00  0.00     0.048 C 
HETATM   33  C   UNL     1      25.507  50.381  47.886  1.00  0.00     0.007 A 
HETATM   34  C   UNL     1      26.641  49.739  48.382  1.00  0.00     0.003 A 
HETATM   35  C   UNL     1      26.509  48.613  49.199  1.00  0.00     0.029 A 
ENDBRANCH  26  29
ENDBRANCH  24  25
ENDBRANCH   1  24
TORSDOF 4
ENDMDL
MODEL 4
REMARK VINA RESULT:     -10.0      2.833      4.893
REMARK  4 active torsions:
REMARK  status: ('A' for Active; 'I' for Inactive)
REMARK    1  A    between atoms: C_4  and  N_5 
REMARK       I    between atoms: N_5  and  C_6 
REMARK    2  A    between atoms: C_6  and  C_7 
REMARK    3  A    between atoms: C_7  and  N_8 
REMARK    4  A    between atoms: C_12  and  C_13 
ROOT
HETATM    1  N   UNL     1      27.190  43.237  50.407  1.00  0.00    -0.304 N 
HETATM    2  C   UNL     1      26.909  44.577  50.183  1.00  0.00     0.261 C 
HETATM    3  O   UNL     1      26.822  45.101  49.087  1.00  0.00    -0.267 OA
HETATM    4  C   UNL     1      26.857  45.207  51.559  1.00  0.00     0.068 C 
HETATM    5  C   UNL     1      26.328  46.418  51.828  1.00  0.00     0.093 C 
HETATM    6  C   UNL     1      26.203  46.928  53.255  1.00  0.00     0.025 C 
HETATM    7  N   UNL     1      26.099  47.351  54.438  1.00  0.00    -0.096 N 
HETATM    8  C   UNL     1      27.371  44.181  52.496  1.00  0.00     0.008 A 
HETATM    9  C   UNL     1      27.525  43.003  51.748  1.00  0.00     0.049 A 
HETATM   10  C   UNL     1      27.693  44.185  53.844  1.00  0.00     0.015 A 
HETATM   11  C   UNL     1      28.152  42.999  54.430  1.00  0.00     0.001 A 
HETATM   12  C   UNL     1      28.291  41.828  53.672  1.00  0.00     0.002 A 
HETATM   13  C   UNL     1      27.977  41.823  52.314  1.00  0.00     0.030 A 
ENDROOT
BRANCH   5  14
HETATM   14  C   UNL     1      25.710  47.229  50.834  1.00  0.00     0.149 A 
HETATM   15  N   UNL     1      24.437  47.427  50.556  1.00  0.00    -0.228 NA
HETATM   16  C   UNL     1      24.404  48.375  49.564  1.00  0.00     0.086 A 
HETATM   17  C   UNL     1      25.688  48.799  49.246  1.00  0.00     0.062 A 
HETATM   18  C   UNL     1      23.311  48.940  48.893  1.00  0.00     0.034 A 
HETATM   19  N   UNL     1      26.500  48.049  50.056  1.00  0.00    -0.338 N 
HETATM   20  C   UNL     1      25.960  49.786  48.296  1.00  0.00     0.032 A 
HETATM   21  H   UNL     1      27.508  48.113  50.082  1.00  0.00     0.167 HD
HETATM   22  C   UNL     1      24.855  50.345  47.642  1.00  0.00     0.002 A 
HETATM   23  C   UNL     1      23.553  49.928  47.929  1.00  0.00     0.002 A 
ENDBRANCH   5  14
BRANCH   1  24
HETATM   24  C   UNL     1      27.019  42.213  49.402  1.00  0.00     0.235 C 
BRANCH  24  25
HETATM   25  C   UNL     1      25.576  41.946  48.985  1.00  0.00     0.240 C 
HETATM   26  N   UNL     1      25.135  42.789  47.980  1.00  0.00    -0.326 N 
HETATM   27  H   UNL     1      25.854  43.279  47.445  1.00  0.00     0.169 HD
HETATM   28  O   UNL     1      24.902  41.108  49.582  1.00  0.00    -0.271 OA
BRANCH  26  29
HETATM   29  C   UNL     1      23.796  43.071  47.644  1.00  0.00     0.035 A 
HETATM   30  C   UNL     1      23.043  44.079  48.256  1.00  0.00     0.036 A 
HETATM   31  C   UNL     1      21.742  44.378  47.820  1.00  0.00    -0.060 A 
HETATM   32  C   UNL     1      20.985  45.525  48.423  1.00  0.00     0.048 C 
HETATM   33  C   UNL     1      21.194  43.650  46.759  1.00  0.00     0.007 A 
HETATM   34  C   UNL     1      21.932  42.635  46.150  1.00  0.00     0.003 A 
HETATM   35  C   UNL     1      23.230  42.355  46.584  1.00  0.00     0.029 A 
ENDBRANCH  26  29
ENDBRANCH  24  25
ENDBRANCH   1  24
TORSDOF 4
ENDMDL
MODEL 5
REMARK VINA RESULT:     -10.0      2.875      6.679
REMARK  4 active torsions:
REMARK  status: ('A' for Active; 'I' for Inactive)
REMARK    1  A    between atoms: C_4  and  N_5 
REMARK       I    between atoms: N_5  and  C_6 
REMARK    2  A    between atoms: C_6  and  C_7 
REMARK    3  A    between atoms: C_7  and  N_8 
REMARK    4  A    between atoms: C_12  and  C_13 
ROOT
HETATM    1  N   UNL     1      25.839  44.223  52.582  1.00  0.00    -0.304 N 
HETATM    2  C   UNL     1      25.252  43.508  51.548  1.00  0.00     0.261 C 
HETATM    3  O   UNL     1      24.064  43.512  51.279  1.00  0.00    -0.267 OA
HETATM    4  C   UNL     1      26.372  42.683  50.951  1.00  0.00     0.068 C 
HETATM    5  C   UNL     1      26.317  42.071  49.751  1.00  0.00     0.093 C 
HETATM    6  C   UNL     1      27.529  41.363  49.166  1.00  0.00     0.025 C 
HETATM    7  N   UNL     1      28.534  40.776  48.682  1.00  0.00    -0.096 N 
HETATM    8  C   UNL     1      27.516  42.815  51.882  1.00  0.00     0.008 A 
HETATM    9  C   UNL     1      27.145  43.782  52.830  1.00  0.00     0.049 A 
HETATM   10  C   UNL     1      28.760  42.209  51.969  1.00  0.00     0.015 A 
HETATM   11  C   UNL     1      29.626  42.595  53.001  1.00  0.00     0.001 A 
HETATM   12  C   UNL     1      29.245  43.569  53.934  1.00  0.00     0.002 A 
HETATM   13  C   UNL     1      27.991  44.174  53.855  1.00  0.00     0.030 A 
ENDROOT
BRANCH   5  14
HETATM   14  C   UNL     1      25.194  42.176  48.881  1.00  0.00     0.149 A 
HETATM   15  N   UNL     1      24.271  41.292  48.558  1.00  0.00    -0.228 NA
HETATM   16  C   UNL     1      23.374  41.952  47.755  1.00  0.00     0.086 A 
HETATM   17  C   UNL     1      23.733  43.285  47.607  1.00  0.00     0.062 A 
HETATM   18  C   UNL     1      22.213  41.481  47.125  1.00  0.00     0.034 A 
HETATM   19  N   UNL     1      24.897  43.400  48.320  1.00  0.00    -0.338 N 
HETATM   20  C   UNL     1      22.984  44.207  46.873  1.00  0.00     0.032 A 
HETATM   21  H   UNL     1      25.428  44.254  48.425  1.00  0.00     0.167 HD
HETATM   22  C   UNL     1      21.823  43.722  46.259  1.00  0.00     0.002 A 
HETATM   23  C   UNL     1      21.444  42.382  46.376  1.00  0.00     0.002 A 
ENDBRANCH   5  14
BRANCH   1  24
HETATM   24  C   UNL     1      25.212  45.362  53.213  1.00  0.00     0.235 C 
BRANCH  24  25
HETATM   25  C   UNL     1      25.451  46.701  52.523  1.00  0.00     0.240 C 
HETATM   26  N   UNL     1      25.018  46.723  51.210  1.00  0.00    -0.326 N 
HETATM   27  H   UNL     1      24.360  45.993  50.932  1.00  0.00     0.169 HD
HETATM   28  O   UNL     1      26.052  47.602  53.108  1.00  0.00    -0.271 OA
BRANCH  26  29
HETATM   29  C   UNL     1      25.422  47.624  50.203  1.00  0.00     0.035 A 
HETATM   30  C   UNL     1      24.533  48.453  49.509  1.00  0.00     0.036 A 
HETATM   31  C   UNL     1      25.000  49.397  48.580  1.00  0.00    -0.060 A 
HETATM   32  C   UNL     1      24.044  50.344  47.916  1.00  0.00     0.048 C 
HETATM   33  C   UNL     1      26.375  49.502  48.345  1.00  0.00     0.007 A 
HETATM   34  C   UNL     1      27.267  48.672  49.024  1.00  0.00     0.003 A 
HETATM   35  C   UNL     1      26.793  47.745  49.955  1.00  0.00     0.029 A 
ENDBRANCH  26  29
ENDBRANCH  24  25
ENDBRANCH   1  24
TORSDOF 4
ENDMDL
MODEL 6
REMARK VINA RESULT:      -9.8      3.872      7.607
REMARK  4 active torsions:
REMARK  status: ('A' for Active; 'I' for Inactive)
REMARK    1  A    between atoms: C_4  and  N_5 
REMARK       I    between atoms: N_5  and  C_6 
REMARK    2  A    between atoms: C_6  and  C_7 
REMARK    3  A    between atoms: C_7  and  N_8 
REMARK    4  A    between atoms: C_12  and  C_13 
ROOT
HETATM    1  N   UNL     1      24.824  45.067  49.314  1.00  0.00    -0.304 N 
HETATM    2  C   UNL     1      23.752  45.945  49.384  1.00  0.00     0.261 C 
HETATM    3  O   UNL     1      23.759  47.016  49.965  1.00  0.00    -0.267 OA
HETATM    4  C   UNL     1      22.607  45.229  48.698  1.00  0.00     0.068 C 
HETATM    5  C   UNL     1      21.471  45.823  48.281  1.00  0.00     0.093 C 
HETATM    6  C   UNL     1      20.421  45.059  47.491  1.00  0.00     0.025 C 
HETATM    7  N   UNL     1      19.551  44.426  46.835  1.00  0.00    -0.096 N 
HETATM    8  C   UNL     1      23.065  43.837  48.489  1.00  0.00     0.008 A 
HETATM    9  C   UNL     1      24.421  43.807  48.851  1.00  0.00     0.049 A 
HETATM   10  C   UNL     1      22.448  42.677  48.044  1.00  0.00     0.015 A 
HETATM   11  C   UNL     1      23.206  41.503  47.953  1.00  0.00     0.001 A 
HETATM   12  C   UNL     1      24.562  41.492  48.308  1.00  0.00     0.002 A 
HETATM   13  C   UNL     1      25.184  42.654  48.766  1.00  0.00     0.030 A 
ENDROOT
BRANCH   5  14
HETATM   14  C   UNL     1      21.242  47.224  48.403  1.00  0.00     0.149 A 
HETATM   15  N   UNL     1      21.486  48.211  47.565  1.00  0.00    -0.228 NA
HETATM   16  C   UNL     1      20.983  49.346  48.152  1.00  0.00     0.086 A 
HETATM   17  C   UNL     1      20.381  49.046  49.367  1.00  0.00     0.062 A 
HETATM   18  C   UNL     1      20.986  50.672  47.699  1.00  0.00     0.034 A 
HETATM   19  N   UNL     1      20.569  47.696  49.511  1.00  0.00    -0.338 N 
HETATM   20  C   UNL     1      19.750  49.999  50.170  1.00  0.00     0.032 A 
HETATM   21  H   UNL     1      20.244  47.148  50.295  1.00  0.00     0.167 HD
HETATM   22  C   UNL     1      19.755  51.316  49.697  1.00  0.00     0.002 A 
HETATM   23  C   UNL     1      20.367  51.652  48.486  1.00  0.00     0.002 A 
ENDBRANCH   5  14
BRANCH   1  24
HETATM   24  C   UNL     1      26.191  45.465  49.561  1.00  0.00     0.235 C 
BRANCH  24  25
HETATM   25  C   UNL     1      26.745  45.075  50.928  1.00  0.00     0.240 C 
HETATM   26  N   UNL     1      27.756  44.134  50.858  1.00  0.00    -0.326 N 
HETATM   27  H   UNL     1      28.208  44.014  49.950  1.00  0.00     0.169 HD
HETATM   28  O   UNL     1      26.239  45.527  51.954  1.00  0.00    -0.271 OA
BRANCH  26  29
HETATM   29  C   UNL     1      28.202  43.296  51.900  1.00  0.00     0.035 A 
HETATM   30  C   UNL     1      29.172  43.675  52.834  1.00  0.00     0.036 A 
HETATM   31  C   UNL     1      29.512  42.834  53.906  1.00  0.00    -0.060 A 
HETATM   32  C   UNL     1      30.484  43.296  54.953  1.00  0.00     0.048 C 
HETATM   33  C   UNL     1      28.873  41.597  54.033  1.00  0.00     0.007 A 
HETATM   34  C   UNL     1      27.913  41.205  53.100  1.00  0.00     0.003 A 
HETATM   35  C   UNL     1      27.573  42.054  52.045  1.00  0.00     0.029 A 
ENDBRANCH  26  29
ENDBRANCH  24  25
ENDBRANCH   1  24
TORSDOF 4
ENDMDL
MODEL 7
REMARK VINA RESULT:      -9.6      3.113      4.596
REMARK  4 active torsions:
REMARK  status: ('A' for Active; 'I' for Inactive)
REMARK    1  A    between atoms: C_4  and  N_5 
REMARK       I    between atoms: N_5  and  C_6 
REMARK    2  A    between atoms: C_6  and  C_7 
REMARK    3  A    between atoms: C_7  and  N_8 
REMARK    4  A    between atoms: C_12  and  C_13 
ROOT
HETATM    1  N   UNL     1      26.763  42.758  50.415  1.00  0.00    -0.304 N 
HETATM    2  C   UNL     1      26.589  44.111  50.164  1.00  0.00     0.261 C 
HETATM    3  O   UNL     1      26.373  44.599  49.068  1.00  0.00    -0.267 OA
HETATM    4  C   UNL     1      26.835  44.797  51.491  1.00  0.00     0.068 C 
HETATM    5  C   UNL     1      26.487  46.069  51.774  1.00  0.00     0.093 C 
HETATM    6  C   UNL     1      26.658  46.645  53.170  1.00  0.00     0.025 C 
HETATM    7  N   UNL     1      26.799  47.123  54.328  1.00  0.00    -0.096 N 
HETATM    8  C   UNL     1      27.390  43.757  52.388  1.00  0.00     0.008 A 
HETATM    9  C   UNL     1      27.293  42.541  51.694  1.00  0.00     0.049 A 
HETATM   10  C   UNL     1      27.933  43.778  53.664  1.00  0.00     0.015 A 
HETATM   11  C   UNL     1      28.359  42.572  54.234  1.00  0.00     0.001 A 
HETATM   12  C   UNL     1      28.246  41.364  53.532  1.00  0.00     0.002 A 
HETATM   13  C   UNL     1      27.709  41.341  52.245  1.00  0.00     0.030 A 
ENDROOT
BRANCH   5  14
HETATM   14  C   UNL     1      25.798  46.904  50.849  1.00  0.00     0.149 A 
HETATM   15  N   UNL     1      24.508  47.072  50.639  1.00  0.00    -0.228 NA
HETATM   16  C   UNL     1      24.399  48.064  49.696  1.00  0.00     0.086 A 
HETATM   17  C   UNL     1      25.652  48.545  49.341  1.00  0.00     0.062 A 
HETATM   18  C   UNL     1      23.258  48.623  49.104  1.00  0.00     0.034 A 
HETATM   19  N   UNL     1      26.524  47.786  50.076  1.00  0.00    -0.338 N 
HETATM   20  C   UNL     1      25.847  49.584  48.428  1.00  0.00     0.032 A 
HETATM   21  H   UNL     1      27.529  47.882  50.059  1.00  0.00     0.167 HD
HETATM   22  C   UNL     1      24.697  50.136  47.854  1.00  0.00     0.002 A 
HETATM   23  C   UNL     1      23.422  49.663  48.179  1.00  0.00     0.002 A 
ENDBRANCH   5  14
BRANCH   1  24
HETATM   24  C   UNL     1      26.319  41.721  49.512  1.00  0.00     0.235 C 
BRANCH  24  25
HETATM   25  C   UNL     1      27.360  41.247  48.503  1.00  0.00     0.240 C 
HETATM   26  N   UNL     1      26.879  41.193  47.207  1.00  0.00    -0.326 N 
HETATM   27  H   UNL     1      26.024  41.718  47.014  1.00  0.00     0.169 HD
HETATM   28  O   UNL     1      28.472  40.883  48.884  1.00  0.00    -0.271 OA
BRANCH  26  29
HETATM   29  C   UNL     1      27.423  40.458  46.135  1.00  0.00     0.035 A 
HETATM   30  C   UNL     1      28.140  41.042  45.084  1.00  0.00     0.036 A 
HETATM   31  C   UNL     1      28.738  40.252  44.090  1.00  0.00    -0.060 A 
HETATM   32  C   UNL     1      29.584  40.886  43.024  1.00  0.00     0.048 C 
HETATM   33  C   UNL     1      28.607  38.861  44.152  1.00  0.00     0.007 A 
HETATM   34  C   UNL     1      27.885  38.270  45.189  1.00  0.00     0.003 A 
HETATM   35  C   UNL     1      27.305  39.065  46.180  1.00  0.00     0.029 A 
ENDBRANCH  26  29
ENDBRANCH  24  25
ENDBRANCH   1  24
TORSDOF 4
ENDMDL
MODEL 8
REMARK VINA RESULT:      -9.5      3.601      7.840
REMARK  4 active torsions:
REMARK  status: ('A' for Active; 'I' for Inactive)
REMARK    1  A    between atoms: C_4  and  N_5 
REMARK       I    between atoms: N_5  and  C_6 
REMARK    2  A    between atoms: C_6  and  C_7 
REMARK    3  A    between atoms: C_7  and  N_8 
REMARK    4  A    between atoms: C_12  and  C_13 
ROOT
HETATM    1  N   UNL     1      24.961  44.292  49.440  1.00  0.00    -0.304 N 
HETATM    2  C   UNL     1      23.977  45.270  49.411  1.00  0.00     0.261 C 
HETATM    3  O   UNL     1      23.988  46.297  50.068  1.00  0.00    -0.267 OA
HETATM    4  C   UNL     1      22.898  44.721  48.501  1.00  0.00     0.068 C 
HETATM    5  C   UNL     1      21.904  45.455  47.960  1.00  0.00     0.093 C 
HETATM    6  C   UNL     1      20.931  44.854  46.959  1.00  0.00     0.025 C 
HETATM    7  N   UNL     1      20.124  44.356  46.129  1.00  0.00    -0.096 N 
HETATM    8  C   UNL     1      23.254  43.305  48.258  1.00  0.00     0.008 A 
HETATM    9  C   UNL     1      24.525  43.113  48.823  1.00  0.00     0.049 A 
HETATM   10  C   UNL     1      22.613  42.246  47.633  1.00  0.00     0.015 A 
HETATM   11  C   UNL     1      23.265  41.007  47.569  1.00  0.00     0.001 A 
HETATM   12  C   UNL     1      24.538  40.834  48.130  1.00  0.00     0.002 A 
HETATM   13  C   UNL     1      25.181  41.894  48.768  1.00  0.00     0.030 A 
ENDROOT
BRANCH   5  14
HETATM   14  C   UNL     1      21.789  46.861  48.155  1.00  0.00     0.149 A 
HETATM   15  N   UNL     1      22.285  47.868  47.464  1.00  0.00    -0.228 NA
HETATM   16  C   UNL     1      21.785  49.010  48.039  1.00  0.00     0.086 A 
HETATM   17  C   UNL     1      20.930  48.700  49.088  1.00  0.00     0.062 A 
HETATM   18  C   UNL     1      22.002  50.355  47.708  1.00  0.00     0.034 A 
HETATM   19  N   UNL     1      20.958  47.331  49.151  1.00  0.00    -0.338 N 
HETATM   20  C   UNL     1      20.246  49.662  49.834  1.00  0.00     0.032 A 
HETATM   21  H   UNL     1      20.435  46.772  49.810  1.00  0.00     0.167 HD
HETATM   22  C   UNL     1      20.467  50.999  49.483  1.00  0.00     0.002 A 
HETATM   23  C   UNL     1      21.334  51.343  48.443  1.00  0.00     0.002 A 
ENDBRANCH   5  14
BRANCH   1  24
HETATM   24  C   UNL     1      26.300  44.531  49.928  1.00  0.00     0.235 C 
BRANCH  24  25
HETATM   25  C   UNL     1      26.536  44.163  51.389  1.00  0.00     0.240 C 
HETATM   26  N   UNL     1      26.965  45.231  52.157  1.00  0.00    -0.326 N 
HETATM   27  H   UNL     1      26.813  46.164  51.770  1.00  0.00     0.169 HD
HETATM   28  O   UNL     1      26.420  42.996  51.761  1.00  0.00    -0.271 OA
BRANCH  26  29
HETATM   29  C   UNL     1      27.627  45.163  53.400  1.00  0.00     0.035 A 
HETATM   30  C   UNL     1      28.636  44.237  53.687  1.00  0.00     0.036 A 
HETATM   31  C   UNL     1      29.325  44.274  54.910  1.00  0.00    -0.060 A 
HETATM   32  C   UNL     1      30.469  43.336  55.165  1.00  0.00     0.048 C 
HETATM   33  C   UNL     1      28.988  45.249  55.854  1.00  0.00     0.007 A 
HETATM   34  C   UNL     1      27.976  46.169  55.582  1.00  0.00     0.003 A 
HETATM   35  C   UNL     1      27.306  46.132  54.357  1.00  0.00     0.029 A 
ENDBRANCH  26  29
ENDBRANCH  24  25
ENDBRANCH   1  24
TORSDOF 4
ENDMDL
MODEL 9
REMARK VINA RESULT:      -9.3      6.257     10.544
REMARK  4 active torsions:
REMARK  status: ('A' for Active; 'I' for Inactive)
REMARK    1  A    between atoms: C_4  and  N_5 
REMARK       I    between atoms: N_5  and  C_6 
REMARK    2  A    between atoms: C_6  and  C_7 
REMARK    3  A    between atoms: C_7  and  N_8 
REMARK    4  A    between atoms: C_12  and  C_13 
ROOT
HETATM    1  N   UNL     1      20.857  50.520  47.981  1.00  0.00    -0.304 N 
HETATM    2  C   UNL     1      20.766  49.171  47.670  1.00  0.00     0.261 C 
HETATM    3  O   UNL     1      21.637  48.515  47.127  1.00  0.00    -0.267 OA
HETATM    4  C   UNL     1      19.354  48.771  48.047  1.00  0.00     0.068 C 
HETATM    5  C   UNL     1      18.930  47.499  48.188  1.00  0.00     0.093 C 
HETATM    6  C   UNL     1      17.530  47.183  48.689  1.00  0.00     0.025 C 
HETATM    7  N   UNL     1      16.369  46.920  49.104  1.00  0.00    -0.096 N 
HETATM    8  C   UNL     1      18.638  50.034  48.336  1.00  0.00     0.008 A 
HETATM    9  C   UNL     1      19.604  51.052  48.311  1.00  0.00     0.049 A 
HETATM   10  C   UNL     1      17.314  50.350  48.599  1.00  0.00     0.015 A 
HETATM   11  C   UNL     1      16.978  51.687  48.850  1.00  0.00     0.001 A 
HETATM   12  C   UNL     1      17.955  52.691  48.831  1.00  0.00     0.002 A 
HETATM   13  C   UNL     1      19.287  52.378  48.557  1.00  0.00     0.030 A 
ENDROOT
BRANCH   5  14
HETATM   14  C   UNL     1      19.792  46.376  48.039  1.00  0.00     0.149 A 
HETATM   15  N   UNL     1      20.055  45.627  46.987  1.00  0.00    -0.228 NA
HETATM   16  C   UNL     1      21.029  44.742  47.380  1.00  0.00     0.086 A 
HETATM   17  C   UNL     1      21.401  44.973  48.697  1.00  0.00     0.062 A 
HETATM   18  C   UNL     1      21.659  43.718  46.660  1.00  0.00     0.034 A 
HETATM   19  N   UNL     1      20.595  46.006  49.098  1.00  0.00    -0.338 N 
HETATM   20  C   UNL     1      22.399  44.248  49.354  1.00  0.00     0.032 A 
HETATM   21  H   UNL     1      20.612  46.429  50.015  1.00  0.00     0.167 HD
HETATM   22  C   UNL     1      23.024  43.236  48.616  1.00  0.00     0.002 A 
HETATM   23  C   UNL     1      22.659  42.969  47.293  1.00  0.00     0.002 A 
ENDBRANCH   5  14
BRANCH   1  24
HETATM   24  C   UNL     1      22.113  51.227  48.077  1.00  0.00     0.235 C 
BRANCH  24  25
HETATM   25  C   UNL     1      23.137  50.608  49.022  1.00  0.00     0.240 C 
HETATM   26  N   UNL     1      24.287  50.186  48.379  1.00  0.00    -0.326 N 
HETATM   27  H   UNL     1      24.456  50.566  47.447  1.00  0.00     0.169 HD
HETATM   28  O   UNL     1      22.868  50.453  50.213  1.00  0.00    -0.271 OA
BRANCH  26  29
HETATM   29  C   UNL     1      25.230  49.255  48.861  1.00  0.00     0.035 A 
HETATM   30  C   UNL     1      24.877  48.043  49.465  1.00  0.00     0.036 A 
HETATM   31  C   UNL     1      25.857  47.111  49.845  1.00  0.00    -0.060 A 
HETATM   32  C   UNL     1      25.458  45.776  50.402  1.00  0.00     0.048 C 
HETATM   33  C   UNL     1      27.205  47.408  49.618  1.00  0.00     0.007 A 
HETATM   34  C   UNL     1      27.567  48.618  49.028  1.00  0.00     0.003 A 
HETATM   35  C   UNL     1      26.583  49.532  48.643  1.00  0.00     0.029 A 
ENDBRANCH  26  29
ENDBRANCH  24  25
ENDBRANCH   1  24
TORSDOF 4
ENDMDL
MODEL 10
REMARK VINA RESULT:      -9.3      3.381      9.152
REMARK  4 active torsions:
REMARK  status: ('A' for Active; 'I' for Inactive)
REMARK    1  A    between atoms: C_4  and  N_5 
REMARK       I    between atoms: N_5  and  C_6 
REMARK    2  A    between atoms: C_6  and  C_7 
REMARK    3  A    between atoms: C_7  and  N_8 
REMARK    4  A    between atoms: C_12  and  C_13 
ROOT
HETATM    1  N   UNL     1      23.268  43.668  48.814  1.00  0.00    -0.304 N 
HETATM    2  C   UNL     1      24.461  43.630  49.523  1.00  0.00     0.261 C 
HETATM    3  O   UNL     1      24.968  44.579  50.095  1.00  0.00    -0.267 OA
HETATM    4  C   UNL     1      24.998  42.229  49.321  1.00  0.00     0.068 C 
HETATM    5  C   UNL     1      25.974  41.667  50.062  1.00  0.00     0.093 C 
HETATM    6  C   UNL     1      26.372  40.212  49.876  1.00  0.00     0.025 C 
HETATM    7  N   UNL     1      26.703  39.005  49.721  1.00  0.00    -0.096 N 
HETATM    8  C   UNL     1      24.153  41.618  48.268  1.00  0.00     0.008 A 
HETATM    9  C   UNL     1      23.107  42.522  48.025  1.00  0.00     0.049 A 
HETATM   10  C   UNL     1      24.213  40.430  47.556  1.00  0.00     0.015 A 
HETATM   11  C   UNL     1      23.210  40.156  46.617  1.00  0.00     0.001 A 
HETATM   12  C   UNL     1      22.167  41.065  46.393  1.00  0.00     0.002 A 
HETATM   13  C   UNL     1      22.109  42.265  47.101  1.00  0.00     0.030 A 
ENDROOT
BRANCH   5  14
HETATM   14  C   UNL     1      26.584  42.330  51.165  1.00  0.00     0.149 A 
HETATM   15  N   UNL     1      27.837  42.680  51.372  1.00  0.00    -0.228 NA
HETATM   16  C   UNL     1      27.851  43.373  52.558  1.00  0.00     0.086 A 
HETATM   17  C   UNL     1      26.569  43.483  53.078  1.00  0.00     0.062 A 
HETATM   18  C   UNL     1      28.922  43.955  53.248  1.00  0.00     0.034 A 
HETATM   19  N   UNL     1      25.783  42.803  52.184  1.00  0.00    -0.338 N 
HETATM   20  C   UNL     1      26.273  44.169  54.259  1.00  0.00     0.032 A 
HETATM   21  H   UNL     1      24.782  42.694  52.262  1.00  0.00     0.167 HD
HETATM   22  C   UNL     1      27.354  44.752  54.930  1.00  0.00     0.002 A 
HETATM   23  C   UNL     1      28.658  44.644  54.439  1.00  0.00     0.002 A 
ENDBRANCH   5  14
BRANCH   1  24
HETATM   24  C   UNL     1      22.276  44.703  48.991  1.00  0.00     0.235 C 
BRANCH  24  25
HETATM   25  C   UNL     1      22.575  46.020  48.282  1.00  0.00     0.240 C 
HETATM   26  N   UNL     1      22.892  47.048  49.153  1.00  0.00    -0.326 N 
HETATM   27  H   UNL     1      23.165  46.778  50.099  1.00  0.00     0.169 HD
HETATM   28  O   UNL     1      22.445  46.111  47.062  1.00  0.00    -0.271 OA
BRANCH  26  29
HETATM   29  C   UNL     1      22.839  48.430  48.881  1.00  0.00     0.035 A 
HETATM   30  C   UNL     1      21.657  49.178  48.914  1.00  0.00     0.036 A 
HETATM   31  C   UNL     1      21.675  50.569  48.725  1.00  0.00    -0.060 A 
HETATM   32  C   UNL     1      20.412  51.370  48.860  1.00  0.00     0.048 C 
HETATM   33  C   UNL     1      22.896  51.211  48.493  1.00  0.00     0.007 A 
HETATM   34  C   UNL     1      24.078  50.472  48.446  1.00  0.00     0.003 A 
HETATM   35  C   UNL     1      24.050  49.090  48.648  1.00  0.00     0.029 A 
ENDBRANCH  26  29
ENDBRANCH  24  25
ENDBRANCH   1  24
TORSDOF 4
ENDMDL
