MODEL 1
REMARK VINA RESULT:      -9.5      0.000      0.000
REMARK  2 active torsions:
REMARK  status: ('A' for Active; 'I' for Inactive)
REMARK    1  A    between atoms: C_4  and  C_5 
REMARK    2  A    between atoms: N_11  and  C_12 
ROOT
HETATM    1  C   UNL     1      25.445  47.520  50.221  1.00  0.00     0.069 A 
HETATM    2  N   UNL     1      24.069  47.654  50.294  1.00  0.00    -0.343 N 
HETATM    3  C   UNL     1      23.397  48.590  49.561  1.00  0.00     0.119 A 
HETATM    4  C   UNL     1      24.046  49.370  48.680  1.00  0.00     0.125 A 
HETATM    5  C   UNL     1      23.026  50.190  48.006  1.00  0.00     0.280 A 
HETATM    6  O   UNL     1      23.250  51.003  47.127  1.00  0.00    -0.265 OA
HETATM    7  N   UNL     1      21.805  49.813  48.586  1.00  0.00    -0.236 N 
HETATM    8  N   UNL     1      22.040  48.840  49.581  1.00  0.00    -0.179 NA
HETATM    9  C   UNL     1      25.498  49.261  48.492  1.00  0.00     0.215 A 
HETATM   10  O   UNL     1      26.101  49.941  47.670  1.00  0.00    -0.285 OA
HETATM   11  C   UNL     1      26.197  48.257  49.374  1.00  0.00     0.112 A 
HETATM   12 CL   UNL     1      27.910  48.135  49.231  1.00  0.00    -0.077 Cl
HETATM   13  H   UNL     1      23.578  47.183  51.049  1.00  0.00     0.167 HD
HETATM   14  H   UNL     1      21.513  47.982  49.418  1.00  0.00     0.155 HD
ENDROOT
BRANCH   7  15
HETATM   15  C   UNL     1      20.502  50.299  48.345  1.00  0.00     0.055 A 
HETATM   16  C   UNL     1      19.489  49.457  47.861  1.00  0.00     0.034 A 
HETATM   17  C   UNL     1      18.197  49.944  47.635  1.00  0.00     0.044 A 
HETATM   18  C   UNL     1      17.910  51.277  47.889  1.00  0.00     0.116 A 
HETATM   19  F   UNL     1      16.674  51.743  47.674  1.00  0.00    -0.206 F 
HETATM   20  C   UNL     1      18.893  52.134  48.362  1.00  0.00     0.044 A 
HETATM   21  C   UNL     1      20.184  51.647  48.589  1.00  0.00     0.034 A 
ENDBRANCH   7  15
BRANCH   1  22
HETATM   22  C   UNL     1      26.031  46.521  51.131  1.00  0.00    -0.008 A 
HETATM   23  C   UNL     1      26.068  46.759  52.511  1.00  0.00     0.014 A 
HETATM   24  C   UNL     1      26.615  45.807  53.373  1.00  0.00     0.001 A 
HETATM   25  C   UNL     1      27.126  44.615  52.860  1.00  0.00     0.000 A 
HETATM   26  C   UNL     1      27.091  44.371  51.489  1.00  0.00     0.001 A 
HETATM   27  C   UNL     1      26.544  45.321  50.625  1.00  0.00     0.014 A 
ENDBRANCH   1  22
TORSDOF 2
ENDMDL
MODEL 2
REMARK VINA RESULT:      -9.2      3.686      5.710
REMARK  2 active torsions:
REMARK  status: ('A' for Active; 'I' for Inactive)
REMARK    1  A    between atoms: C_4  and  C_5 
REMARK    2  A    between atoms: N_11  and  C_12 
ROOT
HETATM    1  C   UNL     1      27.649  45.097  53.961  1.00  0.00     0.069 A 
HETATM    2  N   UNL     1      27.219  46.296  53.417  1.00  0.00    -0.343 N 
HETATM    3  C   UNL     1      26.471  46.341  52.275  1.00  0.00     0.119 A 
HETATM    4  C   UNL     1      26.059  45.211  51.677  1.00  0.00     0.125 A 
HETATM    5  C   UNL     1      25.212  45.615  50.543  1.00  0.00     0.280 A 
HETATM    6  O   UNL     1      24.647  44.849  49.783  1.00  0.00    -0.265 OA
HETATM    7  N   UNL     1      25.209  47.019  50.564  1.00  0.00    -0.236 N 
HETATM    8  N   UNL     1      26.023  47.473  51.623  1.00  0.00    -0.179 NA
HETATM    9  C   UNL     1      26.417  43.892  52.213  1.00  0.00     0.215 A 
HETATM   10  O   UNL     1      26.023  42.852  51.699  1.00  0.00    -0.285 OA
HETATM   11  C   UNL     1      27.298  43.902  53.436  1.00  0.00     0.112 A 
HETATM   12 CL   UNL     1      27.793  42.376  54.068  1.00  0.00    -0.077 Cl
HETATM   13  H   UNL     1      27.633  47.157  53.763  1.00  0.00     0.167 HD
HETATM   14  H   UNL     1      25.519  48.083  52.267  1.00  0.00     0.155 HD
ENDROOT
BRANCH   7  15
HETATM   15  C   UNL     1      24.587  47.934  49.688  1.00  0.00     0.055 A 
HETATM   16  C   UNL     1      23.212  47.859  49.413  1.00  0.00     0.034 A 
HETATM   17  C   UNL     1      22.600  48.776  48.553  1.00  0.00     0.044 A 
HETATM   18  C   UNL     1      23.360  49.772  47.958  1.00  0.00     0.116 A 
HETATM   19  F   UNL     1      22.775  50.651  47.134  1.00  0.00    -0.206 F 
HETATM   20  C   UNL     1      24.722  49.868  48.205  1.00  0.00     0.044 A 
HETATM   21  C   UNL     1      25.333  48.951  49.067  1.00  0.00     0.034 A 
ENDBRANCH   7  15
BRANCH   1  22
HETATM   22  C   UNL     1      28.513  45.216  55.147  1.00  0.00    -0.008 A 
HETATM   23  C   UNL     1      29.741  44.543  55.196  1.00  0.00     0.014 A 
HETATM   24  C   UNL     1      30.563  44.664  56.317  1.00  0.00     0.001 A 
HETATM   25  C   UNL     1      30.164  45.457  57.392  1.00  0.00     0.000 A 
HETATM   26  C   UNL     1      28.945  46.131  57.349  1.00  0.00     0.001 A 
HETATM   27  C   UNL     1      28.120  46.012  56.229  1.00  0.00     0.014 A 
ENDBRANCH   1  22
TORSDOF 2
ENDMDL
MODEL 3
REMARK VINA RESULT:      -9.2      8.746     10.623
REMARK  2 active torsions:
REMARK  status: ('A' for Active; 'I' for Inactive)
REMARK    1  A    between atoms: C_4  and  C_5 
REMARK    2  A    between atoms: N_11  and  C_12 
ROOT
HETATM    1  C   UNL     1      29.251  43.836  54.413  1.00  0.00     0.069 A 
HETATM    2  N   UNL     1      29.639  42.698  53.726  1.00  0.00    -0.343 N 
HETATM    3  C   UNL     1      28.978  42.273  52.609  1.00  0.00     0.119 A 
HETATM    4  C   UNL     1      27.967  42.991  52.091  1.00  0.00     0.125 A 
HETATM    5  C   UNL     1      27.546  42.306  50.858  1.00  0.00     0.280 A 
HETATM    6  O   UNL     1      26.662  42.686  50.112  1.00  0.00    -0.265 OA
HETATM    7  N   UNL     1      28.378  41.179  50.758  1.00  0.00    -0.236 N 
HETATM    8  N   UNL     1      29.248  41.139  51.869  1.00  0.00    -0.179 NA
HETATM    9  C   UNL     1      27.522  44.242  52.718  1.00  0.00     0.215 A 
HETATM   10  O   UNL     1      26.625  44.926  52.242  1.00  0.00    -0.285 OA
HETATM   11  C   UNL     1      28.244  44.629  53.985  1.00  0.00     0.112 A 
HETATM   12 CL   UNL     1      27.718  46.059  54.790  1.00  0.00    -0.077 Cl
HETATM   13  H   UNL     1      30.298  42.067  54.172  1.00  0.00     0.167 HD
HETATM   14  H   UNL     1      30.229  41.114  51.593  1.00  0.00     0.155 HD
ENDROOT
BRANCH   7  15
HETATM   15  C   UNL     1      28.394  40.151  49.791  1.00  0.00     0.055 A 
HETATM   16  C   UNL     1      28.126  40.420  48.439  1.00  0.00     0.034 A 
HETATM   17  C   UNL     1      28.155  39.398  47.484  1.00  0.00     0.044 A 
HETATM   18  C   UNL     1      28.449  38.101  47.875  1.00  0.00     0.116 A 
HETATM   19  F   UNL     1      28.477  37.122  46.961  1.00  0.00    -0.206 F 
HETATM   20  C   UNL     1      28.712  37.804  49.204  1.00  0.00     0.044 A 
HETATM   21  C   UNL     1      28.684  38.826  50.159  1.00  0.00     0.034 A 
ENDBRANCH   7  15
BRANCH   1  22
HETATM   22  C   UNL     1      30.011  44.120  55.642  1.00  0.00    -0.008 A 
HETATM   23  C   UNL     1      29.779  45.301  56.358  1.00  0.00     0.014 A 
HETATM   24  C   UNL     1      30.493  45.565  57.528  1.00  0.00     0.001 A 
HETATM   25  C   UNL     1      31.440  44.651  57.987  1.00  0.00     0.000 A 
HETATM   26  C   UNL     1      31.675  43.472  57.281  1.00  0.00     0.001 A 
HETATM   27  C   UNL     1      30.962  43.206  56.111  1.00  0.00     0.014 A 
ENDBRANCH   1  22
TORSDOF 2
ENDMDL
MODEL 4
REMARK VINA RESULT:      -9.1      5.482      9.778
REMARK  2 active torsions:
REMARK  status: ('A' for Active; 'I' for Inactive)
REMARK    1  A    between atoms: C_4  and  C_5 
REMARK    2  A    between atoms: N_11  and  C_12 
ROOT
HETATM    1  C   UNL     1      25.178  46.946  50.826  1.00  0.00     0.069 A 
HETATM    2  N   UNL     1      26.161  47.309  51.731  1.00  0.00    -0.343 N 
HETATM    3  C   UNL     1      26.573  46.465  52.722  1.00  0.00     0.119 A 
HETATM    4  C   UNL     1      26.088  45.215  52.808  1.00  0.00     0.125 A 
HETATM    5  C   UNL     1      26.800  44.557  53.916  1.00  0.00     0.280 A 
HETATM    6  O   UNL     1      26.631  43.405  54.271  1.00  0.00    -0.265 OA
HETATM    7  N   UNL     1      27.678  45.530  54.421  1.00  0.00    -0.236 N 
HETATM    8  N   UNL     1      27.511  46.731  53.700  1.00  0.00    -0.179 NA
HETATM    9  C   UNL     1      25.084  44.721  51.857  1.00  0.00     0.215 A 
HETATM   10  O   UNL     1      24.655  43.574  51.901  1.00  0.00    -0.285 OA
HETATM   11  C   UNL     1      24.618  45.716  50.825  1.00  0.00     0.112 A 
HETATM   12 CL   UNL     1      23.397  45.201  49.724  1.00  0.00    -0.077 Cl
HETATM   13  H   UNL     1      26.436  48.286  51.777  1.00  0.00     0.167 HD
HETATM   14  H   UNL     1      28.382  47.059  53.283  1.00  0.00     0.155 HD
ENDROOT
BRANCH   7  15
HETATM   15  C   UNL     1      28.577  45.459  55.507  1.00  0.00     0.055 A 
HETATM   16  C   UNL     1      28.353  46.187  56.686  1.00  0.00     0.034 A 
HETATM   17  C   UNL     1      29.243  46.102  57.762  1.00  0.00     0.044 A 
HETATM   18  C   UNL     1      30.363  45.291  57.665  1.00  0.00     0.116 A 
HETATM   19  F   UNL     1      31.215  45.209  58.695  1.00  0.00    -0.206 F 
HETATM   20  C   UNL     1      30.614  44.564  56.510  1.00  0.00     0.044 A 
HETATM   21  C   UNL     1      29.723  44.648  55.435  1.00  0.00     0.034 A 
ENDBRANCH   7  15
BRANCH   1  22
HETATM   22  C   UNL     1      24.786  47.993  49.866  1.00  0.00    -0.008 A 
HETATM   23  C   UNL     1      25.764  48.739  49.198  1.00  0.00     0.014 A 
HETATM   24  C   UNL     1      25.391  49.724  48.281  1.00  0.00     0.001 A 
HETATM   25  C   UNL     1      24.041  49.966  48.029  1.00  0.00     0.000 A 
HETATM   26  C   UNL     1      23.062  49.225  48.690  1.00  0.00     0.001 A 
HETATM   27  C   UNL     1      23.433  48.239  49.606  1.00  0.00     0.014 A 
ENDBRANCH   1  22
TORSDOF 2
ENDMDL
MODEL 5
REMARK VINA RESULT:      -9.0      8.699     11.103
REMARK  2 active torsions:
REMARK  status: ('A' for Active; 'I' for Inactive)
REMARK    1  A    between atoms: C_4  and  C_5 
REMARK    2  A    between atoms: N_11  and  C_12 
ROOT
HETATM    1  C   UNL     1      27.768  40.958  50.340  1.00  0.00     0.069 A 
HETATM    2  N   UNL     1      28.572  40.953  51.468  1.00  0.00    -0.343 N 
HETATM    3  C   UNL     1      28.670  42.041  52.287  1.00  0.00     0.119 A 
HETATM    4  C   UNL     1      27.927  43.138  52.067  1.00  0.00     0.125 A 
HETATM    5  C   UNL     1      28.207  44.071  53.170  1.00  0.00     0.280 A 
HETATM    6  O   UNL     1      27.694  45.166  53.310  1.00  0.00    -0.265 OA
HETATM    7  N   UNL     1      29.149  43.415  53.979  1.00  0.00    -0.236 N 
HETATM    8  N   UNL     1      29.465  42.163  53.409  1.00  0.00    -0.179 NA
HETATM    9  C   UNL     1      27.003  43.216  50.928  1.00  0.00     0.215 A 
HETATM   10  O   UNL     1      26.294  44.195  50.731  1.00  0.00    -0.285 OA
HETATM   11  C   UNL     1      26.984  42.011  50.021  1.00  0.00     0.112 A 
HETATM   12 CL   UNL     1      25.958  42.079  48.638  1.00  0.00    -0.077 Cl
HETATM   13  H   UNL     1      29.246  40.200  51.575  1.00  0.00     0.167 HD
HETATM   14  H   UNL     1      29.300  41.390  54.054  1.00  0.00     0.155 HD
ENDROOT
BRANCH   7  15
HETATM   15  C   UNL     1      29.795  43.857  55.153  1.00  0.00     0.055 A 
HETATM   16  C   UNL     1      29.462  45.084  55.749  1.00  0.00     0.034 A 
HETATM   17  C   UNL     1      30.098  45.511  56.920  1.00  0.00     0.044 A 
HETATM   18  C   UNL     1      31.074  44.715  57.500  1.00  0.00     0.116 A 
HETATM   19  F   UNL     1      31.683  45.123  58.621  1.00  0.00    -0.206 F 
HETATM   20  C   UNL     1      31.429  43.500  56.931  1.00  0.00     0.044 A 
HETATM   21  C   UNL     1      30.791  43.074  55.762  1.00  0.00     0.034 A 
ENDBRANCH   7  15
BRANCH   1  22
HETATM   22  C   UNL     1      27.829  39.740  49.515  1.00  0.00    -0.008 A 
HETATM   23  C   UNL     1      28.858  39.572  48.580  1.00  0.00     0.014 A 
HETATM   24  C   UNL     1      28.920  38.413  47.806  1.00  0.00     0.001 A 
HETATM   25  C   UNL     1      27.956  37.417  47.962  1.00  0.00     0.000 A 
HETATM   26  C   UNL     1      26.931  37.577  48.892  1.00  0.00     0.001 A 
HETATM   27  C   UNL     1      26.867  38.736  49.669  1.00  0.00     0.014 A 
ENDBRANCH   1  22
TORSDOF 2
ENDMDL
MODEL 6
REMARK VINA RESULT:      -8.9      4.852      9.139
REMARK  2 active torsions:
REMARK  status: ('A' for Active; 'I' for Inactive)
REMARK    1  A    between atoms: C_4  and  C_5 
REMARK    2  A    between atoms: N_11  and  C_12 
ROOT
HETATM    1  C   UNL     1      23.879  47.304  49.488  1.00  0.00     0.069 A 
HETATM    2  N   UNL     1      24.954  47.335  50.359  1.00  0.00    -0.343 N 
HETATM    3  C   UNL     1      25.499  46.193  50.871  1.00  0.00     0.119 A 
HETATM    4  C   UNL     1      25.054  44.985  50.485  1.00  0.00     0.125 A 
HETATM    5  C   UNL     1      25.906  43.985  51.150  1.00  0.00     0.280 A 
HETATM    6  O   UNL     1      25.805  42.779  51.017  1.00  0.00    -0.265 OA
HETATM    7  N   UNL     1      26.816  44.728  51.919  1.00  0.00    -0.236 N 
HETATM    8  N   UNL     1      26.540  46.104  51.773  1.00  0.00    -0.179 NA
HETATM    9  C   UNL     1      23.954  44.851  49.521  1.00  0.00     0.215 A 
HETATM   10  O   UNL     1      23.558  43.758  49.134  1.00  0.00    -0.285 OA
HETATM   11  C   UNL     1      23.348  46.145  49.039  1.00  0.00     0.112 A 
HETATM   12 CL   UNL     1      22.016  46.037  47.951  1.00  0.00    -0.077 Cl
HETATM   13  H   UNL     1      25.212  48.226  50.774  1.00  0.00     0.167 HD
HETATM   14  H   UNL     1      27.349  46.630  51.443  1.00  0.00     0.155 HD
ENDROOT
BRANCH   7  15
HETATM   15  C   UNL     1      27.839  44.284  52.784  1.00  0.00     0.055 A 
HETATM   16  C   UNL     1      28.805  43.361  52.355  1.00  0.00     0.034 A 
HETATM   17  C   UNL     1      29.824  42.934  53.215  1.00  0.00     0.044 A 
HETATM   18  C   UNL     1      29.880  43.426  54.511  1.00  0.00     0.116 A 
HETATM   19  F   UNL     1      30.854  43.019  55.334  1.00  0.00    -0.206 F 
HETATM   20  C   UNL     1      28.935  44.335  54.965  1.00  0.00     0.044 A 
HETATM   21  C   UNL     1      27.918  44.762  54.104  1.00  0.00     0.034 A 
ENDBRANCH   7  15
BRANCH   1  22
HETATM   22  C   UNL     1      23.353  48.620  49.085  1.00  0.00    -0.008 A 
HETATM   23  C   UNL     1      22.087  49.035  49.516  1.00  0.00     0.014 A 
HETATM   24  C   UNL     1      21.595  50.287  49.142  1.00  0.00     0.001 A 
HETATM   25  C   UNL     1      22.364  51.127  48.337  1.00  0.00     0.000 A 
HETATM   26  C   UNL     1      23.626  50.720  47.908  1.00  0.00     0.001 A 
HETATM   27  C   UNL     1      24.121  49.470  48.281  1.00  0.00     0.014 A 
ENDBRANCH   1  22
TORSDOF 2
ENDMDL
MODEL 7
REMARK VINA RESULT:      -8.9      2.913      4.303
REMARK  2 active torsions:
REMARK  status: ('A' for Active; 'I' for Inactive)
REMARK    1  A    between atoms: C_4  and  C_5 
REMARK    2  A    between atoms: N_11  and  C_12 
ROOT
HETATM    1  C   UNL     1      26.616  44.436  51.629  1.00  0.00     0.069 A 
HETATM    2  N   UNL     1      26.186  45.752  51.631  1.00  0.00    -0.343 N 
HETATM    3  C   UNL     1      25.239  46.201  50.755  1.00  0.00     0.119 A 
HETATM    4  C   UNL     1      24.633  45.356  49.904  1.00  0.00     0.125 A 
HETATM    5  C   UNL     1      23.618  46.138  49.179  1.00  0.00     0.280 A 
HETATM    6  O   UNL     1      22.860  45.692  48.336  1.00  0.00    -0.265 OA
HETATM    7  N   UNL     1      23.729  47.444  49.681  1.00  0.00    -0.236 N 
HETATM    8  N   UNL     1      24.764  47.492  50.639  1.00  0.00    -0.179 NA
HETATM    9  C   UNL     1      24.982  43.930  49.868  1.00  0.00     0.215 A 
HETATM   10  O   UNL     1      24.417  43.140  49.122  1.00  0.00    -0.285 OA
HETATM   11  C   UNL     1      26.080  43.504  50.811  1.00  0.00     0.112 A 
HETATM   12 CL   UNL     1      26.565  41.851  50.764  1.00  0.00    -0.077 Cl
HETATM   13  H   UNL     1      26.724  46.434  52.158  1.00  0.00     0.167 HD
HETATM   14  H   UNL     1      24.442  47.840  51.542  1.00  0.00     0.155 HD
ENDROOT
BRANCH   7  15
HETATM   15  C   UNL     1      23.024  48.613  49.321  1.00  0.00     0.055 A 
HETATM   16  C   UNL     1      23.699  49.810  49.032  1.00  0.00     0.034 A 
HETATM   17  C   UNL     1      22.995  50.961  48.664  1.00  0.00     0.044 A 
HETATM   18  C   UNL     1      21.611  50.924  48.586  1.00  0.00     0.116 A 
HETATM   19  F   UNL     1      20.936  52.025  48.234  1.00  0.00    -0.206 F 
HETATM   20  C   UNL     1      20.916  49.757  48.871  1.00  0.00     0.044 A 
HETATM   21  C   UNL     1      21.621  48.606  49.237  1.00  0.00     0.034 A 
ENDBRANCH   7  15
BRANCH   1  22
HETATM   22  C   UNL     1      27.699  44.125  52.578  1.00  0.00    -0.008 A 
HETATM   23  C   UNL     1      28.848  43.455  52.141  1.00  0.00     0.014 A 
HETATM   24  C   UNL     1      29.878  43.169  53.040  1.00  0.00     0.001 A 
HETATM   25  C   UNL     1      29.763  43.550  54.376  1.00  0.00     0.000 A 
HETATM   26  C   UNL     1      28.622  44.219  54.817  1.00  0.00     0.001 A 
HETATM   27  C   UNL     1      27.592  44.507  53.920  1.00  0.00     0.014 A 
ENDBRANCH   1  22
TORSDOF 2
ENDMDL
MODEL 8
REMARK VINA RESULT:      -8.5      3.726      8.156
REMARK  2 active torsions:
REMARK  status: ('A' for Active; 'I' for Inactive)
REMARK    1  A    between atoms: C_4  and  C_5 
REMARK    2  A    between atoms: N_11  and  C_12 
ROOT
HETATM    1  C   UNL     1      22.691  49.205  49.214  1.00  0.00     0.069 A 
HETATM    2  N   UNL     1      22.891  47.998  49.861  1.00  0.00    -0.343 N 
HETATM    3  C   UNL     1      24.109  47.380  49.870  1.00  0.00     0.119 A 
HETATM    4  C   UNL     1      25.182  47.964  49.312  1.00  0.00     0.125 A 
HETATM    5  C   UNL     1      26.332  47.084  49.575  1.00  0.00     0.280 A 
HETATM    6  O   UNL     1      27.478  47.307  49.231  1.00  0.00    -0.265 OA
HETATM    7  N   UNL     1      25.808  45.995  50.291  1.00  0.00    -0.236 N 
HETATM    8  N   UNL     1      24.416  46.162  50.445  1.00  0.00    -0.179 NA
HETATM    9  C   UNL     1      25.080  49.272  48.652  1.00  0.00     0.215 A 
HETATM   10  O   UNL     1      26.054  49.835  48.166  1.00  0.00    -0.285 OA
HETATM   11  C   UNL     1      23.699  49.877  48.615  1.00  0.00     0.112 A 
HETATM   12 CL   UNL     1      23.517  51.385  47.800  1.00  0.00    -0.077 Cl
HETATM   13  H   UNL     1      22.076  47.471  50.162  1.00  0.00     0.167 HD
HETATM   14  H   UNL     1      24.127  46.142  51.423  1.00  0.00     0.155 HD
ENDROOT
BRANCH   7  15
HETATM   15  C   UNL     1      26.454  44.837  50.773  1.00  0.00     0.055 A 
HETATM   16  C   UNL     1      26.918  44.760  52.096  1.00  0.00     0.034 A 
HETATM   17  C   UNL     1      27.548  43.604  52.571  1.00  0.00     0.044 A 
HETATM   18  C   UNL     1      27.720  42.519  51.724  1.00  0.00     0.116 A 
HETATM   19  F   UNL     1      28.322  41.413  52.178  1.00  0.00    -0.206 F 
HETATM   20  C   UNL     1      27.278  42.568  50.410  1.00  0.00     0.044 A 
HETATM   21  C   UNL     1      26.647  43.724  49.937  1.00  0.00     0.034 A 
ENDBRANCH   7  15
BRANCH   1  22
HETATM   22  C   UNL     1      21.306  49.705  49.225  1.00  0.00    -0.008 A 
HETATM   23  C   UNL     1      20.968  50.830  49.987  1.00  0.00     0.014 A 
HETATM   24  C   UNL     1      19.656  51.309  49.989  1.00  0.00     0.001 A 
HETATM   25  C   UNL     1      18.679  50.666  49.229  1.00  0.00     0.000 A 
HETATM   26  C   UNL     1      19.009  49.547  48.467  1.00  0.00     0.001 A 
HETATM   27  C   UNL     1      20.320  49.067  48.463  1.00  0.00     0.014 A 
ENDBRANCH   1  22
TORSDOF 2
ENDMDL
MODEL 9
REMARK VINA RESULT:      -8.3      4.917      8.663
REMARK  2 active torsions:
REMARK  status: ('A' for Active; 'I' for Inactive)
REMARK    1  A    between atoms: C_4  and  C_5 
REMARK    2  A    between atoms: N_11  and  C_12 
ROOT
HETATM    1  C   UNL     1      22.430  45.870  48.829  1.00  0.00     0.069 A 
HETATM    2  N   UNL     1      23.136  44.965  49.603  1.00  0.00    -0.343 N 
HETATM    3  C   UNL     1      24.232  45.339  50.327  1.00  0.00     0.119 A 
HETATM    4  C   UNL     1      24.621  46.624  50.374  1.00  0.00     0.125 A 
HETATM    5  C   UNL     1      25.762  46.690  51.302  1.00  0.00     0.280 A 
HETATM    6  O   UNL     1      26.361  47.706  51.605  1.00  0.00    -0.265 OA
HETATM    7  N   UNL     1      25.965  45.369  51.734  1.00  0.00    -0.236 N 
HETATM    8  N   UNL     1      25.033  44.520  51.099  1.00  0.00    -0.179 NA
HETATM    9  C   UNL     1      23.900  47.665  49.631  1.00  0.00     0.215 A 
HETATM   10  O   UNL     1      24.221  48.846  49.688  1.00  0.00    -0.285 OA
HETATM   11  C   UNL     1      22.738  47.185  48.797  1.00  0.00     0.112 A 
HETATM   12 CL   UNL     1      21.897  48.363  47.861  1.00  0.00    -0.077 Cl
HETATM   13  H   UNL     1      22.954  43.974  49.472  1.00  0.00     0.167 HD
HETATM   14  H   UNL     1      24.472  43.991  51.766  1.00  0.00     0.155 HD
ENDROOT
BRANCH   7  15
HETATM   15  C   UNL     1      26.944  44.844  52.604  1.00  0.00     0.055 A 
HETATM   16  C   UNL     1      27.001  45.230  53.952  1.00  0.00     0.034 A 
HETATM   17  C   UNL     1      27.968  44.696  54.812  1.00  0.00     0.044 A 
HETATM   18  C   UNL     1      28.886  43.777  54.327  1.00  0.00     0.116 A 
HETATM   19  F   UNL     1      29.810  43.265  55.149  1.00  0.00    -0.206 F 
HETATM   20  C   UNL     1      28.857  43.381  52.998  1.00  0.00     0.044 A 
HETATM   21  C   UNL     1      27.890  43.913  52.140  1.00  0.00     0.034 A 
ENDBRANCH   7  15
BRANCH   1  22
HETATM   22  C   UNL     1      21.322  45.300  48.044  1.00  0.00    -0.008 A 
HETATM   23  C   UNL     1      19.996  45.498  48.448  1.00  0.00     0.014 A 
HETATM   24  C   UNL     1      18.947  44.965  47.697  1.00  0.00     0.001 A 
HETATM   25  C   UNL     1      19.217  44.234  46.541  1.00  0.00     0.000 A 
HETATM   26  C   UNL     1      20.535  44.035  46.132  1.00  0.00     0.001 A 
HETATM   27  C   UNL     1      21.586  44.567  46.881  1.00  0.00     0.014 A 
ENDBRANCH   1  22
TORSDOF 2
ENDMDL
MODEL 10
REMARK VINA RESULT:      -8.2      4.051      8.292
REMARK  2 active torsions:
REMARK  status: ('A' for Active; 'I' for Inactive)
REMARK    1  A    between atoms: C_4  and  C_5 
REMARK    2  A    between atoms: N_11  and  C_12 
ROOT
HETATM    1  C   UNL     1      22.092  47.604  48.283  1.00  0.00     0.069 A 
HETATM    2  N   UNL     1      22.445  46.494  49.030  1.00  0.00    -0.343 N 
HETATM    3  C   UNL     1      23.604  46.451  49.752  1.00  0.00     0.119 A 
HETATM    4  C   UNL     1      24.411  47.522  49.822  1.00  0.00     0.125 A 
HETATM    5  C   UNL     1      25.507  47.170  50.740  1.00  0.00     0.280 A 
HETATM    6  O   UNL     1      26.419  47.911  51.058  1.00  0.00    -0.265 OA
HETATM    7  N   UNL     1      25.243  45.851  51.142  1.00  0.00    -0.236 N 
HETATM    8  N   UNL     1      24.076  45.389  50.498  1.00  0.00    -0.179 NA
HETATM    9  C   UNL     1      24.091  48.765  49.108  1.00  0.00     0.215 A 
HETATM   10  O   UNL     1      24.799  49.762  49.187  1.00  0.00    -0.285 OA
HETATM   11  C   UNL     1      22.834  48.733  48.276  1.00  0.00     0.112 A 
HETATM   12 CL   UNL     1      22.447  50.150  47.373  1.00  0.00    -0.077 Cl
HETATM   13  H   UNL     1      21.932  45.629  48.881  1.00  0.00     0.167 HD
HETATM   14  H   UNL     1      23.368  45.070  51.159  1.00  0.00     0.155 HD
ENDROOT
BRANCH   7  15
HETATM   15  C   UNL     1      25.984  45.001  51.991  1.00  0.00     0.055 A 
HETATM   16  C   UNL     1      27.168  44.388  51.553  1.00  0.00     0.034 A 
HETATM   17  C   UNL     1      27.904  43.555  52.404  1.00  0.00     0.044 A 
HETATM   18  C   UNL     1      27.457  43.328  53.697  1.00  0.00     0.116 A 
HETATM   19  F   UNL     1      28.160  42.532  54.513  1.00  0.00    -0.206 F 
HETATM   20  C   UNL     1      26.286  43.916  54.156  1.00  0.00     0.044 A 
HETATM   21  C   UNL     1      25.553  44.749  53.305  1.00  0.00     0.034 A 
ENDBRANCH   7  15
BRANCH   1  22
HETATM   22  C   UNL     1      20.854  47.468  47.497  1.00  0.00    -0.008 A 
HETATM   23  C   UNL     1      19.675  48.093  47.923  1.00  0.00     0.014 A 
HETATM   24  C   UNL     1      18.505  47.971  47.171  1.00  0.00     0.001 A 
HETATM   25  C   UNL     1      18.508  47.227  45.992  1.00  0.00     0.000 A 
HETATM   26  C   UNL     1      19.678  46.605  45.561  1.00  0.00     0.001 A 
HETATM   27  C   UNL     1      20.849  46.725  46.310  1.00  0.00     0.014 A 
ENDBRANCH   1  22
TORSDOF 2
ENDMDL
