MODEL 1
REMARK VINA RESULT:      -9.2      0.000      0.000
REMARK  6 active torsions:
REMARK  status: ('A' for Active; 'I' for Inactive)
REMARK    1  A    between atoms: C_4  and  C_5 
REMARK    2  A    between atoms: C_5  and  N_6 
REMARK    3  A    between atoms: C_5  and  C_19 
REMARK       I    between atoms: N_6  and  C_7 
REMARK    4  A    between atoms: C_7  and  C_8 
REMARK       I    between atoms: C_19  and  N_20 
REMARK    5  A    between atoms: N_20  and  C_21 
REMARK    6  A    between atoms: C_21  and  C_22 
ROOT
HETATM    1  C   UNL     1      25.519  46.087  51.473  1.00  0.00     0.210 C 
ENDROOT
BRANCH   1   2
HETATM    2  C   UNL     1      25.471  47.243  50.484  1.00  0.00    -0.026 A 
HETATM    3  C   UNL     1      24.237  47.694  49.985  1.00  0.00     0.010 A 
HETATM    4  C   UNL     1      24.179  48.763  49.087  1.00  0.00     0.001 A 
HETATM    5  C   UNL     1      25.349  49.389  48.666  1.00  0.00     0.000 A 
HETATM    6  C   UNL     1      26.581  48.944  49.138  1.00  0.00     0.001 A 
HETATM    7  C   UNL     1      26.642  47.878  50.036  1.00  0.00     0.010 A 
ENDBRANCH   1   2
BRANCH   1   8
HETATM    8  N   UNL     1      26.129  44.887  50.896  1.00  0.00    -0.340 N 
HETATM    9  C   UNL     1      25.659  43.609  51.060  1.00  0.00     0.253 C 
HETATM   10  O   UNL     1      24.533  43.357  51.475  1.00  0.00    -0.268 OA
HETATM   11  H   UNL     1      27.024  45.017  50.448  1.00  0.00     0.164 HD
BRANCH   9  12
HETATM   12  C   UNL     1      26.537  42.512  50.602  1.00  0.00     0.047 A 
HETATM   13  C   UNL     1      27.389  41.791  51.464  1.00  0.00     0.027 A 
HETATM   14  C   UNL     1      28.174  40.805  50.870  1.00  0.00     0.138 A 
HETATM   15  C   UNL     1      27.686  41.745  52.859  1.00  0.00     0.033 A 
HETATM   16  N   UNL     1      28.941  40.222  51.841  1.00  0.00    -0.350 N 
HETATM   17  N   UNL     1      28.205  40.446  49.575  1.00  0.00    -0.242 NA
HETATM   18  H   UNL     1      29.597  39.475  51.660  1.00  0.00     0.166 HD
HETATM   19  C   UNL     1      28.655  40.783  53.058  1.00  0.00     0.090 A 
HETATM   20  C   UNL     1      27.339  41.141  48.806  1.00  0.00     0.120 A 
HETATM   21  C   UNL     1      26.504  42.154  49.250  1.00  0.00     0.037 A 
ENDBRANCH   9  12
ENDBRANCH   1   8
BRANCH   1  22
HETATM   22  C   UNL     1      25.955  46.531  52.899  1.00  0.00     0.245 C 
HETATM   23  N   UNL     1      26.911  45.765  53.530  1.00  0.00    -0.354 N 
HETATM   24  H   UNL     1      27.437  45.128  52.930  1.00  0.00     0.162 HD
HETATM   25  O   UNL     1      25.545  47.586  53.393  1.00  0.00    -0.271 OA
BRANCH  23  26
HETATM   26  C   UNL     1      27.611  46.311  54.667  1.00  0.00     0.168 C 
BRANCH  26  27
HETATM   27  C   UNL     1      28.768  45.449  55.059  1.00  0.00     0.000 A 
HETATM   28  S   UNL     1      29.743  45.829  56.420  1.00  0.00    -0.105 SA
HETATM   29  C   UNL     1      30.697  44.427  56.213  1.00  0.00     0.050 A 
HETATM   30  C   UNL     1      30.276  43.667  55.145  1.00  0.00     0.008 A 
HETATM   31  C   UNL     1      29.165  44.259  54.478  1.00  0.00     0.017 A 
ENDBRANCH  26  27
ENDBRANCH  23  26
ENDBRANCH   1  22
TORSDOF 6
ENDMDL
MODEL 2
REMARK VINA RESULT:      -8.8      2.279      6.311
REMARK  6 active torsions:
REMARK  status: ('A' for Active; 'I' for Inactive)
REMARK    1  A    between atoms: C_4  and  C_5 
REMARK    2  A    between atoms: C_5  and  N_6 
REMARK    3  A    between atoms: C_5  and  C_19 
REMARK       I    between atoms: N_6  and  C_7 
REMARK    4  A    between atoms: C_7  and  C_8 
REMARK       I    between atoms: C_19  and  N_20 
REMARK    5  A    between atoms: N_20  and  C_21 
REMARK    6  A    between atoms: C_21  and  C_22 
ROOT
HETATM    1  C   UNL     1      25.184  45.781  52.365  1.00  0.00     0.210 C 
ENDROOT
BRANCH   1   2
HETATM    2  C   UNL     1      26.157  46.087  53.496  1.00  0.00    -0.026 A 
HETATM    3  C   UNL     1      26.768  45.038  54.204  1.00  0.00     0.010 A 
HETATM    4  C   UNL     1      27.674  45.305  55.234  1.00  0.00     0.001 A 
HETATM    5  C   UNL     1      27.974  46.621  55.579  1.00  0.00     0.000 A 
HETATM    6  C   UNL     1      27.365  47.672  54.898  1.00  0.00     0.001 A 
HETATM    7  C   UNL     1      26.462  47.407  53.868  1.00  0.00     0.010 A 
ENDBRANCH   1   2
BRANCH   1   8
HETATM    8  N   UNL     1      25.002  46.922  51.465  1.00  0.00    -0.340 N 
HETATM    9  C   UNL     1      24.435  46.858  50.218  1.00  0.00     0.253 C 
HETATM   10  O   UNL     1      23.775  45.900  49.830  1.00  0.00    -0.268 OA
HETATM   11  H   UNL     1      25.438  47.787  51.752  1.00  0.00     0.164 HD
BRANCH   9  12
HETATM   12  C   UNL     1      24.554  48.062  49.369  1.00  0.00     0.047 A 
HETATM   13  C   UNL     1      25.771  48.738  49.149  1.00  0.00     0.027 A 
HETATM   14  C   UNL     1      25.709  49.873  48.344  1.00  0.00     0.138 A 
HETATM   15  C   UNL     1      27.146  48.579  49.501  1.00  0.00     0.033 A 
HETATM   16  N   UNL     1      26.966  50.405  48.250  1.00  0.00    -0.350 N 
HETATM   17  N   UNL     1      24.628  50.394  47.737  1.00  0.00    -0.242 NA
HETATM   18  H   UNL     1      27.181  51.236  47.718  1.00  0.00     0.166 HD
HETATM   19  C   UNL     1      27.852  49.627  48.948  1.00  0.00     0.090 A 
HETATM   20  C   UNL     1      23.501  49.682  47.950  1.00  0.00     0.120 A 
HETATM   21  C   UNL     1      23.405  48.542  48.731  1.00  0.00     0.037 A 
ENDBRANCH   9  12
ENDBRANCH   1   8
BRANCH   1  22
HETATM   22  C   UNL     1      25.404  44.372  51.745  1.00  0.00     0.245 C 
HETATM   23  N   UNL     1      26.495  44.213  50.919  1.00  0.00    -0.354 N 
HETATM   24  H   UNL     1      27.207  44.944  50.978  1.00  0.00     0.162 HD
HETATM   25  O   UNL     1      24.697  43.413  52.071  1.00  0.00    -0.271 OA
BRANCH  23  26
HETATM   26  C   UNL     1      26.958  42.881  50.614  1.00  0.00     0.168 C 
BRANCH  26  27
HETATM   27  C   UNL     1      27.846  42.352  51.694  1.00  0.00     0.000 A 
HETATM   28  S   UNL     1      29.167  43.269  52.292  1.00  0.00    -0.105 SA
HETATM   29  C   UNL     1      29.567  42.071  53.442  1.00  0.00     0.050 A 
HETATM   30  C   UNL     1      28.704  41.000  53.395  1.00  0.00     0.008 A 
HETATM   31  C   UNL     1      27.713  41.161  52.384  1.00  0.00     0.017 A 
ENDBRANCH  26  27
ENDBRANCH  23  26
ENDBRANCH   1  22
TORSDOF 6
ENDMDL
MODEL 3
REMARK VINA RESULT:      -8.6      2.816      6.140
REMARK  6 active torsions:
REMARK  status: ('A' for Active; 'I' for Inactive)
REMARK    1  A    between atoms: C_4  and  C_5 
REMARK    2  A    between atoms: C_5  and  N_6 
REMARK    3  A    between atoms: C_5  and  C_19 
REMARK       I    between atoms: N_6  and  C_7 
REMARK    4  A    between atoms: C_7  and  C_8 
REMARK       I    between atoms: C_19  and  N_20 
REMARK    5  A    between atoms: N_20  and  C_21 
REMARK    6  A    between atoms: C_21  and  C_22 
ROOT
HETATM    1  C   UNL     1      24.992  44.013  51.027  1.00  0.00     0.210 C 
ENDROOT
BRANCH   1   2
HETATM    2  C   UNL     1      25.428  42.904  50.078  1.00  0.00    -0.026 A 
HETATM    3  C   UNL     1      24.504  41.932  49.658  1.00  0.00     0.010 A 
HETATM    4  C   UNL     1      24.887  40.917  48.777  1.00  0.00     0.001 A 
HETATM    5  C   UNL     1      26.198  40.852  48.311  1.00  0.00     0.000 A 
HETATM    6  C   UNL     1      27.130  41.797  48.731  1.00  0.00     0.001 A 
HETATM    7  C   UNL     1      26.749  42.813  49.609  1.00  0.00     0.010 A 
ENDBRANCH   1   2
BRANCH   1   8
HETATM    8  N   UNL     1      26.034  44.353  51.998  1.00  0.00    -0.340 N 
HETATM    9  C   UNL     1      25.826  44.547  53.339  1.00  0.00     0.253 C 
HETATM   10  O   UNL     1      24.805  44.193  53.918  1.00  0.00    -0.268 OA
HETATM   11  H   UNL     1      26.943  44.572  51.615  1.00  0.00     0.164 HD
BRANCH   9  12
HETATM   12  C   UNL     1      26.951  45.114  54.113  1.00  0.00     0.047 A 
HETATM   13  C   UNL     1      28.111  44.383  54.442  1.00  0.00     0.027 A 
HETATM   14  C   UNL     1      29.068  45.054  55.201  1.00  0.00     0.138 A 
HETATM   15  C   UNL     1      28.649  43.086  54.187  1.00  0.00     0.033 A 
HETATM   16  N   UNL     1      30.109  44.200  55.436  1.00  0.00    -0.350 N 
HETATM   17  N   UNL     1      29.024  46.323  55.644  1.00  0.00    -0.242 NA
HETATM   18  H   UNL     1      30.930  44.453  55.967  1.00  0.00     0.166 HD
HETATM   19  C   UNL     1      29.869  42.997  54.824  1.00  0.00     0.090 A 
HETATM   20  C   UNL     1      27.911  46.985  55.264  1.00  0.00     0.120 A 
HETATM   21  C   UNL     1      26.872  46.450  54.520  1.00  0.00     0.037 A 
ENDBRANCH   9  12
ENDBRANCH   1   8
BRANCH   1  22
HETATM   22  C   UNL     1      24.245  45.168  50.301  1.00  0.00     0.245 C 
HETATM   23  N   UNL     1      24.460  46.446  50.771  1.00  0.00    -0.354 N 
HETATM   24  H   UNL     1      25.271  46.566  51.379  1.00  0.00     0.162 HD
HETATM   25  O   UNL     1      23.581  44.959  49.281  1.00  0.00    -0.271 OA
BRANCH  23  26
HETATM   26  C   UNL     1      24.101  47.569  49.939  1.00  0.00     0.168 C 
BRANCH  26  27
HETATM   27  C   UNL     1      25.314  48.292  49.449  1.00  0.00     0.000 A 
HETATM   28  S   UNL     1      25.182  49.707  48.487  1.00  0.00    -0.105 SA
HETATM   29  C   UNL     1      26.877  49.910  48.430  1.00  0.00     0.050 A 
HETATM   30  C   UNL     1      27.539  48.937  49.144  1.00  0.00     0.008 A 
HETATM   31  C   UNL     1      26.637  48.003  49.730  1.00  0.00     0.017 A 
ENDBRANCH  26  27
ENDBRANCH  23  26
ENDBRANCH   1  22
TORSDOF 6
ENDMDL
MODEL 4
REMARK VINA RESULT:      -8.6      3.101      7.413
REMARK  6 active torsions:
REMARK  status: ('A' for Active; 'I' for Inactive)
REMARK    1  A    between atoms: C_4  and  C_5 
REMARK    2  A    between atoms: C_5  and  N_6 
REMARK    3  A    between atoms: C_5  and  C_19 
REMARK       I    between atoms: N_6  and  C_7 
REMARK    4  A    between atoms: C_7  and  C_8 
REMARK       I    between atoms: C_19  and  N_20 
REMARK    5  A    between atoms: N_20  and  C_21 
REMARK    6  A    between atoms: C_21  and  C_22 
ROOT
HETATM    1  C   UNL     1      26.825  44.152  51.241  1.00  0.00     0.210 C 
ENDROOT
BRANCH   1   2
HETATM    2  C   UNL     1      27.815  43.999  52.388  1.00  0.00    -0.026 A 
HETATM    3  C   UNL     1      27.569  44.627  53.621  1.00  0.00     0.010 A 
HETATM    4  C   UNL     1      28.463  44.483  54.686  1.00  0.00     0.001 A 
HETATM    5  C   UNL     1      29.618  43.719  54.532  1.00  0.00     0.000 A 
HETATM    6  C   UNL     1      29.884  43.104  53.312  1.00  0.00     0.001 A 
HETATM    7  C   UNL     1      28.992  43.245  52.248  1.00  0.00     0.010 A 
ENDBRANCH   1   2
BRANCH   1   8
HETATM    8  N   UNL     1      26.877  45.486  50.638  1.00  0.00    -0.340 N 
HETATM    9  C   UNL     1      25.964  46.485  50.858  1.00  0.00     0.253 C 
HETATM   10  O   UNL     1      25.162  46.469  51.786  1.00  0.00    -0.268 OA
HETATM   11  H   UNL     1      27.575  45.621  49.921  1.00  0.00     0.164 HD
BRANCH   9  12
HETATM   12  C   UNL     1      26.051  47.673  49.982  1.00  0.00     0.047 A 
HETATM   13  C   UNL     1      24.928  48.277  49.383  1.00  0.00     0.027 A 
HETATM   14  C   UNL     1      25.183  49.374  48.562  1.00  0.00     0.138 A 
HETATM   15  C   UNL     1      23.510  48.111  49.390  1.00  0.00     0.033 A 
HETATM   16  N   UNL     1      23.993  49.821  48.059  1.00  0.00    -0.350 N 
HETATM   17  N   UNL     1      26.372  49.936  48.285  1.00  0.00    -0.242 NA
HETATM   18  H   UNL     1      23.913  50.611  47.433  1.00  0.00     0.166 HD
HETATM   19  C   UNL     1      22.964  49.063  48.554  1.00  0.00     0.090 A 
HETATM   20  C   UNL     1      27.405  49.341  48.919  1.00  0.00     0.120 A 
HETATM   21  C   UNL     1      27.310  48.241  49.755  1.00  0.00     0.037 A 
ENDBRANCH   9  12
ENDBRANCH   1   8
BRANCH   1  22
HETATM   22  C   UNL     1      26.791  42.912  50.303  1.00  0.00     0.245 C 
HETATM   23  N   UNL     1      26.366  41.722  50.853  1.00  0.00    -0.354 N 
HETATM   24  H   UNL     1      25.872  41.795  51.744  1.00  0.00     0.162 HD
HETATM   25  O   UNL     1      27.024  43.017  49.096  1.00  0.00    -0.271 OA
BRANCH  23  26
HETATM   26  C   UNL     1      25.968  40.646  49.978  1.00  0.00     0.168 C 
BRANCH  26  27
HETATM   27  C   UNL     1      27.067  39.647  49.809  1.00  0.00     0.000 A 
HETATM   28  S   UNL     1      26.882  38.282  48.785  1.00  0.00    -0.105 SA
HETATM   29  C   UNL     1      28.478  37.753  49.089  1.00  0.00     0.050 A 
HETATM   30  C   UNL     1      29.153  38.604  49.934  1.00  0.00     0.008 A 
HETATM   31  C   UNL     1      28.337  39.695  50.352  1.00  0.00     0.017 A 
ENDBRANCH  26  27
ENDBRANCH  23  26
ENDBRANCH   1  22
TORSDOF 6
ENDMDL
MODEL 5
REMARK VINA RESULT:      -8.6      1.383      2.545
REMARK  6 active torsions:
REMARK  status: ('A' for Active; 'I' for Inactive)
REMARK    1  A    between atoms: C_4  and  C_5 
REMARK    2  A    between atoms: C_5  and  N_6 
REMARK    3  A    between atoms: C_5  and  C_19 
REMARK       I    between atoms: N_6  and  C_7 
REMARK    4  A    between atoms: C_7  and  C_8 
REMARK       I    between atoms: C_19  and  N_20 
REMARK    5  A    between atoms: N_20  and  C_21 
REMARK    6  A    between atoms: C_21  and  C_22 
ROOT
HETATM    1  C   UNL     1      25.322  46.409  51.401  1.00  0.00     0.210 C 
ENDROOT
BRANCH   1   2
HETATM    2  C   UNL     1      25.585  47.511  50.383  1.00  0.00    -0.026 A 
HETATM    3  C   UNL     1      26.904  47.862  50.050  1.00  0.00     0.010 A 
HETATM    4  C   UNL     1      27.159  48.862  49.107  1.00  0.00     0.001 A 
HETATM    5  C   UNL     1      26.103  49.531  48.493  1.00  0.00     0.000 A 
HETATM    6  C   UNL     1      24.791  49.206  48.824  1.00  0.00     0.001 A 
HETATM    7  C   UNL     1      24.534  48.206  49.763  1.00  0.00     0.010 A 
ENDBRANCH   1   2
BRANCH   1   8
HETATM    8  N   UNL     1      25.655  45.081  50.881  1.00  0.00    -0.340 N 
HETATM    9  C   UNL     1      24.900  43.951  51.067  1.00  0.00     0.253 C 
HETATM   10  O   UNL     1      23.736  43.978  51.452  1.00  0.00    -0.268 OA
HETATM   11  H   UNL     1      26.567  44.987  50.459  1.00  0.00     0.164 HD
BRANCH   9  12
HETATM   12  C   UNL     1      25.515  42.667  50.672  1.00  0.00     0.047 A 
HETATM   13  C   UNL     1      25.027  41.866  49.620  1.00  0.00     0.027 A 
HETATM   14  C   UNL     1      25.704  40.669  49.391  1.00  0.00     0.138 A 
HETATM   15  C   UNL     1      23.999  41.932  48.632  1.00  0.00     0.033 A 
HETATM   16  N   UNL     1      25.093  40.020  48.354  1.00  0.00    -0.350 N 
HETATM   17  N   UNL     1      26.778  40.194  50.044  1.00  0.00    -0.242 NA
HETATM   18  H   UNL     1      25.400  39.126  47.998  1.00  0.00     0.166 HD
HETATM   19  C   UNL     1      24.054  40.777  47.880  1.00  0.00     0.090 A 
HETATM   20  C   UNL     1      27.226  41.021  51.012  1.00  0.00     0.120 A 
HETATM   21  C   UNL     1      26.654  42.234  51.361  1.00  0.00     0.037 A 
ENDBRANCH   9  12
ENDBRANCH   1   8
BRANCH   1  22
HETATM   22  C   UNL     1      25.794  46.787  52.835  1.00  0.00     0.245 C 
HETATM   23  N   UNL     1      26.712  45.951  53.433  1.00  0.00    -0.354 N 
HETATM   24  H   UNL     1      27.196  45.303  52.809  1.00  0.00     0.162 HD
HETATM   25  O   UNL     1      25.449  47.849  53.362  1.00  0.00    -0.271 OA
BRANCH  23  26
HETATM   26  C   UNL     1      27.451  46.425  54.578  1.00  0.00     0.168 C 
BRANCH  26  27
HETATM   27  C   UNL     1      28.546  45.476  54.948  1.00  0.00     0.000 A 
HETATM   28  S   UNL     1      28.713  43.957  54.168  1.00  0.00    -0.105 SA
HETATM   29  C   UNL     1      30.120  43.576  55.059  1.00  0.00     0.050 A 
HETATM   30  C   UNL     1      30.477  44.589  55.920  1.00  0.00     0.008 A 
HETATM   31  C   UNL     1      29.567  45.684  55.858  1.00  0.00     0.017 A 
ENDBRANCH  26  27
ENDBRANCH  23  26
ENDBRANCH   1  22
TORSDOF 6
ENDMDL
MODEL 6
REMARK VINA RESULT:      -8.5      3.037      7.501
REMARK  6 active torsions:
REMARK  status: ('A' for Active; 'I' for Inactive)
REMARK    1  A    between atoms: C_4  and  C_5 
REMARK    2  A    between atoms: C_5  and  N_6 
REMARK    3  A    between atoms: C_5  and  C_19 
REMARK       I    between atoms: N_6  and  C_7 
REMARK    4  A    between atoms: C_7  and  C_8 
REMARK       I    between atoms: C_19  and  N_20 
REMARK    5  A    between atoms: N_20  and  C_21 
REMARK    6  A    between atoms: C_21  and  C_22 
ROOT
HETATM    1  C   UNL     1      26.226  45.673  52.261  1.00  0.00     0.210 C 
ENDROOT
BRANCH   1   2
HETATM    2  C   UNL     1      26.916  46.008  53.577  1.00  0.00    -0.026 A 
HETATM    3  C   UNL     1      27.693  45.038  54.233  1.00  0.00     0.010 A 
HETATM    4  C   UNL     1      28.343  45.336  55.433  1.00  0.00     0.001 A 
HETATM    5  C   UNL     1      28.218  46.602  56.001  1.00  0.00     0.000 A 
HETATM    6  C   UNL     1      27.438  47.569  55.373  1.00  0.00     0.001 A 
HETATM    7  C   UNL     1      26.791  47.274  54.173  1.00  0.00     0.010 A 
ENDBRANCH   1   2
BRANCH   1   8
HETATM    8  N   UNL     1      26.075  46.848  51.400  1.00  0.00    -0.340 N 
HETATM    9  C   UNL     1      25.122  46.989  50.423  1.00  0.00     0.253 C 
HETATM   10  O   UNL     1      24.130  46.272  50.345  1.00  0.00    -0.268 OA
HETATM   11  H   UNL     1      26.805  47.542  51.464  1.00  0.00     0.164 HD
BRANCH   9  12
HETATM   12  C   UNL     1      25.275  48.136  49.504  1.00  0.00     0.047 A 
HETATM   13  C   UNL     1      24.184  48.820  48.930  1.00  0.00     0.027 A 
HETATM   14  C   UNL     1      24.498  49.864  48.062  1.00  0.00     0.138 A 
HETATM   15  C   UNL     1      22.759  48.782  49.001  1.00  0.00     0.033 A 
HETATM   16  N   UNL     1      23.332  50.401  47.593  1.00  0.00    -0.350 N 
HETATM   17  N   UNL     1      25.719  50.309  47.718  1.00  0.00    -0.242 NA
HETATM   18  H   UNL     1      23.295  51.175  46.945  1.00  0.00     0.166 HD
HETATM   19  C   UNL     1      22.263  49.753  48.156  1.00  0.00     0.090 A 
HETATM   20  C   UNL     1      26.723  49.644  48.329  1.00  0.00     0.120 A 
HETATM   21  C   UNL     1      26.568  48.583  49.206  1.00  0.00     0.037 A 
ENDBRANCH   9  12
ENDBRANCH   1   8
BRANCH   1  22
HETATM   22  C   UNL     1      26.742  44.348  51.630  1.00  0.00     0.245 C 
HETATM   23  N   UNL     1      25.970  43.222  51.818  1.00  0.00    -0.354 N 
HETATM   24  H   UNL     1      25.012  43.387  52.130  1.00  0.00     0.162 HD
HETATM   25  O   UNL     1      27.737  44.334  50.898  1.00  0.00    -0.271 OA
BRANCH  23  26
HETATM   26  C   UNL     1      26.189  42.072  50.974  1.00  0.00     0.168 C 
BRANCH  26  27
HETATM   27  C   UNL     1      25.062  41.881  50.011  1.00  0.00     0.000 A 
HETATM   28  S   UNL     1      23.613  42.792  50.142  1.00  0.00    -0.105 SA
HETATM   29  C   UNL     1      22.951  42.068  48.743  1.00  0.00     0.050 A 
HETATM   30  C   UNL     1      23.817  41.166  48.168  1.00  0.00     0.008 A 
HETATM   31  C   UNL     1      25.033  41.056  48.902  1.00  0.00     0.017 A 
ENDBRANCH  26  27
ENDBRANCH  23  26
ENDBRANCH   1  22
TORSDOF 6
ENDMDL
MODEL 7
REMARK VINA RESULT:      -8.4      2.718      6.985
REMARK  6 active torsions:
REMARK  status: ('A' for Active; 'I' for Inactive)
REMARK    1  A    between atoms: C_4  and  C_5 
REMARK    2  A    between atoms: C_5  and  N_6 
REMARK    3  A    between atoms: C_5  and  C_19 
REMARK       I    between atoms: N_6  and  C_7 
REMARK    4  A    between atoms: C_7  and  C_8 
REMARK       I    between atoms: C_19  and  N_20 
REMARK    5  A    between atoms: N_20  and  C_21 
REMARK    6  A    between atoms: C_21  and  C_22 
ROOT
HETATM    1  C   UNL     1      27.397  43.135  53.563  1.00  0.00     0.210 C 
ENDROOT
BRANCH   1   2
HETATM    2  C   UNL     1      28.532  43.701  54.406  1.00  0.00    -0.026 A 
HETATM    3  C   UNL     1      28.401  44.964  55.007  1.00  0.00     0.010 A 
HETATM    4  C   UNL     1      29.430  45.489  55.794  1.00  0.00     0.001 A 
HETATM    5  C   UNL     1      30.605  44.766  55.983  1.00  0.00     0.000 A 
HETATM    6  C   UNL     1      30.757  43.520  55.380  1.00  0.00     0.001 A 
HETATM    7  C   UNL     1      29.730  42.993  54.596  1.00  0.00     0.010 A 
ENDBRANCH   1   2
BRANCH   1   8
HETATM    8  N   UNL     1      26.788  44.148  52.699  1.00  0.00    -0.340 N 
HETATM    9  C   UNL     1      25.459  44.486  52.697  1.00  0.00     0.253 C 
HETATM   10  O   UNL     1      24.687  44.175  53.598  1.00  0.00    -0.268 OA
HETATM   11  H   UNL     1      27.383  44.532  51.978  1.00  0.00     0.164 HD
BRANCH   9  12
HETATM   12  C   UNL     1      24.993  45.356  51.597  1.00  0.00     0.047 A 
HETATM   13  C   UNL     1      24.120  44.919  50.580  1.00  0.00     0.027 A 
HETATM   14  C   UNL     1      23.798  45.855  49.600  1.00  0.00     0.138 A 
HETATM   15  C   UNL     1      23.394  43.736  50.248  1.00  0.00     0.033 A 
HETATM   16  N   UNL     1      22.961  45.262  48.695  1.00  0.00    -0.350 N 
HETATM   17  N   UNL     1      24.208  47.133  49.516  1.00  0.00    -0.242 NA
HETATM   18  H   UNL     1      22.586  45.738  47.887  1.00  0.00     0.166 HD
HETATM   19  C   UNL     1      22.705  43.972  49.077  1.00  0.00     0.090 A 
HETATM   20  C   UNL     1      25.008  47.507  50.537  1.00  0.00     0.120 A 
HETATM   21  C   UNL     1      25.421  46.688  51.576  1.00  0.00     0.037 A 
ENDBRANCH   9  12
ENDBRANCH   1   8
BRANCH   1  22
HETATM   22  C   UNL     1      27.733  41.743  52.954  1.00  0.00     0.245 C 
HETATM   23  N   UNL     1      27.787  41.656  51.580  1.00  0.00    -0.354 N 
HETATM   24  H   UNL     1      27.855  42.544  51.081  1.00  0.00     0.162 HD
HETATM   25  O   UNL     1      28.049  40.790  53.674  1.00  0.00    -0.271 OA
BRANCH  23  26
HETATM   26  C   UNL     1      28.437  40.520  50.973  1.00  0.00     0.168 C 
BRANCH  26  27
HETATM   27  C   UNL     1      27.965  40.307  49.571  1.00  0.00     0.000 A 
HETATM   28  S   UNL     1      26.294  40.174  49.203  1.00  0.00    -0.105 SA
HETATM   29  C   UNL     1      26.604  40.030  47.529  1.00  0.00     0.050 A 
HETATM   30  C   UNL     1      27.949  40.104  47.244  1.00  0.00     0.008 A 
HETATM   31  C   UNL     1      28.733  40.260  48.423  1.00  0.00     0.017 A 
ENDBRANCH  26  27
ENDBRANCH  23  26
ENDBRANCH   1  22
TORSDOF 6
ENDMDL
MODEL 8
REMARK VINA RESULT:      -8.3      2.350      6.205
REMARK  6 active torsions:
REMARK  status: ('A' for Active; 'I' for Inactive)
REMARK    1  A    between atoms: C_4  and  C_5 
REMARK    2  A    between atoms: C_5  and  N_6 
REMARK    3  A    between atoms: C_5  and  C_19 
REMARK       I    between atoms: N_6  and  C_7 
REMARK    4  A    between atoms: C_7  and  C_8 
REMARK       I    between atoms: C_19  and  N_20 
REMARK    5  A    between atoms: N_20  and  C_21 
REMARK    6  A    between atoms: C_21  and  C_22 
ROOT
HETATM    1  C   UNL     1      26.038  44.551  50.538  1.00  0.00     0.210 C 
ENDROOT
BRANCH   1   2
HETATM    2  C   UNL     1      24.979  43.645  49.924  1.00  0.00    -0.026 A 
HETATM    3  C   UNL     1      25.272  42.296  49.660  1.00  0.00     0.010 A 
HETATM    4  C   UNL     1      24.305  41.450  49.110  1.00  0.00     0.001 A 
HETATM    5  C   UNL     1      23.037  41.941  48.807  1.00  0.00     0.000 A 
HETATM    6  C   UNL     1      22.736  43.279  49.047  1.00  0.00     0.001 A 
HETATM    7  C   UNL     1      23.699  44.124  49.598  1.00  0.00     0.010 A 
ENDBRANCH   1   2
BRANCH   1   8
HETATM    8  N   UNL     1      26.113  45.850  49.867  1.00  0.00    -0.340 N 
HETATM    9  C   UNL     1      25.686  47.038  50.403  1.00  0.00     0.253 C 
HETATM   10  O   UNL     1      25.448  47.188  51.596  1.00  0.00    -0.268 OA
HETATM   11  H   UNL     1      26.393  45.833  48.897  1.00  0.00     0.164 HD
BRANCH   9  12
HETATM   12  C   UNL     1      25.626  48.198  49.489  1.00  0.00     0.047 A 
HETATM   13  C   UNL     1      24.420  48.722  48.980  1.00  0.00     0.027 A 
HETATM   14  C   UNL     1      24.537  49.802  48.108  1.00  0.00     0.138 A 
HETATM   15  C   UNL     1      23.020  48.481  49.125  1.00  0.00     0.033 A 
HETATM   16  N   UNL     1      23.282  50.169  47.705  1.00  0.00    -0.350 N 
HETATM   17  N   UNL     1      25.662  50.417  47.705  1.00  0.00    -0.242 NA
HETATM   18  H   UNL     1      23.102  50.932  47.068  1.00  0.00     0.166 HD
HETATM   19  C   UNL     1      22.348  49.374  48.317  1.00  0.00     0.090 A 
HETATM   20  C   UNL     1      26.781  49.900  48.256  1.00  0.00     0.120 A 
HETATM   21  C   UNL     1      26.825  48.825  49.129  1.00  0.00     0.037 A 
ENDBRANCH   9  12
ENDBRANCH   1   8
BRANCH   1  22
HETATM   22  C   UNL     1      26.034  44.515  52.093  1.00  0.00     0.245 C 
HETATM   23  N   UNL     1      27.237  44.739  52.728  1.00  0.00    -0.354 N 
HETATM   24  H   UNL     1      27.972  45.156  52.155  1.00  0.00     0.162 HD
HETATM   25  O   UNL     1      24.980  44.406  52.728  1.00  0.00    -0.271 OA
BRANCH  23  26
HETATM   26  C   UNL     1      27.238  45.078  54.131  1.00  0.00     0.168 C 
BRANCH  26  27
HETATM   27  C   UNL     1      28.562  44.785  54.760  1.00  0.00     0.000 A 
HETATM   28  S   UNL     1      29.262  45.856  55.904  1.00  0.00    -0.105 SA
HETATM   29  C   UNL     1      30.606  44.828  56.146  1.00  0.00     0.050 A 
HETATM   30  C   UNL     1      30.520  43.679  55.392  1.00  0.00     0.008 A 
HETATM   31  C   UNL     1      29.343  43.657  54.590  1.00  0.00     0.017 A 
ENDBRANCH  26  27
ENDBRANCH  23  26
ENDBRANCH   1  22
TORSDOF 6
ENDMDL
MODEL 9
REMARK VINA RESULT:      -8.1      3.224      6.830
REMARK  6 active torsions:
REMARK  status: ('A' for Active; 'I' for Inactive)
REMARK    1  A    between atoms: C_4  and  C_5 
REMARK    2  A    between atoms: C_5  and  N_6 
REMARK    3  A    between atoms: C_5  and  C_19 
REMARK       I    between atoms: N_6  and  C_7 
REMARK    4  A    between atoms: C_7  and  C_8 
REMARK       I    between atoms: C_19  and  N_20 
REMARK    5  A    between atoms: N_20  and  C_21 
REMARK    6  A    between atoms: C_21  and  C_22 
ROOT
HETATM    1  C   UNL     1      27.992  43.245  51.529  1.00  0.00     0.210 C 
ENDROOT
BRANCH   1   2
HETATM    2  C   UNL     1      26.775  44.036  51.068  1.00  0.00    -0.026 A 
HETATM    3  C   UNL     1      26.414  44.047  49.710  1.00  0.00     0.010 A 
HETATM    4  C   UNL     1      25.291  44.757  49.276  1.00  0.00     0.001 A 
HETATM    5  C   UNL     1      24.520  45.473  50.188  1.00  0.00     0.000 A 
HETATM    6  C   UNL     1      24.874  45.486  51.535  1.00  0.00     0.001 A 
HETATM    7  C   UNL     1      25.993  44.776  51.971  1.00  0.00     0.010 A 
ENDBRANCH   1   2
BRANCH   1   8
HETATM    8  N   UNL     1      28.581  43.795  52.751  1.00  0.00    -0.340 N 
HETATM    9  C   UNL     1      29.640  43.248  53.430  1.00  0.00     0.253 C 
HETATM   10  O   UNL     1      30.380  42.398  52.946  1.00  0.00    -0.268 OA
HETATM   11  H   UNL     1      28.085  44.566  53.175  1.00  0.00     0.164 HD
BRANCH   9  12
HETATM   12  C   UNL     1      29.939  43.810  54.764  1.00  0.00     0.047 A 
HETATM   13  C   UNL     1      29.251  44.911  55.312  1.00  0.00     0.027 A 
HETATM   14  C   UNL     1      29.673  45.337  56.571  1.00  0.00     0.138 A 
HETATM   15  C   UNL     1      28.159  45.758  54.956  1.00  0.00     0.033 A 
HETATM   16  N   UNL     1      28.913  46.412  56.939  1.00  0.00    -0.350 N 
HETATM   17  N   UNL     1      30.648  44.812  57.333  1.00  0.00    -0.242 NA
HETATM   18  H   UNL     1      29.027  46.901  57.816  1.00  0.00     0.166 HD
HETATM   19  C   UNL     1      27.986  46.680  55.967  1.00  0.00     0.090 A 
HETATM   20  C   UNL     1      31.242  43.735  56.775  1.00  0.00     0.120 A 
HETATM   21  C   UNL     1      30.939  43.204  55.532  1.00  0.00     0.037 A 
ENDBRANCH   9  12
ENDBRANCH   1   8
BRANCH   1  22
HETATM   22  C   UNL     1      27.785  41.706  51.430  1.00  0.00     0.245 C 
HETATM   23  N   UNL     1      28.712  40.994  50.701  1.00  0.00    -0.354 N 
HETATM   24  H   UNL     1      29.587  41.480  50.499  1.00  0.00     0.162 HD
HETATM   25  O   UNL     1      26.895  41.139  52.071  1.00  0.00    -0.271 OA
BRANCH  23  26
HETATM   26  C   UNL     1      28.789  39.563  50.869  1.00  0.00     0.168 C 
BRANCH  26  27
HETATM   27  C   UNL     1      28.527  38.849  49.582  1.00  0.00     0.000 A 
HETATM   28  S   UNL     1      26.970  38.855  48.860  1.00  0.00    -0.105 SA
HETATM   29  C   UNL     1      27.515  37.952  47.516  1.00  0.00     0.050 A 
HETATM   30  C   UNL     1      28.859  37.666  47.595  1.00  0.00     0.008 A 
HETATM   31  C   UNL     1      29.441  38.181  48.789  1.00  0.00     0.017 A 
ENDBRANCH  26  27
ENDBRANCH  23  26
ENDBRANCH   1  22
TORSDOF 6
ENDMDL
MODEL 10
REMARK VINA RESULT:      -8.0      2.300      3.703
REMARK  6 active torsions:
REMARK  status: ('A' for Active; 'I' for Inactive)
REMARK    1  A    between atoms: C_4  and  C_5 
REMARK    2  A    between atoms: C_5  and  N_6 
REMARK    3  A    between atoms: C_5  and  C_19 
REMARK       I    between atoms: N_6  and  C_7 
REMARK    4  A    between atoms: C_7  and  C_8 
REMARK       I    between atoms: C_19  and  N_20 
REMARK    5  A    between atoms: N_20  and  C_21 
REMARK    6  A    between atoms: C_21  and  C_22 
ROOT
HETATM    1  C   UNL     1      26.935  42.831  52.408  1.00  0.00     0.210 C 
ENDROOT
BRANCH   1   2
HETATM    2  C   UNL     1      26.428  43.893  51.441  1.00  0.00    -0.026 A 
HETATM    3  C   UNL     1      27.301  44.463  50.499  1.00  0.00     0.010 A 
HETATM    4  C   UNL     1      26.845  45.428  49.597  1.00  0.00     0.001 A 
HETATM    5  C   UNL     1      25.517  45.845  49.630  1.00  0.00     0.000 A 
HETATM    6  C   UNL     1      24.643  45.303  50.568  1.00  0.00     0.001 A 
HETATM    7  C   UNL     1      25.096  44.337  51.468  1.00  0.00     0.010 A 
ENDBRANCH   1   2
BRANCH   1   8
HETATM    8  N   UNL     1      27.763  41.823  51.741  1.00  0.00    -0.340 N 
HETATM    9  C   UNL     1      27.282  40.731  51.067  1.00  0.00     0.253 C 
HETATM   10  O   UNL     1      26.112  40.621  50.715  1.00  0.00    -0.268 OA
HETATM   11  H   UNL     1      28.758  41.891  51.901  1.00  0.00     0.164 HD
BRANCH   9  12
HETATM   12  C   UNL     1      28.270  39.706  50.667  1.00  0.00     0.047 A 
HETATM   13  C   UNL     1      28.319  39.140  49.377  1.00  0.00     0.027 A 
HETATM   14  C   UNL     1      29.293  38.166  49.168  1.00  0.00     0.138 A 
HETATM   15  C   UNL     1      27.646  39.298  48.128  1.00  0.00     0.033 A 
HETATM   16  N   UNL     1      29.189  37.721  47.879  1.00  0.00    -0.350 N 
HETATM   17  N   UNL     1      30.205  37.712  50.046  1.00  0.00    -0.242 NA
HETATM   18  H   UNL     1      29.789  37.010  47.485  1.00  0.00     0.166 HD
HETATM   19  C   UNL     1      28.191  38.401  47.233  1.00  0.00     0.090 A 
HETATM   20  C   UNL     1      30.136  38.320  51.250  1.00  0.00     0.120 A 
HETATM   21  C   UNL     1      29.220  39.295  51.608  1.00  0.00     0.037 A 
ENDBRANCH   9  12
ENDBRANCH   1   8
BRANCH   1  22
HETATM   22  C   UNL     1      27.431  43.429  53.756  1.00  0.00     0.245 C 
HETATM   23  N   UNL     1      28.508  44.287  53.701  1.00  0.00    -0.354 N 
HETATM   24  H   UNL     1      28.734  44.660  52.778  1.00  0.00     0.162 HD
HETATM   25  O   UNL     1      26.815  43.232  54.808  1.00  0.00    -0.271 OA
BRANCH  23  26
HETATM   26  C   UNL     1      28.781  45.143  54.831  1.00  0.00     0.168 C 
BRANCH  26  27
HETATM   27  C   UNL     1      29.868  44.580  55.689  1.00  0.00     0.000 A 
HETATM   28  S   UNL     1      30.342  45.351  57.148  1.00  0.00    -0.105 SA
HETATM   29  C   UNL     1      31.482  44.128  57.503  1.00  0.00     0.050 A 
HETATM   30  C   UNL     1      31.494  43.138  56.547  1.00  0.00     0.008 A 
HETATM   31  C   UNL     1      30.564  43.401  55.500  1.00  0.00     0.017 A 
ENDBRANCH  26  27
ENDBRANCH  23  26
ENDBRANCH   1  22
TORSDOF 6
ENDMDL
