MODEL 1
REMARK VINA RESULT:      -8.2      0.000      0.000
REMARK  5 active torsions:
REMARK  status: ('A' for Active; 'I' for Inactive)
REMARK    1  A    between atoms: C_3  and  O_4 
REMARK    2  A    between atoms: C_5  and  C_6 
REMARK       I    between atoms: C_6  and  N_7 
REMARK    3  A    between atoms: N_7  and  C_8 
REMARK    4  A    between atoms: C_8  and  C_9 
REMARK    5  A    between atoms: C_9  and  C_10 
ROOT
HETATM    1  C   UNL     1      26.572  46.378  53.974  1.00  0.00     0.254 C 
HETATM    2  N   UNL     1      26.493  46.331  52.602  1.00  0.00    -0.356 N 
HETATM    3  O   UNL     1      25.681  46.862  54.666  1.00  0.00    -0.268 OA
HETATM    4  H   UNL     1      27.336  46.048  52.105  1.00  0.00     0.162 HD
ENDROOT
BRANCH   2   5
HETATM    5  C   UNL     1      25.399  46.935  51.870  1.00  0.00     0.136 C 
BRANCH   5   6
HETATM    6  C   UNL     1      25.463  46.677  50.336  1.00  0.00    -0.004 C 
HETATM    7  C   UNL     1      26.444  45.506  50.086  1.00  0.00     0.021 C 
HETATM    8  C   UNL     1      24.069  46.203  49.863  1.00  0.00     0.021 C 
BRANCH   6   9
HETATM    9  C   UNL     1      25.831  47.964  49.573  1.00  0.00    -0.046 A 
HETATM   10  C   UNL     1      24.877  48.772  48.940  1.00  0.00     0.027 A 
HETATM   11  C   UNL     1      25.290  49.912  48.260  1.00  0.00     0.116 A 
HETATM   12  N   UNL     1      26.574  50.307  48.158  1.00  0.00    -0.273 NA
HETATM   13  C   UNL     1      27.486  49.533  48.778  1.00  0.00     0.116 A 
HETATM   14  C   UNL     1      27.170  48.380  49.483  1.00  0.00     0.027 A 
ENDBRANCH   6   9
ENDBRANCH   5   6
ENDBRANCH   2   5
BRANCH   1  15
HETATM   15  C   UNL     1      27.802  45.797  54.606  1.00  0.00     0.065 A 
HETATM   16  C   UNL     1      28.481  44.654  54.138  1.00  0.00     0.087 A 
HETATM   17  C   UNL     1      29.594  44.141  54.832  1.00  0.00    -0.028 A 
HETATM   18  C   UNL     1      30.315  42.894  54.399  1.00  0.00     0.051 C 
HETATM   19  C   UNL     1      30.061  44.828  55.962  1.00  0.00     0.009 A 
HETATM   20  C   UNL     1      29.420  45.979  56.413  1.00  0.00     0.002 A 
HETATM   21  C   UNL     1      28.293  46.454  55.744  1.00  0.00     0.020 A 
BRANCH  16  22
HETATM   22  O   UNL     1      28.053  44.035  52.989  1.00  0.00    -0.359 OA
HETATM   23  H   UNL     1      28.130  43.072  53.105  1.00  0.00     0.218 HD
ENDBRANCH  16  22
ENDBRANCH   1  15
TORSDOF 5
ENDMDL
MODEL 2
REMARK VINA RESULT:      -8.1      2.240      7.332
REMARK  5 active torsions:
REMARK  status: ('A' for Active; 'I' for Inactive)
REMARK    1  A    between atoms: C_3  and  O_4 
REMARK    2  A    between atoms: C_5  and  C_6 
REMARK       I    between atoms: C_6  and  N_7 
REMARK    3  A    between atoms: N_7  and  C_8 
REMARK    4  A    between atoms: C_8  and  C_9 
REMARK    5  A    between atoms: C_9  and  C_10 
ROOT
HETATM    1  C   UNL     1      25.298  46.418  50.654  1.00  0.00     0.254 C 
HETATM    2  N   UNL     1      26.309  46.161  51.548  1.00  0.00    -0.356 N 
HETATM    3  O   UNL     1      24.327  45.676  50.530  1.00  0.00    -0.268 OA
HETATM    4  H   UNL     1      27.139  46.747  51.481  1.00  0.00     0.162 HD
ENDROOT
BRANCH   2   5
HETATM    5  C   UNL     1      26.352  44.948  52.339  1.00  0.00     0.136 C 
BRANCH   5   6
HETATM    6  C   UNL     1      26.372  45.209  53.874  1.00  0.00    -0.004 C 
HETATM    7  C   UNL     1      25.954  46.679  54.117  1.00  0.00     0.021 C 
HETATM    8  C   UNL     1      25.294  44.320  54.534  1.00  0.00     0.021 C 
BRANCH   6   9
HETATM    9  C   UNL     1      27.744  44.849  54.477  1.00  0.00    -0.046 A 
HETATM   10  C   UNL     1      28.435  45.696  55.354  1.00  0.00     0.027 A 
HETATM   11  C   UNL     1      29.675  45.307  55.845  1.00  0.00     0.116 A 
HETATM   12  N   UNL     1      30.281  44.146  55.531  1.00  0.00    -0.273 NA
HETATM   13  C   UNL     1      29.608  43.329  54.697  1.00  0.00     0.116 A 
HETATM   14  C   UNL     1      28.365  43.630  54.158  1.00  0.00     0.027 A 
ENDBRANCH   6   9
ENDBRANCH   5   6
ENDBRANCH   2   5
BRANCH   1  15
HETATM   15  C   UNL     1      25.419  47.665  49.829  1.00  0.00     0.065 A 
HETATM   16  C   UNL     1      24.328  48.421  49.354  1.00  0.00     0.087 A 
HETATM   17  C   UNL     1      24.533  49.545  48.531  1.00  0.00    -0.028 A 
HETATM   18  C   UNL     1      23.398  50.350  47.960  1.00  0.00     0.051 C 
HETATM   19  C   UNL     1      25.848  49.944  48.246  1.00  0.00     0.009 A 
HETATM   20  C   UNL     1      26.934  49.224  48.739  1.00  0.00     0.002 A 
HETATM   21  C   UNL     1      26.720  48.088  49.517  1.00  0.00     0.020 A 
BRANCH  16  22
HETATM   22  O   UNL     1      23.050  48.059  49.702  1.00  0.00    -0.359 OA
HETATM   23  H   UNL     1      22.530  47.927  48.890  1.00  0.00     0.218 HD
ENDBRANCH  16  22
ENDBRANCH   1  15
TORSDOF 5
ENDMDL
MODEL 3
REMARK VINA RESULT:      -8.0      1.622      2.531
REMARK  5 active torsions:
REMARK  status: ('A' for Active; 'I' for Inactive)
REMARK    1  A    between atoms: C_3  and  O_4 
REMARK    2  A    between atoms: C_5  and  C_6 
REMARK       I    between atoms: C_6  and  N_7 
REMARK    3  A    between atoms: N_7  and  C_8 
REMARK    4  A    between atoms: C_8  and  C_9 
REMARK    5  A    between atoms: C_9  and  C_10 
ROOT
HETATM    1  C   UNL     1      27.918  45.965  54.520  1.00  0.00     0.254 C 
HETATM    2  N   UNL     1      27.068  45.446  53.573  1.00  0.00    -0.356 N 
HETATM    3  O   UNL     1      27.820  47.119  54.929  1.00  0.00    -0.268 OA
HETATM    4  H   UNL     1      27.313  44.535  53.189  1.00  0.00     0.162 HD
ENDROOT
BRANCH   2   5
HETATM    5  C   UNL     1      26.057  46.251  52.918  1.00  0.00     0.136 C 
BRANCH   5   6
HETATM    6  C   UNL     1      25.755  45.799  51.459  1.00  0.00    -0.004 C 
HETATM    7  C   UNL     1      26.903  44.869  50.996  1.00  0.00     0.021 C 
HETATM    8  C   UNL     1      24.464  44.948  51.469  1.00  0.00     0.021 C 
BRANCH   6   9
HETATM    9  C   UNL     1      25.536  47.015  50.538  1.00  0.00    -0.046 A 
HETATM   10  C   UNL     1      26.589  47.800  50.051  1.00  0.00     0.027 A 
HETATM   11  C   UNL     1      26.309  48.890  49.236  1.00  0.00     0.116 A 
HETATM   12  N   UNL     1      25.066  49.262  48.872  1.00  0.00    -0.273 NA
HETATM   13  C   UNL     1      24.057  48.497  49.334  1.00  0.00     0.116 A 
HETATM   14  C   UNL     1      24.239  47.389  50.149  1.00  0.00     0.027 A 
ENDBRANCH   6   9
ENDBRANCH   5   6
ENDBRANCH   2   5
BRANCH   1  15
HETATM   15  C   UNL     1      28.982  45.052  55.054  1.00  0.00     0.065 A 
HETATM   16  C   UNL     1      29.643  45.226  56.287  1.00  0.00     0.087 A 
HETATM   17  C   UNL     1      30.676  44.354  56.681  1.00  0.00    -0.028 A 
HETATM   18  C   UNL     1      31.444  44.532  57.962  1.00  0.00     0.051 C 
HETATM   19  C   UNL     1      30.991  43.263  55.856  1.00  0.00     0.009 A 
HETATM   20  C   UNL     1      30.320  43.061  54.653  1.00  0.00     0.002 A 
HETATM   21  C   UNL     1      29.329  43.955  54.251  1.00  0.00     0.020 A 
BRANCH  16  22
HETATM   22  O   UNL     1      29.273  46.257  57.115  1.00  0.00    -0.359 OA
HETATM   23  H   UNL     1      28.935  45.884  57.948  1.00  0.00     0.218 HD
ENDBRANCH  16  22
ENDBRANCH   1  15
TORSDOF 5
ENDMDL
MODEL 4
REMARK VINA RESULT:      -7.6      2.503      7.249
REMARK  5 active torsions:
REMARK  status: ('A' for Active; 'I' for Inactive)
REMARK    1  A    between atoms: C_3  and  O_4 
REMARK    2  A    between atoms: C_5  and  C_6 
REMARK       I    between atoms: C_6  and  N_7 
REMARK    3  A    between atoms: N_7  and  C_8 
REMARK    4  A    between atoms: C_8  and  C_9 
REMARK    5  A    between atoms: C_9  and  C_10 
ROOT
HETATM    1  C   UNL     1      25.561  44.892  52.777  1.00  0.00     0.254 C 
HETATM    2  N   UNL     1      26.370  43.786  52.665  1.00  0.00    -0.356 N 
HETATM    3  O   UNL     1      25.398  45.480  53.842  1.00  0.00    -0.268 OA
HETATM    4  H   UNL     1      26.331  43.278  51.784  1.00  0.00     0.162 HD
ENDROOT
BRANCH   2   5
HETATM    5  C   UNL     1      27.011  43.178  53.813  1.00  0.00     0.136 C 
BRANCH   5   6
HETATM    6  C   UNL     1      28.547  42.992  53.638  1.00  0.00    -0.004 C 
HETATM    7  C   UNL     1      28.850  41.474  53.647  1.00  0.00     0.021 C 
HETATM    8  C   UNL     1      28.947  43.522  52.242  1.00  0.00     0.021 C 
BRANCH   6   9
HETATM    9  C   UNL     1      29.325  43.784  54.707  1.00  0.00    -0.046 A 
HETATM   10  C   UNL     1      30.490  43.297  55.316  1.00  0.00     0.027 A 
HETATM   11  C   UNL     1      31.128  44.066  56.282  1.00  0.00     0.116 A 
HETATM   12  N   UNL     1      30.696  45.275  56.692  1.00  0.00    -0.273 NA
HETATM   13  C   UNL     1      29.583  45.743  56.095  1.00  0.00     0.116 A 
HETATM   14  C   UNL     1      28.880  45.050  55.119  1.00  0.00     0.027 A 
ENDBRANCH   6   9
ENDBRANCH   5   6
ENDBRANCH   2   5
BRANCH   1  15
HETATM   15  C   UNL     1      24.881  45.368  51.527  1.00  0.00     0.065 A 
HETATM   16  C   UNL     1      24.922  46.692  51.047  1.00  0.00     0.087 A 
HETATM   17  C   UNL     1      24.201  47.065  49.897  1.00  0.00    -0.028 A 
HETATM   18  C   UNL     1      24.174  48.477  49.378  1.00  0.00     0.051 C 
HETATM   19  C   UNL     1      23.494  46.078  49.193  1.00  0.00     0.009 A 
HETATM   20  C   UNL     1      23.475  44.759  49.639  1.00  0.00     0.002 A 
HETATM   21  C   UNL     1      24.157  44.409  50.803  1.00  0.00     0.020 A 
BRANCH  16  22
HETATM   22  O   UNL     1      25.679  47.629  51.707  1.00  0.00    -0.359 OA
HETATM   23  H   UNL     1      26.255  48.077  51.064  1.00  0.00     0.218 HD
ENDBRANCH  16  22
ENDBRANCH   1  15
TORSDOF 5
ENDMDL
MODEL 5
REMARK VINA RESULT:      -7.5      1.562      2.211
REMARK  5 active torsions:
REMARK  status: ('A' for Active; 'I' for Inactive)
REMARK    1  A    between atoms: C_3  and  O_4 
REMARK    2  A    between atoms: C_5  and  C_6 
REMARK       I    between atoms: C_6  and  N_7 
REMARK    3  A    between atoms: N_7  and  C_8 
REMARK    4  A    between atoms: C_8  and  C_9 
REMARK    5  A    between atoms: C_9  and  C_10 
ROOT
HETATM    1  C   UNL     1      27.235  44.109  53.451  1.00  0.00     0.254 C 
HETATM    2  N   UNL     1      26.586  45.084  52.732  1.00  0.00    -0.356 N 
HETATM    3  O   UNL     1      26.982  42.915  53.314  1.00  0.00    -0.268 OA
HETATM    4  H   UNL     1      26.754  46.048  53.014  1.00  0.00     0.162 HD
ENDROOT
BRANCH   2   5
HETATM    5  C   UNL     1      25.492  44.782  51.832  1.00  0.00     0.136 C 
BRANCH   5   6
HETATM    6  C   UNL     1      25.836  45.031  50.334  1.00  0.00    -0.004 C 
HETATM    7  C   UNL     1      27.317  44.640  50.109  1.00  0.00     0.021 C 
HETATM    8  C   UNL     1      24.983  44.072  49.472  1.00  0.00     0.021 C 
BRANCH   6   9
HETATM    9  C   UNL     1      25.511  46.481  49.925  1.00  0.00    -0.046 A 
HETATM   10  C   UNL     1      26.501  47.436  49.659  1.00  0.00     0.027 A 
HETATM   11  C   UNL     1      26.127  48.728  49.310  1.00  0.00     0.116 A 
HETATM   12  N   UNL     1      24.849  49.144  49.209  1.00  0.00    -0.273 NA
HETATM   13  C   UNL     1      23.901  48.219  49.455  1.00  0.00     0.116 A 
HETATM   14  C   UNL     1      24.177  46.905  49.807  1.00  0.00     0.027 A 
ENDBRANCH   6   9
ENDBRANCH   5   6
ENDBRANCH   2   5
BRANCH   1  15
HETATM   15  C   UNL     1      28.288  44.562  54.419  1.00  0.00     0.065 A 
HETATM   16  C   UNL     1      29.369  43.770  54.855  1.00  0.00     0.087 A 
HETATM   17  C   UNL     1      30.277  44.256  55.816  1.00  0.00    -0.028 A 
HETATM   18  C   UNL     1      31.414  43.428  56.349  1.00  0.00     0.051 C 
HETATM   19  C   UNL     1      30.128  45.571  56.283  1.00  0.00     0.009 A 
HETATM   20  C   UNL     1      29.084  46.374  55.832  1.00  0.00     0.002 A 
HETATM   21  C   UNL     1      28.165  45.869  54.913  1.00  0.00     0.020 A 
BRANCH  16  22
HETATM   22  O   UNL     1      29.541  42.511  54.334  1.00  0.00    -0.359 OA
HETATM   23  H   UNL     1      28.743  42.268  53.834  1.00  0.00     0.218 HD
ENDBRANCH  16  22
ENDBRANCH   1  15
TORSDOF 5
ENDMDL
MODEL 6
REMARK VINA RESULT:      -7.5      1.901      2.837
REMARK  5 active torsions:
REMARK  status: ('A' for Active; 'I' for Inactive)
REMARK    1  A    between atoms: C_3  and  O_4 
REMARK    2  A    between atoms: C_5  and  C_6 
REMARK       I    between atoms: C_6  and  N_7 
REMARK    3  A    between atoms: N_7  and  C_8 
REMARK    4  A    between atoms: C_8  and  C_9 
REMARK    5  A    between atoms: C_9  and  C_10 
ROOT
HETATM    1  C   UNL     1      26.268  44.028  53.162  1.00  0.00     0.254 C 
HETATM    2  N   UNL     1      26.074  43.185  52.094  1.00  0.00    -0.356 N 
HETATM    3  O   UNL     1      25.414  44.832  53.526  1.00  0.00    -0.268 OA
HETATM    4  H   UNL     1      26.885  42.658  51.774  1.00  0.00     0.162 HD
ENDROOT
BRANCH   2   5
HETATM    5  C   UNL     1      24.889  43.248  51.264  1.00  0.00     0.136 C 
BRANCH   5   6
HETATM    6  C   UNL     1      25.162  43.807  49.836  1.00  0.00    -0.004 C 
HETATM    7  C   UNL     1      26.448  43.135  49.296  1.00  0.00     0.021 C 
HETATM    8  C   UNL     1      24.004  43.368  48.911  1.00  0.00     0.021 C 
BRANCH   6   9
HETATM    9  C   UNL     1      25.227  45.347  49.848  1.00  0.00    -0.046 A 
HETATM   10  C   UNL     1      24.084  46.155  49.899  1.00  0.00     0.027 A 
HETATM   11  C   UNL     1      24.224  47.538  49.892  1.00  0.00     0.116 A 
HETATM   12  N   UNL     1      25.409  48.176  49.835  1.00  0.00    -0.273 NA
HETATM   13  C   UNL     1      26.506  47.394  49.798  1.00  0.00     0.116 A 
HETATM   14  C   UNL     1      26.466  46.007  49.804  1.00  0.00     0.027 A 
ENDBRANCH   6   9
ENDBRANCH   5   6
ENDBRANCH   2   5
BRANCH   1  15
HETATM   15  C   UNL     1      27.578  43.924  53.884  1.00  0.00     0.065 A 
HETATM   16  C   UNL     1      28.101  44.911  54.743  1.00  0.00     0.087 A 
HETATM   17  C   UNL     1      29.371  44.756  55.332  1.00  0.00    -0.028 A 
HETATM   18  C   UNL     1      29.990  45.807  56.212  1.00  0.00     0.051 C 
HETATM   19  C   UNL     1      30.081  43.567  55.104  1.00  0.00     0.009 A 
HETATM   20  C   UNL     1      29.558  42.570  54.286  1.00  0.00     0.002 A 
HETATM   21  C   UNL     1      28.319  42.751  53.673  1.00  0.00     0.020 A 
BRANCH  16  22
HETATM   22  O   UNL     1      27.361  46.036  55.012  1.00  0.00    -0.359 OA
HETATM   23  H   UNL     1      27.385  46.620  54.234  1.00  0.00     0.218 HD
ENDBRANCH  16  22
ENDBRANCH   1  15
TORSDOF 5
ENDMDL
MODEL 7
REMARK VINA RESULT:      -7.4      4.468      7.578
REMARK  5 active torsions:
REMARK  status: ('A' for Active; 'I' for Inactive)
REMARK    1  A    between atoms: C_3  and  O_4 
REMARK    2  A    between atoms: C_5  and  C_6 
REMARK       I    between atoms: C_6  and  N_7 
REMARK    3  A    between atoms: N_7  and  C_8 
REMARK    4  A    between atoms: C_8  and  C_9 
REMARK    5  A    between atoms: C_9  and  C_10 
ROOT
HETATM    1  C   UNL     1      28.138  41.013  51.987  1.00  0.00     0.254 C 
HETATM    2  N   UNL     1      27.174  41.875  52.453  1.00  0.00    -0.356 N 
HETATM    3  O   UNL     1      29.029  40.574  52.709  1.00  0.00    -0.268 OA
HETATM    4  H   UNL     1      26.565  42.300  51.756  1.00  0.00     0.162 HD
ENDROOT
BRANCH   2   5
HETATM    5  C   UNL     1      27.194  42.402  53.801  1.00  0.00     0.136 C 
BRANCH   5   6
HETATM    6  C   UNL     1      27.488  43.930  53.865  1.00  0.00    -0.004 C 
HETATM    7  C   UNL     1      27.583  44.462  52.415  1.00  0.00     0.021 C 
HETATM    8  C   UNL     1      26.276  44.632  54.522  1.00  0.00     0.021 C 
BRANCH   6   9
HETATM    9  C   UNL     1      28.742  44.217  54.713  1.00  0.00    -0.046 A 
HETATM   10  C   UNL     1      29.799  43.305  54.840  1.00  0.00     0.027 A 
HETATM   11  C   UNL     1      30.891  43.632  55.634  1.00  0.00     0.116 A 
HETATM   12  N   UNL     1      31.012  44.789  56.314  1.00  0.00    -0.273 NA
HETATM   13  C   UNL     1      29.999  45.667  56.179  1.00  0.00     0.116 A 
HETATM   14  C   UNL     1      28.870  45.431  55.407  1.00  0.00     0.027 A 
ENDBRANCH   6   9
ENDBRANCH   5   6
ENDBRANCH   2   5
BRANCH   1  15
HETATM   15  C   UNL     1      28.055  40.614  50.543  1.00  0.00     0.065 A 
HETATM   16  C   UNL     1      28.537  39.397  50.019  1.00  0.00     0.087 A 
HETATM   17  C   UNL     1      28.474  39.131  48.638  1.00  0.00    -0.028 A 
HETATM   18  C   UNL     1      29.023  37.870  48.029  1.00  0.00     0.051 C 
HETATM   19  C   UNL     1      27.859  40.071  47.796  1.00  0.00     0.009 A 
HETATM   20  C   UNL     1      27.348  41.261  48.308  1.00  0.00     0.002 A 
HETATM   21  C   UNL     1      27.454  41.533  49.671  1.00  0.00     0.020 A 
BRANCH  16  22
HETATM   22  O   UNL     1      29.071  38.458  50.868  1.00  0.00    -0.359 OA
HETATM   23  H   UNL     1      29.035  37.588  50.434  1.00  0.00     0.218 HD
ENDBRANCH  16  22
ENDBRANCH   1  15
TORSDOF 5
ENDMDL
MODEL 8
REMARK VINA RESULT:      -7.4      1.514      2.993
REMARK  5 active torsions:
REMARK  status: ('A' for Active; 'I' for Inactive)
REMARK    1  A    between atoms: C_3  and  O_4 
REMARK    2  A    between atoms: C_5  and  C_6 
REMARK       I    between atoms: C_6  and  N_7 
REMARK    3  A    between atoms: N_7  and  C_8 
REMARK    4  A    between atoms: C_8  and  C_9 
REMARK    5  A    between atoms: C_9  and  C_10 
ROOT
HETATM    1  C   UNL     1      28.251  43.453  52.582  1.00  0.00     0.254 C 
HETATM    2  N   UNL     1      27.639  44.494  51.927  1.00  0.00    -0.356 N 
HETATM    3  O   UNL     1      28.201  42.297  52.168  1.00  0.00    -0.268 OA
HETATM    4  H   UNL     1      27.609  45.387  52.416  1.00  0.00     0.162 HD
ENDROOT
BRANCH   2   5
HETATM    5  C   UNL     1      26.813  44.292  50.755  1.00  0.00     0.136 C 
BRANCH   5   6
HETATM    6  C   UNL     1      25.387  44.904  50.890  1.00  0.00    -0.004 C 
HETATM    7  C   UNL     1      24.380  43.922  50.241  1.00  0.00     0.021 C 
HETATM    8  C   UNL     1      25.031  44.985  52.392  1.00  0.00     0.021 C 
BRANCH   6   9
HETATM    9  C   UNL     1      25.336  46.324  50.294  1.00  0.00    -0.046 A 
HETATM   10  C   UNL     1      26.483  47.103  50.087  1.00  0.00     0.027 A 
HETATM   11  C   UNL     1      26.354  48.381  49.557  1.00  0.00     0.116 A 
HETATM   12  N   UNL     1      25.177  48.945  49.223  1.00  0.00    -0.273 NA
HETATM   13  C   UNL     1      24.078  48.187  49.412  1.00  0.00     0.116 A 
HETATM   14  C   UNL     1      24.108  46.901  49.932  1.00  0.00     0.027 A 
ENDBRANCH   6   9
ENDBRANCH   5   6
ENDBRANCH   2   5
BRANCH   1  15
HETATM   15  C   UNL     1      29.004  43.784  53.837  1.00  0.00     0.065 A 
HETATM   16  C   UNL     1      28.641  44.800  54.744  1.00  0.00     0.087 A 
HETATM   17  C   UNL     1      29.443  45.084  55.867  1.00  0.00    -0.028 A 
HETATM   18  C   UNL     1      29.123  46.193  56.832  1.00  0.00     0.051 C 
HETATM   19  C   UNL     1      30.575  44.291  56.107  1.00  0.00     0.009 A 
HETATM   20  C   UNL     1      30.923  43.262  55.236  1.00  0.00     0.002 A 
HETATM   21  C   UNL     1      30.147  43.016  54.104  1.00  0.00     0.020 A 
BRANCH  16  22
HETATM   22  O   UNL     1      27.490  45.519  54.533  1.00  0.00    -0.359 OA
HETATM   23  H   UNL     1      27.579  46.387  54.964  1.00  0.00     0.218 HD
ENDBRANCH  16  22
ENDBRANCH   1  15
TORSDOF 5
ENDMDL
MODEL 9
REMARK VINA RESULT:      -7.4      5.482      8.187
REMARK  5 active torsions:
REMARK  status: ('A' for Active; 'I' for Inactive)
REMARK    1  A    between atoms: C_3  and  O_4 
REMARK    2  A    between atoms: C_5  and  C_6 
REMARK       I    between atoms: C_6  and  N_7 
REMARK    3  A    between atoms: N_7  and  C_8 
REMARK    4  A    between atoms: C_8  and  C_9 
REMARK    5  A    between atoms: C_9  and  C_10 
ROOT
HETATM    1  C   UNL     1      22.622  49.004  48.103  1.00  0.00     0.254 C 
HETATM    2  N   UNL     1      22.143  50.282  48.262  1.00  0.00    -0.356 N 
HETATM    3  O   UNL     1      22.042  48.166  47.418  1.00  0.00    -0.268 OA
HETATM    4  H   UNL     1      22.606  50.861  48.960  1.00  0.00     0.162 HD
ENDROOT
BRANCH   2   5
HETATM    5  C   UNL     1      20.872  50.706  47.712  1.00  0.00     0.136 C 
BRANCH   5   6
HETATM    6  C   UNL     1      19.788  50.980  48.796  1.00  0.00    -0.004 C 
HETATM    7  C   UNL     1      20.493  51.060  50.171  1.00  0.00     0.021 C 
HETATM    8  C   UNL     1      19.169  52.371  48.526  1.00  0.00     0.021 C 
BRANCH   6   9
HETATM    9  C   UNL     1      18.668  49.922  48.737  1.00  0.00    -0.046 A 
HETATM   10  C   UNL     1      18.708  48.730  49.473  1.00  0.00     0.027 A 
HETATM   11  C   UNL     1      17.665  47.820  49.355  1.00  0.00     0.116 A 
HETATM   12  N   UNL     1      16.591  48.000  48.562  1.00  0.00    -0.273 NA
HETATM   13  C   UNL     1      16.551  49.153  47.866  1.00  0.00     0.116 A 
HETATM   14  C   UNL     1      17.543  50.122  47.920  1.00  0.00     0.027 A 
ENDBRANCH   6   9
ENDBRANCH   5   6
ENDBRANCH   2   5
BRANCH   1  15
HETATM   15  C   UNL     1      23.906  48.666  48.801  1.00  0.00     0.065 A 
HETATM   16  C   UNL     1      25.145  49.286  48.545  1.00  0.00     0.087 A 
HETATM   17  C   UNL     1      26.315  48.860  49.204  1.00  0.00    -0.028 A 
HETATM   18  C   UNL     1      27.667  49.458  48.924  1.00  0.00     0.051 C 
HETATM   19  C   UNL     1      26.215  47.852  50.174  1.00  0.00     0.009 A 
HETATM   20  C   UNL     1      24.989  47.256  50.461  1.00  0.00     0.002 A 
HETATM   21  C   UNL     1      23.845  47.654  49.772  1.00  0.00     0.020 A 
BRANCH  16  22
HETATM   22  O   UNL     1      25.212  50.321  47.644  1.00  0.00    -0.359 OA
HETATM   23  H   UNL     1      26.024  50.225  47.117  1.00  0.00     0.218 HD
ENDBRANCH  16  22
ENDBRANCH   1  15
TORSDOF 5
ENDMDL
MODEL 10
REMARK VINA RESULT:      -7.3      2.039      3.266
REMARK  5 active torsions:
REMARK  status: ('A' for Active; 'I' for Inactive)
REMARK    1  A    between atoms: C_3  and  O_4 
REMARK    2  A    between atoms: C_5  and  C_6 
REMARK       I    between atoms: C_6  and  N_7 
REMARK    3  A    between atoms: N_7  and  C_8 
REMARK    4  A    between atoms: C_8  and  C_9 
REMARK    5  A    between atoms: C_9  and  C_10 
ROOT
HETATM    1  C   UNL     1      27.270  44.088  53.127  1.00  0.00     0.254 C 
HETATM    2  N   UNL     1      26.717  45.297  52.779  1.00  0.00    -0.356 N 
HETATM    3  O   UNL     1      26.844  43.022  52.690  1.00  0.00    -0.268 OA
HETATM    4  H   UNL     1      27.037  46.112  53.299  1.00  0.00     0.162 HD
ENDROOT
BRANCH   2   5
HETATM    5  C   UNL     1      25.533  45.396  51.951  1.00  0.00     0.136 C 
BRANCH   5   6
HETATM    6  C   UNL     1      25.756  46.215  50.646  1.00  0.00    -0.004 C 
HETATM    7  C   UNL     1      26.370  47.581  51.035  1.00  0.00     0.021 C 
HETATM    8  C   UNL     1      26.808  45.479  49.783  1.00  0.00     0.021 C 
BRANCH   6   9
HETATM    9  C   UNL     1      24.450  46.332  49.836  1.00  0.00    -0.046 A 
HETATM   10  C   UNL     1      23.767  45.218  49.330  1.00  0.00     0.027 A 
HETATM   11  C   UNL     1      22.601  45.406  48.597  1.00  0.00     0.116 A 
HETATM   12  N   UNL     1      22.066  46.613  48.327  1.00  0.00    -0.273 NA
HETATM   13  C   UNL     1      22.720  47.680  48.826  1.00  0.00     0.116 A 
HETATM   14  C   UNL     1      23.888  47.591  49.570  1.00  0.00     0.027 A 
ENDBRANCH   6   9
ENDBRANCH   5   6
ENDBRANCH   2   5
BRANCH   1  15
HETATM   15  C   UNL     1      28.440  44.118  54.066  1.00  0.00     0.065 A 
HETATM   16  C   UNL     1      28.578  45.012  55.146  1.00  0.00     0.087 A 
HETATM   17  C   UNL     1      29.741  45.011  55.940  1.00  0.00    -0.028 A 
HETATM   18  C   UNL     1      29.953  45.982  57.069  1.00  0.00     0.051 C 
HETATM   19  C   UNL     1      30.735  44.055  55.681  1.00  0.00     0.009 A 
HETATM   20  C   UNL     1      30.593  43.143  54.638  1.00  0.00     0.002 A 
HETATM   21  C   UNL     1      29.457  43.181  53.831  1.00  0.00     0.020 A 
BRANCH  16  22
HETATM   22  O   UNL     1      27.563  45.894  55.430  1.00  0.00    -0.359 OA
HETATM   23  H   UNL     1      27.856  46.793  55.201  1.00  0.00     0.218 HD
ENDBRANCH  16  22
ENDBRANCH   1  15
TORSDOF 5
ENDMDL
