MODEL 1
REMARK VINA RESULT:     -10.4      0.000      0.000
REMARK  7 active torsions:
REMARK  status: ('A' for Active; 'I' for Inactive)
REMARK    1  A    between atoms: C_5  and  C_6 
REMARK    2  A    between atoms: C_10  and  C_11 
REMARK       I    between atoms: C_11  and  N_12 
REMARK    3  A    between atoms: N_12  and  N_13 
REMARK       I    between atoms: N_13  and  C_14 
REMARK       I    between atoms: C_14  and  N_15 
REMARK    4  A    between atoms: N_15  and  C_16 
REMARK    5  A    between atoms: C_16  and  C_17 
REMARK    6  A    between atoms: C_17  and  C_18 
REMARK    7  A    between atoms: C_21  and  O_22 
ROOT
HETATM    1  C   UNL     1      24.944  45.070  51.407  1.00  0.00     0.288 C 
HETATM    2  N   UNL     1      25.035  46.208  50.637  1.00  0.00    -0.261 N 
HETATM    3  O   UNL     1      23.876  44.481  51.573  1.00  0.00    -0.264 OA
HETATM    4  H   UNL     1      25.908  46.673  50.406  1.00  0.00     0.190 HD
ENDROOT
BRANCH   2   5
HETATM    5  N   UNL     1      23.865  46.781  50.115  1.00  0.00    -0.249 N 
HETATM    6  C   UNL     1      23.974  48.052  49.591  1.00  0.00     0.335 C 
HETATM    7  N   UNL     1      22.780  48.502  49.096  1.00  0.00    -0.337 N 
HETATM    8  O   UNL     1      25.015  48.700  49.610  1.00  0.00    -0.246 OA
HETATM    9  H   UNL     1      21.950  48.023  49.415  1.00  0.00     0.164 HD
HETATM   10  H   UNL     1      23.244  46.126  49.644  1.00  0.00     0.192 HD
BRANCH   7  11
HETATM   11  C   UNL     1      22.625  49.832  48.514  1.00  0.00     0.086 C 
HETATM   12  C   UNL     1      22.678  50.912  49.599  1.00  0.00     0.032 C 
BRANCH  11  13
HETATM   13  C   UNL     1      21.297  49.954  47.735  1.00  0.00     0.063 C 
BRANCH  13  14
HETATM   14  C   UNL     1      20.141  50.599  48.470  1.00  0.00    -0.056 A 
HETATM   15  C   UNL     1      19.762  51.912  48.142  1.00  0.00     0.010 A 
HETATM   16  C   UNL     1      18.687  52.531  48.785  1.00  0.00     0.037 A 
HETATM   17  C   UNL     1      17.977  51.831  49.753  1.00  0.00     0.065 A 
HETATM   18  C   UNL     1      18.323  50.526  50.081  1.00  0.00     0.037 A 
HETATM   19  C   UNL     1      19.396  49.908  49.436  1.00  0.00     0.010 A 
BRANCH  17  20
HETATM   20  O   UNL     1      16.922  52.393  50.406  1.00  0.00    -0.361 OA
HETATM   21  H   UNL     1      17.021  52.227  51.357  1.00  0.00     0.217 HD
ENDBRANCH  17  20
ENDBRANCH  13  14
ENDBRANCH  11  13
ENDBRANCH   7  11
ENDBRANCH   2   5
BRANCH   1  22
HETATM   22  C   UNL     1      26.169  44.641  52.021  1.00  0.00     0.121 A 
HETATM   23  N   UNL     1      26.841  43.532  51.590  1.00  0.00    -0.272 N 
HETATM   24  N   UNL     1      27.910  43.214  52.332  1.00  0.00    -0.174 NA
HETATM   25  H   UNL     1      26.589  42.933  50.810  1.00  0.00     0.189 HD
HETATM   26  C   UNL     1      27.966  44.168  53.275  1.00  0.00     0.089 A 
HETATM   27  C   UNL     1      26.906  45.100  53.095  1.00  0.00     0.071 A 
BRANCH  26  28
HETATM   28  C   UNL     1      28.975  44.151  54.336  1.00  0.00    -0.006 A 
HETATM   29  C   UNL     1      29.075  45.200  55.258  1.00  0.00     0.014 A 
HETATM   30  C   UNL     1      30.008  45.147  56.300  1.00  0.00     0.007 A 
HETATM   31  C   UNL     1      30.862  44.048  56.433  1.00  0.00    -0.062 A 
HETATM   32  C   UNL     1      31.824  43.966  57.582  1.00  0.00     0.048 C 
HETATM   33  C   UNL     1      30.766  42.998  55.515  1.00  0.00     0.007 A 
HETATM   34  C   UNL     1      29.837  43.053  54.471  1.00  0.00     0.014 A 
ENDBRANCH  26  28
ENDBRANCH   1  22
TORSDOF 7
ENDMDL
MODEL 2
REMARK VINA RESULT:     -10.0      2.297     11.598
REMARK  7 active torsions:
REMARK  status: ('A' for Active; 'I' for Inactive)
REMARK    1  A    between atoms: C_5  and  C_6 
REMARK    2  A    between atoms: C_10  and  C_11 
REMARK       I    between atoms: C_11  and  N_12 
REMARK    3  A    between atoms: N_12  and  N_13 
REMARK       I    between atoms: N_13  and  C_14 
REMARK       I    between atoms: C_14  and  N_15 
REMARK    4  A    between atoms: N_15  and  C_16 
REMARK    5  A    between atoms: C_16  and  C_17 
REMARK    6  A    between atoms: C_17  and  C_18 
REMARK    7  A    between atoms: C_21  and  O_22 
ROOT
HETATM    1  C   UNL     1      25.212  47.782  49.498  1.00  0.00     0.288 C 
HETATM    2  N   UNL     1      24.789  46.665  50.183  1.00  0.00    -0.261 N 
HETATM    3  O   UNL     1      26.381  47.924  49.142  1.00  0.00    -0.264 OA
HETATM    4  H   UNL     1      23.820  46.471  50.418  1.00  0.00     0.190 HD
ENDROOT
BRANCH   2   5
HETATM    5  N   UNL     1      25.733  45.708  50.586  1.00  0.00    -0.249 N 
HETATM    6  C   UNL     1      25.909  45.541  51.944  1.00  0.00     0.335 C 
HETATM    7  N   UNL     1      26.837  44.573  52.222  1.00  0.00    -0.337 N 
HETATM    8  O   UNL     1      25.323  46.213  52.786  1.00  0.00    -0.246 OA
HETATM    9  H   UNL     1      27.465  44.322  51.472  1.00  0.00     0.164 HD
HETATM   10  H   UNL     1      25.778  44.879  49.998  1.00  0.00     0.192 HD
BRANCH   7  11
HETATM   11  C   UNL     1      27.224  44.228  53.586  1.00  0.00     0.086 C 
HETATM   12  C   UNL     1      25.990  43.931  54.445  1.00  0.00     0.032 C 
BRANCH  11  13
HETATM   13  C   UNL     1      28.044  45.362  54.242  1.00  0.00     0.063 C 
BRANCH  13  14
HETATM   14  C   UNL     1      29.118  44.937  55.221  1.00  0.00    -0.056 A 
HETATM   15  C   UNL     1      29.844  43.758  54.978  1.00  0.00     0.010 A 
HETATM   16  C   UNL     1      30.857  43.347  55.848  1.00  0.00     0.037 A 
HETATM   17  C   UNL     1      31.157  44.124  56.960  1.00  0.00     0.065 A 
HETATM   18  C   UNL     1      30.464  45.302  57.210  1.00  0.00     0.037 A 
HETATM   19  C   UNL     1      29.454  45.713  56.339  1.00  0.00     0.010 A 
BRANCH  17  20
HETATM   20  O   UNL     1      32.136  43.763  57.836  1.00  0.00    -0.361 OA
HETATM   21  H   UNL     1      32.369  42.834  57.676  1.00  0.00     0.217 HD
ENDBRANCH  17  20
ENDBRANCH  13  14
ENDBRANCH  11  13
ENDBRANCH   7  11
ENDBRANCH   2   5
BRANCH   1  22
HETATM   22  C   UNL     1      24.204  48.776  49.258  1.00  0.00     0.121 A 
HETATM   23  N   UNL     1      24.515  50.015  48.772  1.00  0.00    -0.272 N 
HETATM   24  N   UNL     1      23.474  50.855  48.699  1.00  0.00    -0.174 NA
HETATM   25  H   UNL     1      25.436  50.351  48.508  1.00  0.00     0.189 HD
HETATM   26  C   UNL     1      22.424  50.133  49.124  1.00  0.00     0.089 A 
HETATM   27  C   UNL     1      22.838  48.813  49.456  1.00  0.00     0.071 A 
BRANCH  26  28
HETATM   28  C   UNL     1      21.086  50.713  49.251  1.00  0.00    -0.006 A 
HETATM   29  C   UNL     1      20.657  51.739  48.400  1.00  0.00     0.014 A 
HETATM   30  C   UNL     1      19.356  52.249  48.497  1.00  0.00     0.007 A 
HETATM   31  C   UNL     1      18.465  51.746  49.450  1.00  0.00    -0.062 A 
HETATM   32  C   UNL     1      17.055  52.253  49.517  1.00  0.00     0.048 C 
HETATM   33  C   UNL     1      18.890  50.720  50.302  1.00  0.00     0.007 A 
HETATM   34  C   UNL     1      20.190  50.216  50.208  1.00  0.00     0.014 A 
ENDBRANCH  26  28
ENDBRANCH   1  22
TORSDOF 7
ENDMDL
MODEL 3
REMARK VINA RESULT:      -9.8      1.878      2.475
REMARK  7 active torsions:
REMARK  status: ('A' for Active; 'I' for Inactive)
REMARK    1  A    between atoms: C_5  and  C_6 
REMARK    2  A    between atoms: C_10  and  C_11 
REMARK       I    between atoms: C_11  and  N_12 
REMARK    3  A    between atoms: N_12  and  N_13 
REMARK       I    between atoms: N_13  and  C_14 
REMARK       I    between atoms: C_14  and  N_15 
REMARK    4  A    between atoms: N_15  and  C_16 
REMARK    5  A    between atoms: C_16  and  C_17 
REMARK    6  A    between atoms: C_17  and  C_18 
REMARK    7  A    between atoms: C_21  and  O_22 
ROOT
HETATM    1  C   UNL     1      24.899  45.183  51.269  1.00  0.00     0.288 C 
HETATM    2  N   UNL     1      24.899  46.319  50.490  1.00  0.00    -0.261 N 
HETATM    3  O   UNL     1      23.879  44.522  51.456  1.00  0.00    -0.264 OA
HETATM    4  H   UNL     1      25.734  46.842  50.241  1.00  0.00     0.190 HD
ENDROOT
BRANCH   2   5
HETATM    5  N   UNL     1      23.684  46.803  49.982  1.00  0.00    -0.249 N 
HETATM    6  C   UNL     1      23.667  48.113  49.551  1.00  0.00     0.335 C 
HETATM    7  N   UNL     1      22.440  48.472  49.061  1.00  0.00    -0.337 N 
HETATM    8  O   UNL     1      24.634  48.863  49.639  1.00  0.00    -0.246 OA
HETATM    9  H   UNL     1      21.660  47.889  49.327  1.00  0.00     0.164 HD
HETATM   10  H   UNL     1      23.142  46.124  49.452  1.00  0.00     0.192 HD
BRANCH   7  11
HETATM   11  C   UNL     1      22.156  49.817  48.570  1.00  0.00     0.086 C 
HETATM   12  C   UNL     1      21.994  50.800  49.734  1.00  0.00     0.032 C 
BRANCH  11  13
HETATM   13  C   UNL     1      20.881  49.841  47.699  1.00  0.00     0.063 C 
BRANCH  13  14
HETATM   14  C   UNL     1      19.904  48.702  47.902  1.00  0.00    -0.056 A 
HETATM   15  C   UNL     1      18.885  48.831  48.861  1.00  0.00     0.010 A 
HETATM   16  C   UNL     1      17.953  47.810  49.061  1.00  0.00     0.037 A 
HETATM   17  C   UNL     1      18.031  46.657  48.290  1.00  0.00     0.065 A 
HETATM   18  C   UNL     1      19.020  46.515  47.324  1.00  0.00     0.037 A 
HETATM   19  C   UNL     1      19.948  47.537  47.123  1.00  0.00     0.010 A 
BRANCH  17  20
HETATM   20  O   UNL     1      17.144  45.634  48.449  1.00  0.00    -0.361 OA
HETATM   21  H   UNL     1      17.635  44.796  48.461  1.00  0.00     0.217 HD
ENDBRANCH  17  20
ENDBRANCH  13  14
ENDBRANCH  11  13
ENDBRANCH   7  11
ENDBRANCH   2   5
BRANCH   1  22
HETATM   22  C   UNL     1      26.161  44.846  51.867  1.00  0.00     0.121 A 
HETATM   23  N   UNL     1      27.096  44.102  51.204  1.00  0.00    -0.272 N 
HETATM   24  N   UNL     1      28.174  43.794  51.938  1.00  0.00    -0.174 NA
HETATM   25  H   UNL     1      27.030  43.747  50.255  1.00  0.00     0.189 HD
HETATM   26  C   UNL     1      27.958  44.383  53.125  1.00  0.00     0.089 A 
HETATM   27  C   UNL     1      26.717  45.079  53.110  1.00  0.00     0.071 A 
BRANCH  26  28
HETATM   28  C   UNL     1      28.891  44.237  54.244  1.00  0.00    -0.006 A 
HETATM   29  C   UNL     1      29.718  43.113  54.356  1.00  0.00     0.014 A 
HETATM   30  C   UNL     1      30.643  43.009  55.401  1.00  0.00     0.007 A 
HETATM   31  C   UNL     1      30.752  44.025  56.357  1.00  0.00    -0.062 A 
HETATM   32  C   UNL     1      31.781  43.940  57.445  1.00  0.00     0.048 C 
HETATM   33  C   UNL     1      29.928  45.150  56.248  1.00  0.00     0.007 A 
HETATM   34  C   UNL     1      29.000  45.250  55.207  1.00  0.00     0.014 A 
ENDBRANCH  26  28
ENDBRANCH   1  22
TORSDOF 7
ENDMDL
MODEL 4
REMARK VINA RESULT:      -9.5      2.754     11.421
REMARK  7 active torsions:
REMARK  status: ('A' for Active; 'I' for Inactive)
REMARK    1  A    between atoms: C_5  and  C_6 
REMARK    2  A    between atoms: C_10  and  C_11 
REMARK       I    between atoms: C_11  and  N_12 
REMARK    3  A    between atoms: N_12  and  N_13 
REMARK       I    between atoms: N_13  and  C_14 
REMARK       I    between atoms: C_14  and  N_15 
REMARK    4  A    between atoms: N_15  and  C_16 
REMARK    5  A    between atoms: C_16  and  C_17 
REMARK    6  A    between atoms: C_17  and  C_18 
REMARK    7  A    between atoms: C_21  and  O_22 
ROOT
HETATM    1  C   UNL     1      25.069  47.906  49.836  1.00  0.00     0.288 C 
HETATM    2  N   UNL     1      24.620  47.088  50.848  1.00  0.00    -0.261 N 
HETATM    3  O   UNL     1      26.250  47.925  49.490  1.00  0.00    -0.264 OA
HETATM    4  H   UNL     1      23.643  46.980  51.106  1.00  0.00     0.190 HD
ENDROOT
BRANCH   2   5
HETATM    5  N   UNL     1      25.546  46.334  51.585  1.00  0.00    -0.249 N 
HETATM    6  C   UNL     1      25.864  46.795  52.845  1.00  0.00     0.335 C 
HETATM    7  N   UNL     1      26.759  45.975  53.477  1.00  0.00    -0.337 N 
HETATM    8  O   UNL     1      25.417  47.838  53.311  1.00  0.00    -0.246 OA
HETATM    9  H   UNL     1      27.283  45.342  52.889  1.00  0.00     0.164 HD
HETATM   10  H   UNL     1      25.476  45.327  51.454  1.00  0.00     0.192 HD
BRANCH   7  11
HETATM   11  C   UNL     1      27.277  46.262  54.811  1.00  0.00     0.086 C 
HETATM   12  C   UNL     1      28.427  47.272  54.744  1.00  0.00     0.032 C 
BRANCH  11  13
HETATM   13  C   UNL     1      27.767  44.975  55.513  1.00  0.00     0.063 C 
BRANCH  13  14
HETATM   14  C   UNL     1      28.250  43.858  54.613  1.00  0.00    -0.056 A 
HETATM   15  C   UNL     1      27.338  42.880  54.178  1.00  0.00     0.010 A 
HETATM   16  C   UNL     1      27.744  41.848  53.330  1.00  0.00     0.037 A 
HETATM   17  C   UNL     1      29.065  41.796  52.902  1.00  0.00     0.065 A 
HETATM   18  C   UNL     1      29.979  42.761  53.305  1.00  0.00     0.037 A 
HETATM   19  C   UNL     1      29.571  43.795  54.151  1.00  0.00     0.010 A 
BRANCH  17  20
HETATM   20  O   UNL     1      29.506  40.807  52.074  1.00  0.00    -0.361 OA
HETATM   21  H   UNL     1      30.336  40.451  52.431  1.00  0.00     0.217 HD
ENDBRANCH  17  20
ENDBRANCH  13  14
ENDBRANCH  11  13
ENDBRANCH   7  11
ENDBRANCH   2   5
BRANCH   1  22
HETATM   22  C   UNL     1      24.073  48.750  49.238  1.00  0.00     0.121 A 
HETATM   23  N   UNL     1      24.396  49.945  48.658  1.00  0.00    -0.272 N 
HETATM   24  N   UNL     1      23.341  50.655  48.236  1.00  0.00    -0.174 NA
HETATM   25  H   UNL     1      25.327  50.340  48.556  1.00  0.00     0.189 HD
HETATM   26  C   UNL     1      22.278  49.886  48.521  1.00  0.00     0.089 A 
HETATM   27  C   UNL     1      22.699  48.668  49.125  1.00  0.00     0.071 A 
BRANCH  26  28
HETATM   28  C   UNL     1      20.908  50.333  48.266  1.00  0.00    -0.006 A 
HETATM   29  C   UNL     1      20.504  51.640  48.566  1.00  0.00     0.014 A 
HETATM   30  C   UNL     1      19.206  52.072  48.269  1.00  0.00     0.007 A 
HETATM   31  C   UNL     1      18.287  51.202  47.673  1.00  0.00    -0.062 A 
HETATM   32  C   UNL     1      16.915  51.681  47.303  1.00  0.00     0.048 C 
HETATM   33  C   UNL     1      18.686  49.896  47.371  1.00  0.00     0.007 A 
HETATM   34  C   UNL     1      19.981  49.464  47.673  1.00  0.00     0.014 A 
ENDBRANCH  26  28
ENDBRANCH   1  22
TORSDOF 7
ENDMDL
MODEL 5
REMARK VINA RESULT:      -9.4      2.307     11.592
REMARK  7 active torsions:
REMARK  status: ('A' for Active; 'I' for Inactive)
REMARK    1  A    between atoms: C_5  and  C_6 
REMARK    2  A    between atoms: C_10  and  C_11 
REMARK       I    between atoms: C_11  and  N_12 
REMARK    3  A    between atoms: N_12  and  N_13 
REMARK       I    between atoms: N_13  and  C_14 
REMARK       I    between atoms: C_14  and  N_15 
REMARK    4  A    between atoms: N_15  and  C_16 
REMARK    5  A    between atoms: C_16  and  C_17 
REMARK    6  A    between atoms: C_17  and  C_18 
REMARK    7  A    between atoms: C_21  and  O_22 
ROOT
HETATM    1  C   UNL     1      25.421  47.233  49.872  1.00  0.00     0.288 C 
HETATM    2  N   UNL     1      25.680  45.916  49.568  1.00  0.00    -0.261 N 
HETATM    3  O   UNL     1      26.269  47.962  50.387  1.00  0.00    -0.264 OA
HETATM    4  H   UNL     1      25.039  45.307  49.067  1.00  0.00     0.190 HD
ENDROOT
BRANCH   2   5
HETATM    5  N   UNL     1      26.906  45.350  49.954  1.00  0.00    -0.249 N 
HETATM    6  C   UNL     1      26.920  44.644  51.139  1.00  0.00     0.335 C 
HETATM    7  N   UNL     1      28.158  44.123  51.406  1.00  0.00    -0.337 N 
HETATM    8  O   UNL     1      25.942  44.539  51.871  1.00  0.00    -0.246 OA
HETATM    9  H   UNL     1      28.936  44.533  50.909  1.00  0.00     0.164 HD
HETATM   10  H   UNL     1      27.472  44.996  49.186  1.00  0.00     0.192 HD
BRANCH   7  11
HETATM   11  C   UNL     1      28.441  43.360  52.617  1.00  0.00     0.086 C 
HETATM   12  C   UNL     1      27.614  42.071  52.656  1.00  0.00     0.032 C 
BRANCH  11  13
HETATM   13  C   UNL     1      28.153  44.192  53.887  1.00  0.00     0.063 C 
BRANCH  13  14
HETATM   14  C   UNL     1      29.230  44.191  54.952  1.00  0.00    -0.056 A 
HETATM   15  C   UNL     1      29.351  45.297  55.810  1.00  0.00     0.010 A 
HETATM   16  C   UNL     1      30.318  45.321  56.817  1.00  0.00     0.037 A 
HETATM   17  C   UNL     1      31.162  44.230  56.978  1.00  0.00     0.065 A 
HETATM   18  C   UNL     1      31.049  43.118  56.152  1.00  0.00     0.037 A 
HETATM   19  C   UNL     1      30.080  43.094  55.148  1.00  0.00     0.010 A 
BRANCH  17  20
HETATM   20  O   UNL     1      32.120  44.209  57.947  1.00  0.00    -0.361 OA
HETATM   21  H   UNL     1      32.890  44.711  57.633  1.00  0.00     0.217 HD
ENDBRANCH  17  20
ENDBRANCH  13  14
ENDBRANCH  11  13
ENDBRANCH   7  11
ENDBRANCH   2   5
BRANCH   1  22
HETATM   22  C   UNL     1      24.091  47.684  49.575  1.00  0.00     0.121 A 
HETATM   23  N   UNL     1      23.115  46.823  49.157  1.00  0.00    -0.272 N 
HETATM   24  N   UNL     1      21.960  47.418  48.827  1.00  0.00    -0.174 NA
HETATM   25  H   UNL     1      23.198  45.817  49.044  1.00  0.00     0.189 HD
HETATM   26  C   UNL     1      22.169  48.722  49.066  1.00  0.00     0.089 A 
HETATM   27  C   UNL     1      23.487  48.926  49.565  1.00  0.00     0.071 A 
BRANCH  26  28
HETATM   28  C   UNL     1      21.154  49.736  48.776  1.00  0.00    -0.006 A 
HETATM   29  C   UNL     1      20.511  49.783  47.533  1.00  0.00     0.014 A 
HETATM   30  C   UNL     1      19.504  50.723  47.286  1.00  0.00     0.007 A 
HETATM   31  C   UNL     1      19.127  51.637  48.275  1.00  0.00    -0.062 A 
HETATM   32  C   UNL     1      18.010  52.608  48.030  1.00  0.00     0.048 C 
HETATM   33  C   UNL     1      19.766  51.594  49.518  1.00  0.00     0.007 A 
HETATM   34  C   UNL     1      20.776  50.658  49.763  1.00  0.00     0.014 A 
ENDBRANCH  26  28
ENDBRANCH   1  22
TORSDOF 7
ENDMDL
MODEL 6
REMARK VINA RESULT:      -9.3      2.145      2.644
REMARK  7 active torsions:
REMARK  status: ('A' for Active; 'I' for Inactive)
REMARK    1  A    between atoms: C_5  and  C_6 
REMARK    2  A    between atoms: C_10  and  C_11 
REMARK       I    between atoms: C_11  and  N_12 
REMARK    3  A    between atoms: N_12  and  N_13 
REMARK       I    between atoms: N_13  and  C_14 
REMARK       I    between atoms: C_14  and  N_15 
REMARK    4  A    between atoms: N_15  and  C_16 
REMARK    5  A    between atoms: C_16  and  C_17 
REMARK    6  A    between atoms: C_17  and  C_18 
REMARK    7  A    between atoms: C_21  and  O_22 
ROOT
HETATM    1  C   UNL     1      24.182  45.653  49.480  1.00  0.00     0.288 C 
HETATM    2  N   UNL     1      23.844  46.939  49.836  1.00  0.00    -0.261 N 
HETATM    3  O   UNL     1      23.468  44.971  48.746  1.00  0.00    -0.264 OA
HETATM    4  H   UNL     1      24.445  47.563  50.368  1.00  0.00     0.190 HD
ENDROOT
BRANCH   2   5
HETATM    5  N   UNL     1      22.599  47.455  49.446  1.00  0.00    -0.249 N 
HETATM    6  C   UNL     1      22.505  48.825  49.317  1.00  0.00     0.335 C 
HETATM    7  N   UNL     1      21.255  49.215  48.916  1.00  0.00    -0.337 N 
HETATM    8  O   UNL     1      23.429  49.590  49.574  1.00  0.00    -0.246 OA
HETATM    9  H   UNL     1      20.512  48.543  49.042  1.00  0.00     0.164 HD
HETATM   10  H   UNL     1      22.091  46.882  48.775  1.00  0.00     0.192 HD
BRANCH   7  11
HETATM   11  C   UNL     1      20.892  50.617  48.737  1.00  0.00     0.086 C 
HETATM   12  C   UNL     1      20.206  51.167  49.991  1.00  0.00     0.032 C 
BRANCH  11  13
HETATM   13  C   UNL     1      19.960  50.805  47.519  1.00  0.00     0.063 C 
BRANCH  13  14
HETATM   14  C   UNL     1      18.686  49.987  47.512  1.00  0.00    -0.056 A 
HETATM   15  C   UNL     1      17.489  50.573  47.959  1.00  0.00     0.010 A 
HETATM   16  C   UNL     1      16.291  49.855  47.946  1.00  0.00     0.037 A 
HETATM   17  C   UNL     1      16.283  48.549  47.472  1.00  0.00     0.065 A 
HETATM   18  C   UNL     1      17.452  47.956  47.009  1.00  0.00     0.037 A 
HETATM   19  C   UNL     1      18.648  48.676  47.020  1.00  0.00     0.010 A 
BRANCH  17  20
HETATM   20  O   UNL     1      15.139  47.810  47.441  1.00  0.00    -0.361 OA
HETATM   21  H   UNL     1      14.401  48.390  47.190  1.00  0.00     0.217 HD
ENDBRANCH  17  20
ENDBRANCH  13  14
ENDBRANCH  11  13
ENDBRANCH   7  11
ENDBRANCH   2   5
BRANCH   1  22
HETATM   22  C   UNL     1      25.405  45.158  50.047  1.00  0.00     0.121 A 
HETATM   23  N   UNL     1      26.256  44.357  49.338  1.00  0.00    -0.272 N 
HETATM   24  N   UNL     1      27.300  43.902  50.044  1.00  0.00    -0.174 NA
HETATM   25  H   UNL     1      26.150  44.061  48.372  1.00  0.00     0.189 HD
HETATM   26  C   UNL     1      27.151  44.448  51.261  1.00  0.00     0.089 A 
HETATM   27  C   UNL     1      25.988  45.267  51.295  1.00  0.00     0.071 A 
BRANCH  26  28
HETATM   28  C   UNL     1      28.069  44.148  52.362  1.00  0.00    -0.006 A 
HETATM   29  C   UNL     1      27.883  44.706  53.633  1.00  0.00     0.014 A 
HETATM   30  C   UNL     1      28.736  44.371  54.691  1.00  0.00     0.007 A 
HETATM   31  C   UNL     1      29.795  43.478  54.494  1.00  0.00    -0.062 A 
HETATM   32  C   UNL     1      30.675  43.077  55.640  1.00  0.00     0.048 C 
HETATM   33  C   UNL     1      29.984  42.919  53.226  1.00  0.00     0.007 A 
HETATM   34  C   UNL     1      29.135  43.258  52.169  1.00  0.00     0.014 A 
ENDBRANCH  26  28
ENDBRANCH   1  22
TORSDOF 7
ENDMDL
MODEL 7
REMARK VINA RESULT:      -9.3      2.824     11.082
REMARK  7 active torsions:
REMARK  status: ('A' for Active; 'I' for Inactive)
REMARK    1  A    between atoms: C_5  and  C_6 
REMARK    2  A    between atoms: C_10  and  C_11 
REMARK       I    between atoms: C_11  and  N_12 
REMARK    3  A    between atoms: N_12  and  N_13 
REMARK       I    between atoms: N_13  and  C_14 
REMARK       I    between atoms: C_14  and  N_15 
REMARK    4  A    between atoms: N_15  and  C_16 
REMARK    5  A    between atoms: C_16  and  C_17 
REMARK    6  A    between atoms: C_17  and  C_18 
REMARK    7  A    between atoms: C_21  and  O_22 
ROOT
HETATM    1  C   UNL     1      24.226  45.121  49.753  1.00  0.00     0.288 C 
HETATM    2  N   UNL     1      25.058  44.592  48.791  1.00  0.00    -0.261 N 
HETATM    3  O   UNL     1      23.904  44.486  50.756  1.00  0.00    -0.264 OA
HETATM    4  H   UNL     1      25.415  45.112  47.995  1.00  0.00     0.190 HD
ENDROOT
BRANCH   2   5
HETATM    5  N   UNL     1      25.464  43.253  48.896  1.00  0.00    -0.249 N 
HETATM    6  C   UNL     1      26.668  43.015  49.526  1.00  0.00     0.335 C 
HETATM    7  N   UNL     1      26.955  41.678  49.587  1.00  0.00    -0.337 N 
HETATM    8  O   UNL     1      27.399  43.909  49.940  1.00  0.00    -0.246 OA
HETATM    9  H   UNL     1      26.451  41.079  48.949  1.00  0.00     0.164 HD
HETATM   10  H   UNL     1      24.709  42.590  49.054  1.00  0.00     0.192 HD
BRANCH   7  11
HETATM   11  C   UNL     1      28.188  41.168  50.178  1.00  0.00     0.086 C 
HETATM   12  C   UNL     1      28.685  39.931  49.424  1.00  0.00     0.032 C 
BRANCH  11  13
HETATM   13  C   UNL     1      27.993  40.815  51.670  1.00  0.00     0.063 C 
BRANCH  13  14
HETATM   14  C   UNL     1      28.404  41.872  52.673  1.00  0.00    -0.056 A 
HETATM   15  C   UNL     1      29.769  42.096  52.918  1.00  0.00     0.010 A 
HETATM   16  C   UNL     1      30.185  43.078  53.821  1.00  0.00     0.037 A 
HETATM   17  C   UNL     1      29.232  43.851  54.473  1.00  0.00     0.065 A 
HETATM   18  C   UNL     1      27.877  43.659  54.232  1.00  0.00     0.037 A 
HETATM   19  C   UNL     1      27.464  42.679  53.328  1.00  0.00     0.010 A 
BRANCH  17  20
HETATM   20  O   UNL     1      29.590  44.820  55.362  1.00  0.00    -0.361 OA
HETATM   21  H   UNL     1      30.064  44.404  56.100  1.00  0.00     0.217 HD
ENDBRANCH  17  20
ENDBRANCH  13  14
ENDBRANCH  11  13
ENDBRANCH   7  11
ENDBRANCH   2   5
BRANCH   1  22
HETATM   22  C   UNL     1      23.741  46.447  49.487  1.00  0.00     0.121 A 
HETATM   23  N   UNL     1      24.401  47.558  49.933  1.00  0.00    -0.272 N 
HETATM   24  N   UNL     1      23.765  48.711  49.686  1.00  0.00    -0.174 NA
HETATM   25  H   UNL     1      25.277  47.580  50.446  1.00  0.00     0.189 HD
HETATM   26  C   UNL     1      22.655  48.352  49.023  1.00  0.00     0.089 A 
HETATM   27  C   UNL     1      22.618  46.939  48.852  1.00  0.00     0.071 A 
BRANCH  26  28
HETATM   28  C   UNL     1      21.645  49.330  48.615  1.00  0.00    -0.006 A 
HETATM   29  C   UNL     1      20.545  48.954  47.834  1.00  0.00     0.014 A 
HETATM   30  C   UNL     1      19.559  49.888  47.494  1.00  0.00     0.007 A 
HETATM   31  C   UNL     1      19.660  51.215  47.924  1.00  0.00    -0.062 A 
HETATM   32  C   UNL     1      18.575  52.202  47.607  1.00  0.00     0.048 C 
HETATM   33  C   UNL     1      20.756  51.595  48.704  1.00  0.00     0.007 A 
HETATM   34  C   UNL     1      21.744  50.663  49.038  1.00  0.00     0.014 A 
ENDBRANCH  26  28
ENDBRANCH   1  22
TORSDOF 7
ENDMDL
MODEL 8
REMARK VINA RESULT:      -9.2      2.027      3.397
REMARK  7 active torsions:
REMARK  status: ('A' for Active; 'I' for Inactive)
REMARK    1  A    between atoms: C_5  and  C_6 
REMARK    2  A    between atoms: C_10  and  C_11 
REMARK       I    between atoms: C_11  and  N_12 
REMARK    3  A    between atoms: N_12  and  N_13 
REMARK       I    between atoms: N_13  and  C_14 
REMARK       I    between atoms: C_14  and  N_15 
REMARK    4  A    between atoms: N_15  and  C_16 
REMARK    5  A    between atoms: C_16  and  C_17 
REMARK    6  A    between atoms: C_17  and  C_18 
REMARK    7  A    between atoms: C_21  and  O_22 
ROOT
HETATM    1  C   UNL     1      24.073  47.911  49.762  1.00  0.00     0.288 C 
HETATM    2  N   UNL     1      22.914  47.363  49.258  1.00  0.00    -0.261 N 
HETATM    3  O   UNL     1      24.498  49.001  49.380  1.00  0.00    -0.264 OA
HETATM    4  H   UNL     1      22.486  46.511  49.607  1.00  0.00     0.190 HD
ENDROOT
BRANCH   2   5
HETATM    5  N   UNL     1      22.254  48.007  48.200  1.00  0.00    -0.249 N 
HETATM    6  C   UNL     1      20.875  48.004  48.233  1.00  0.00     0.335 C 
HETATM    7  N   UNL     1      20.339  48.673  47.165  1.00  0.00    -0.337 N 
HETATM    8  O   UNL     1      20.224  47.432  49.101  1.00  0.00    -0.246 OA
HETATM    9  H   UNL     1      20.949  48.819  46.373  1.00  0.00     0.164 HD
HETATM   10  H   UNL     1      22.717  48.845  47.856  1.00  0.00     0.192 HD
BRANCH   7  11
HETATM   11  C   UNL     1      18.900  48.786  46.954  1.00  0.00     0.086 C 
HETATM   12  C   UNL     1      18.428  47.811  45.870  1.00  0.00     0.032 C 
BRANCH  11  13
HETATM   13  C   UNL     1      18.500  50.224  46.558  1.00  0.00     0.063 C 
BRANCH  13  14
HETATM   14  C   UNL     1      17.879  51.075  47.646  1.00  0.00    -0.056 A 
HETATM   15  C   UNL     1      16.480  51.113  47.778  1.00  0.00     0.010 A 
HETATM   16  C   UNL     1      15.874  51.870  48.783  1.00  0.00     0.037 A 
HETATM   17  C   UNL     1      16.669  52.584  49.672  1.00  0.00     0.065 A 
HETATM   18  C   UNL     1      18.054  52.547  49.571  1.00  0.00     0.037 A 
HETATM   19  C   UNL     1      18.658  51.788  48.568  1.00  0.00     0.010 A 
BRANCH  17  20
HETATM   20  O   UNL     1      16.122  53.336  50.668  1.00  0.00    -0.361 OA
HETATM   21  H   UNL     1      16.760  54.021  50.926  1.00  0.00     0.217 HD
ENDBRANCH  17  20
ENDBRANCH  13  14
ENDBRANCH  11  13
ENDBRANCH   7  11
ENDBRANCH   2   5
BRANCH   1  22
HETATM   22  C   UNL     1      24.759  47.112  50.737  1.00  0.00     0.121 A 
HETATM   23  N   UNL     1      24.320  45.865  51.085  1.00  0.00    -0.272 N 
HETATM   24  N   UNL     1      25.015  45.294  52.079  1.00  0.00    -0.174 NA
HETATM   25  H   UNL     1      23.522  45.371  50.696  1.00  0.00     0.189 HD
HETATM   26  C   UNL     1      25.972  46.186  52.380  1.00  0.00     0.089 A 
HETATM   27  C   UNL     1      25.863  47.329  51.539  1.00  0.00     0.071 A 
BRANCH  26  28
HETATM   28  C   UNL     1      26.923  45.963  53.471  1.00  0.00    -0.006 A 
HETATM   29  C   UNL     1      27.600  44.744  53.605  1.00  0.00     0.014 A 
HETATM   30  C   UNL     1      28.546  44.562  54.621  1.00  0.00     0.007 A 
HETATM   31  C   UNL     1      28.825  45.591  55.525  1.00  0.00    -0.062 A 
HETATM   32  C   UNL     1      29.877  45.415  56.579  1.00  0.00     0.048 C 
HETATM   33  C   UNL     1      28.151  46.810  55.395  1.00  0.00     0.007 A 
HETATM   34  C   UNL     1      27.203  46.990  54.383  1.00  0.00     0.014 A 
ENDBRANCH  26  28
ENDBRANCH   1  22
TORSDOF 7
ENDMDL
MODEL 9
REMARK VINA RESULT:      -9.1      2.241     11.925
REMARK  7 active torsions:
REMARK  status: ('A' for Active; 'I' for Inactive)
REMARK    1  A    between atoms: C_5  and  C_6 
REMARK    2  A    between atoms: C_10  and  C_11 
REMARK       I    between atoms: C_11  and  N_12 
REMARK    3  A    between atoms: N_12  and  N_13 
REMARK       I    between atoms: N_13  and  C_14 
REMARK       I    between atoms: C_14  and  N_15 
REMARK    4  A    between atoms: N_15  and  C_16 
REMARK    5  A    between atoms: C_16  and  C_17 
REMARK    6  A    between atoms: C_17  and  C_18 
REMARK    7  A    between atoms: C_21  and  O_22 
ROOT
HETATM    1  C   UNL     1      23.163  48.935  49.423  1.00  0.00     0.288 C 
HETATM    2  N   UNL     1      23.548  47.675  49.823  1.00  0.00    -0.261 N 
HETATM    3  O   UNL     1      23.981  49.784  49.069  1.00  0.00    -0.264 OA
HETATM    4  H   UNL     1      22.902  46.921  50.039  1.00  0.00     0.190 HD
ENDROOT
BRANCH   2   5
HETATM    5  N   UNL     1      24.915  47.378  49.938  1.00  0.00    -0.249 N 
HETATM    6  C   UNL     1      25.246  46.070  50.223  1.00  0.00     0.335 C 
HETATM    7  N   UNL     1      26.602  45.893  50.294  1.00  0.00    -0.337 N 
HETATM    8  O   UNL     1      24.412  45.194  50.424  1.00  0.00    -0.246 OA
HETATM    9  H   UNL     1      27.159  46.725  50.424  1.00  0.00     0.164 HD
HETATM   10  H   UNL     1      25.517  47.890  49.296  1.00  0.00     0.192 HD
BRANCH   7  11
HETATM   11  C   UNL     1      27.207  44.603  50.613  1.00  0.00     0.086 C 
HETATM   12  C   UNL     1      26.799  43.540  49.588  1.00  0.00     0.032 C 
BRANCH  11  13
HETATM   13  C   UNL     1      26.808  44.129  52.028  1.00  0.00     0.063 C 
BRANCH  13  14
HETATM   14  C   UNL     1      27.935  43.959  53.025  1.00  0.00    -0.056 A 
HETATM   15  C   UNL     1      28.971  43.051  52.746  1.00  0.00     0.010 A 
HETATM   16  C   UNL     1      30.037  42.884  53.632  1.00  0.00     0.037 A 
HETATM   17  C   UNL     1      30.078  43.637  54.799  1.00  0.00     0.065 A 
HETATM   18  C   UNL     1      29.074  44.554  55.087  1.00  0.00     0.037 A 
HETATM   19  C   UNL     1      28.010  44.721  54.199  1.00  0.00     0.010 A 
BRANCH  17  20
HETATM   20  O   UNL     1      31.098  43.508  55.693  1.00  0.00    -0.361 OA
HETATM   21  H   UNL     1      31.656  42.761  55.422  1.00  0.00     0.217 HD
ENDBRANCH  17  20
ENDBRANCH  13  14
ENDBRANCH  11  13
ENDBRANCH   7  11
ENDBRANCH   2   5
BRANCH   1  22
HETATM   22  C   UNL     1      21.752  49.195  49.478  1.00  0.00     0.121 A 
HETATM   23  N   UNL     1      20.833  48.183  49.497  1.00  0.00    -0.272 N 
HETATM   24  N   UNL     1      19.559  48.596  49.448  1.00  0.00    -0.174 NA
HETATM   25  H   UNL     1      21.026  47.186  49.508  1.00  0.00     0.189 HD
HETATM   26  C   UNL     1      19.636  49.936  49.427  1.00  0.00     0.089 A 
HETATM   27  C   UNL     1      20.997  50.351  49.474  1.00  0.00     0.071 A 
BRANCH  26  28
HETATM   28  C   UNL     1      18.445  50.779  49.315  1.00  0.00    -0.006 A 
HETATM   29  C   UNL     1      17.255  50.282  48.768  1.00  0.00     0.014 A 
HETATM   30  C   UNL     1      16.106  51.082  48.714  1.00  0.00     0.007 A 
HETATM   31  C   UNL     1      16.130  52.393  49.201  1.00  0.00    -0.062 A 
HETATM   32  C   UNL     1      14.886  53.230  49.194  1.00  0.00     0.048 C 
HETATM   33  C   UNL     1      17.317  52.892  49.748  1.00  0.00     0.007 A 
HETATM   34  C   UNL     1      18.464  52.095  49.796  1.00  0.00     0.014 A 
ENDBRANCH  26  28
ENDBRANCH   1  22
TORSDOF 7
ENDMDL
MODEL 10
REMARK VINA RESULT:      -9.0      1.751      2.161
REMARK  7 active torsions:
REMARK  status: ('A' for Active; 'I' for Inactive)
REMARK    1  A    between atoms: C_5  and  C_6 
REMARK    2  A    between atoms: C_10  and  C_11 
REMARK       I    between atoms: C_11  and  N_12 
REMARK    3  A    between atoms: N_12  and  N_13 
REMARK       I    between atoms: N_13  and  C_14 
REMARK       I    between atoms: C_14  and  N_15 
REMARK    4  A    between atoms: N_15  and  C_16 
REMARK    5  A    between atoms: C_16  and  C_17 
REMARK    6  A    between atoms: C_17  and  C_18 
REMARK    7  A    between atoms: C_21  and  O_22 
ROOT
HETATM    1  C   UNL     1      25.603  43.481  50.727  1.00  0.00     0.288 C 
HETATM    2  N   UNL     1      25.732  44.521  49.833  1.00  0.00    -0.261 N 
HETATM    3  O   UNL     1      24.724  42.628  50.610  1.00  0.00    -0.264 OA
HETATM    4  H   UNL     1      26.492  45.194  49.845  1.00  0.00     0.190 HD
ENDROOT
BRANCH   2   5
HETATM    5  N   UNL     1      24.770  44.682  48.824  1.00  0.00    -0.249 N 
HETATM    6  C   UNL     1      23.827  45.670  49.014  1.00  0.00     0.335 C 
HETATM    7  N   UNL     1      22.954  45.750  47.962  1.00  0.00    -0.337 N 
HETATM    8  O   UNL     1      23.769  46.359  50.027  1.00  0.00    -0.246 OA
HETATM    9  H   UNL     1      22.907  44.945  47.353  1.00  0.00     0.164 HD
HETATM   10  H   UNL     1      25.117  44.535  47.878  1.00  0.00     0.192 HD
BRANCH   7  11
HETATM   11  C   UNL     1      21.844  46.697  47.936  1.00  0.00     0.086 C 
HETATM   12  C   UNL     1      20.954  46.461  46.712  1.00  0.00     0.032 C 
BRANCH  11  13
HETATM   13  C   UNL     1      22.350  48.157  47.927  1.00  0.00     0.063 C 
BRANCH  13  14
HETATM   14  C   UNL     1      21.416  49.197  48.510  1.00  0.00    -0.056 A 
HETATM   15  C   UNL     1      21.470  50.517  48.031  1.00  0.00     0.010 A 
HETATM   16  C   UNL     1      20.609  51.497  48.530  1.00  0.00     0.037 A 
HETATM   17  C   UNL     1      19.680  51.156  49.505  1.00  0.00     0.065 A 
HETATM   18  C   UNL     1      19.597  49.853  49.981  1.00  0.00     0.037 A 
HETATM   19  C   UNL     1      20.456  48.874  49.479  1.00  0.00     0.010 A 
BRANCH  17  20
HETATM   20  O   UNL     1      18.820  52.079  50.021  1.00  0.00    -0.361 OA
HETATM   21  H   UNL     1      18.320  51.667  50.745  1.00  0.00     0.217 HD
ENDBRANCH  17  20
ENDBRANCH  13  14
ENDBRANCH  11  13
ENDBRANCH   7  11
ENDBRANCH   2   5
BRANCH   1  22
HETATM   22  C   UNL     1      26.543  43.481  51.812  1.00  0.00     0.121 A 
HETATM   23  N   UNL     1      27.023  42.319  52.350  1.00  0.00    -0.272 N 
HETATM   24  N   UNL     1      27.813  42.492  53.418  1.00  0.00    -0.174 NA
HETATM   25  H   UNL     1      26.810  41.374  52.045  1.00  0.00     0.189 HD
HETATM   26  C   UNL     1      27.885  43.824  53.575  1.00  0.00     0.089 A 
HETATM   27  C   UNL     1      27.124  44.480  52.567  1.00  0.00     0.071 A 
BRANCH  26  28
HETATM   28  C   UNL     1      28.619  44.434  54.685  1.00  0.00    -0.006 A 
HETATM   29  C   UNL     1      28.085  45.513  55.401  1.00  0.00     0.014 A 
HETATM   30  C   UNL     1      28.772  46.054  56.494  1.00  0.00     0.007 A 
HETATM   31  C   UNL     1      30.009  45.531  56.885  1.00  0.00    -0.062 A 
HETATM   32  C   UNL     1      30.719  46.074  58.089  1.00  0.00     0.048 C 
HETATM   33  C   UNL     1      30.546  44.453  56.173  1.00  0.00     0.007 A 
HETATM   34  C   UNL     1      29.861  43.917  55.078  1.00  0.00     0.014 A 
ENDBRANCH  26  28
ENDBRANCH   1  22
TORSDOF 7
ENDMDL
