MODEL 1
REMARK VINA RESULT:      -9.4      0.000      0.000
REMARK  9 active torsions:
REMARK  status: ('A' for Active; 'I' for Inactive)
REMARK    1  A    between atoms: C_4  and  S_5 
REMARK    2  A    between atoms: S_5  and  C_6 
REMARK    3  A    between atoms: C_6  and  C_7 
REMARK       I    between atoms: C_7  and  N_8 
REMARK    4  A    between atoms: N_8  and  C_9 
REMARK    5  A    between atoms: N_11  and  C_12 
REMARK    6  A    between atoms: C_12  and  C_13 
REMARK       I    between atoms: C_13  and  N_14 
REMARK    7  A    between atoms: N_14  and  C_15 
REMARK    8  A    between atoms: C_15  and  C_16 
REMARK    9  A    between atoms: C_16  and  N_17 
ROOT
HETATM    1  C   UNL     1      24.043  49.639  48.628  1.00  0.00     0.253 C 
ENDROOT
BRANCH   1   2
HETATM    2  N   UNL     1      25.100  48.747  49.085  1.00  0.00    -0.270 N 
HETATM    3  C   UNL     1      24.891  47.649  49.871  1.00  0.00     0.144 A 
HETATM    4  C   UNL     1      26.126  47.201  50.265  1.00  0.00     0.071 A 
HETATM    5  C   UNL     1      27.030  48.075  49.623  1.00  0.00     0.169 A 
HETATM    6  N   UNL     1      26.416  49.047  48.933  1.00  0.00    -0.183 NA
BRANCH   4   7
HETATM    7  N   UNL     1      26.425  46.167  51.131  1.00  0.00    -0.324 N 
HETATM    8  C   UNL     1      26.870  44.915  50.741  1.00  0.00     0.231 C 
HETATM    9  O   UNL     1      27.250  44.617  49.610  1.00  0.00    -0.272 OA
HETATM   10  H   UNL     1      26.139  46.272  52.099  1.00  0.00     0.169 HD
BRANCH   8  11
HETATM   11  C   UNL     1      26.896  43.874  51.851  1.00  0.00     0.182 C 
BRANCH  11  12
HETATM   12  S   UNL     1      26.688  44.588  53.521  1.00  0.00    -0.121 SA
BRANCH  12  13
HETATM   13  C   UNL     1      28.278  44.358  54.314  1.00  0.00     0.001 A 
HETATM   14  C   UNL     1      29.142  43.276  54.118  1.00  0.00     0.018 A 
HETATM   15  C   UNL     1      30.350  43.188  54.821  1.00  0.00     0.001 A 
HETATM   16  C   UNL     1      30.715  44.186  55.719  1.00  0.00     0.000 A 
HETATM   17  C   UNL     1      29.874  45.275  55.916  1.00  0.00     0.001 A 
HETATM   18  C   UNL     1      28.665  45.358  55.221  1.00  0.00     0.018 A 
ENDBRANCH  12  13
ENDBRANCH  11  12
ENDBRANCH   8  11
ENDBRANCH   4   7
ENDBRANCH   1   2
BRANCH   1  19
HETATM   19  C   UNL     1      22.660  49.045  48.461  1.00  0.00     0.237 C 
HETATM   20  N   UNL     1      21.724  49.317  49.436  1.00  0.00    -0.357 N 
HETATM   21  H   UNL     1      21.905  50.187  49.954  1.00  0.00     0.162 HD
HETATM   22  O   UNL     1      22.421  48.233  47.567  1.00  0.00    -0.272 OA
BRANCH  20  23
HETATM   23  C   UNL     1      20.360  48.834  49.339  1.00  0.00     0.161 C 
BRANCH  23  24
HETATM   24  C   UNL     1      19.293  49.893  48.893  1.00  0.00     0.143 C 
HETATM   25  C   UNL     1      19.943  51.231  48.452  1.00  0.00     0.041 C 
HETATM   26  C   UNL     1      18.938  52.350  48.175  1.00  0.00     0.002 C 
HETATM   27  C   UNL     1      18.041  52.606  49.380  1.00  0.00     0.000 C 
HETATM   28  C   UNL     1      17.372  51.331  49.880  1.00  0.00     0.002 C 
HETATM   29  C   UNL     1      18.392  50.216  50.123  1.00  0.00     0.041 C 
BRANCH  24  30
HETATM   30  N   UNL     1      18.378  49.345  47.734  1.00  0.00    -0.057 N 
HETATM   31  H   UNL     1      17.738  50.110  47.502  1.00  0.00     0.281 HD
HETATM   32  C   UNL     1      19.080  49.010  46.405  1.00  0.00     0.262 C 
HETATM   33  C   UNL     1      18.022  48.690  45.338  1.00  0.00     0.195 C 
HETATM   34  O   UNL     1      17.201  47.591  45.741  1.00  0.00    -0.388 OA
HETATM   35  C   UNL     1      16.507  47.865  46.960  1.00  0.00     0.195 C 
HETATM   36  C   UNL     1      17.489  48.149  48.104  1.00  0.00     0.262 C 
ENDBRANCH  24  30
ENDBRANCH  23  24
ENDBRANCH  20  23
ENDBRANCH   1  19
TORSDOF 9
ENDMDL
MODEL 2
REMARK VINA RESULT:      -9.1      2.043      3.105
REMARK  9 active torsions:
REMARK  status: ('A' for Active; 'I' for Inactive)
REMARK    1  A    between atoms: C_4  and  S_5 
REMARK    2  A    between atoms: S_5  and  C_6 
REMARK    3  A    between atoms: C_6  and  C_7 
REMARK       I    between atoms: C_7  and  N_8 
REMARK    4  A    between atoms: N_8  and  C_9 
REMARK    5  A    between atoms: N_11  and  C_12 
REMARK    6  A    between atoms: C_12  and  C_13 
REMARK       I    between atoms: C_13  and  N_14 
REMARK    7  A    between atoms: N_14  and  C_15 
REMARK    8  A    between atoms: C_15  and  C_16 
REMARK    9  A    between atoms: C_16  and  N_17 
ROOT
HETATM    1  C   UNL     1      24.087  50.219  48.114  1.00  0.00     0.253 C 
ENDROOT
BRANCH   1   2
HETATM    2  N   UNL     1      24.817  49.152  48.784  1.00  0.00    -0.270 N 
HETATM    3  C   UNL     1      24.225  48.149  49.500  1.00  0.00     0.144 A 
HETATM    4  C   UNL     1      25.229  47.478  50.149  1.00  0.00     0.071 A 
HETATM    5  C   UNL     1      26.409  48.127  49.725  1.00  0.00     0.169 A 
HETATM    6  N   UNL     1      26.168  49.175  48.923  1.00  0.00    -0.183 NA
BRANCH   4   7
HETATM    7  N   UNL     1      25.118  46.439  51.053  1.00  0.00    -0.324 N 
HETATM    8  C   UNL     1      25.477  46.513  52.389  1.00  0.00     0.231 C 
HETATM    9  O   UNL     1      25.747  47.549  52.995  1.00  0.00    -0.272 OA
HETATM   10  H   UNL     1      24.923  45.515  50.680  1.00  0.00     0.169 HD
BRANCH   8  11
HETATM   11  C   UNL     1      25.493  45.178  53.119  1.00  0.00     0.182 C 
BRANCH  11  12
HETATM   12  S   UNL     1      26.402  43.871  52.222  1.00  0.00    -0.121 SA
BRANCH  12  13
HETATM   13  C   UNL     1      27.922  43.658  53.147  1.00  0.00     0.001 A 
HETATM   14  C   UNL     1      28.167  44.134  54.439  1.00  0.00     0.018 A 
HETATM   15  C   UNL     1      29.410  43.933  55.051  1.00  0.00     0.001 A 
HETATM   16  C   UNL     1      30.419  43.243  54.386  1.00  0.00     0.000 A 
HETATM   17  C   UNL     1      30.187  42.752  53.106  1.00  0.00     0.001 A 
HETATM   18  C   UNL     1      28.949  42.960  52.492  1.00  0.00     0.018 A 
ENDBRANCH  12  13
ENDBRANCH  11  12
ENDBRANCH   8  11
ENDBRANCH   4   7
ENDBRANCH   1   2
BRANCH   1  19
HETATM   19  C   UNL     1      22.854  50.757  48.810  1.00  0.00     0.237 C 
HETATM   20  N   UNL     1      21.726  50.965  48.043  1.00  0.00    -0.357 N 
HETATM   21  H   UNL     1      21.687  50.384  47.196  1.00  0.00     0.162 HD
HETATM   22  O   UNL     1      22.898  51.132  49.981  1.00  0.00    -0.272 OA
BRANCH  20  23
HETATM   23  C   UNL     1      20.483  51.431  48.628  1.00  0.00     0.161 C 
BRANCH  23  24
HETATM   24  C   UNL     1      19.362  50.348  48.795  1.00  0.00     0.143 C 
HETATM   25  C   UNL     1      19.516  49.542  50.113  1.00  0.00     0.041 C 
HETATM   26  C   UNL     1      18.551  48.362  50.236  1.00  0.00     0.002 C 
HETATM   27  C   UNL     1      18.679  47.409  49.054  1.00  0.00     0.000 C 
HETATM   28  C   UNL     1      18.549  48.132  47.717  1.00  0.00     0.002 C 
HETATM   29  C   UNL     1      19.501  49.326  47.626  1.00  0.00     0.041 C 
BRANCH  24  30
HETATM   30  N   UNL     1      17.923  50.986  48.733  1.00  0.00    -0.057 N 
HETATM   31  H   UNL     1      17.270  50.202  48.822  1.00  0.00     0.281 HD
HETATM   32  C   UNL     1      17.544  51.940  49.880  1.00  0.00     0.262 C 
HETATM   33  C   UNL     1      16.055  52.301  49.769  1.00  0.00     0.195 C 
HETATM   34  O   UNL     1      15.767  52.919  48.512  1.00  0.00    -0.388 OA
HETATM   35  C   UNL     1      16.080  52.059  47.413  1.00  0.00     0.195 C 
HETATM   36  C   UNL     1      17.567  51.683  47.411  1.00  0.00     0.262 C 
ENDBRANCH  24  30
ENDBRANCH  23  24
ENDBRANCH  20  23
ENDBRANCH   1  19
TORSDOF 9
ENDMDL
MODEL 3
REMARK VINA RESULT:      -9.0      1.106      1.427
REMARK  9 active torsions:
REMARK  status: ('A' for Active; 'I' for Inactive)
REMARK    1  A    between atoms: C_4  and  S_5 
REMARK    2  A    between atoms: S_5  and  C_6 
REMARK    3  A    between atoms: C_6  and  C_7 
REMARK       I    between atoms: C_7  and  N_8 
REMARK    4  A    between atoms: N_8  and  C_9 
REMARK    5  A    between atoms: N_11  and  C_12 
REMARK    6  A    between atoms: C_12  and  C_13 
REMARK       I    between atoms: C_13  and  N_14 
REMARK    7  A    between atoms: N_14  and  C_15 
REMARK    8  A    between atoms: C_15  and  C_16 
REMARK    9  A    between atoms: C_16  and  N_17 
ROOT
HETATM    1  C   UNL     1      23.896  48.874  49.452  1.00  0.00     0.253 C 
ENDROOT
BRANCH   1   2
HETATM    2  N   UNL     1      24.818  47.804  49.808  1.00  0.00    -0.270 N 
HETATM    3  C   UNL     1      24.715  47.047  50.941  1.00  0.00     0.144 A 
HETATM    4  C   UNL     1      25.866  46.309  51.031  1.00  0.00     0.071 A 
HETATM    5  C   UNL     1      26.593  46.658  49.872  1.00  0.00     0.169 A 
HETATM    6  N   UNL     1      25.981  47.598  49.137  1.00  0.00    -0.183 NA
BRANCH   4   7
HETATM    7  N   UNL     1      26.259  45.457  52.046  1.00  0.00    -0.324 N 
HETATM    8  C   UNL     1      25.548  44.343  52.462  1.00  0.00     0.231 C 
HETATM    9  O   UNL     1      24.591  43.849  51.866  1.00  0.00    -0.272 OA
HETATM   10  H   UNL     1      27.027  45.759  52.638  1.00  0.00     0.169 HD
BRANCH   8  11
HETATM   11  C   UNL     1      26.053  43.708  53.749  1.00  0.00     0.182 C 
BRANCH  11  12
HETATM   12  S   UNL     1      27.663  42.864  53.558  1.00  0.00    -0.121 SA
BRANCH  12  13
HETATM   13  C   UNL     1      28.784  43.781  54.614  1.00  0.00     0.001 A 
HETATM   14  C   UNL     1      28.563  45.064  55.124  1.00  0.00     0.018 A 
HETATM   15  C   UNL     1      29.529  45.695  55.916  1.00  0.00     0.001 A 
HETATM   16  C   UNL     1      30.723  45.047  56.219  1.00  0.00     0.000 A 
HETATM   17  C   UNL     1      30.953  43.766  55.730  1.00  0.00     0.001 A 
HETATM   18  C   UNL     1      29.992  43.140  54.932  1.00  0.00     0.018 A 
ENDBRANCH  12  13
ENDBRANCH  11  12
ENDBRANCH   8  11
ENDBRANCH   4   7
ENDBRANCH   1   2
BRANCH   1  19
HETATM   19  C   UNL     1      22.595  48.474  48.787  1.00  0.00     0.237 C 
HETATM   20  N   UNL     1      21.430  48.645  49.505  1.00  0.00    -0.357 N 
HETATM   21  H   UNL     1      21.492  49.370  50.231  1.00  0.00     0.162 HD
HETATM   22  O   UNL     1      22.589  47.886  47.705  1.00  0.00    -0.272 OA
BRANCH  20  23
HETATM   23  C   UNL     1      20.132  48.337  48.935  1.00  0.00     0.161 C 
BRANCH  23  24
HETATM   24  C   UNL     1      19.199  49.568  48.665  1.00  0.00     0.143 C 
HETATM   25  C   UNL     1      19.994  50.815  48.195  1.00  0.00     0.041 C 
HETATM   26  C   UNL     1      19.150  52.086  48.086  1.00  0.00     0.002 C 
HETATM   27  C   UNL     1      18.453  52.408  49.403  1.00  0.00     0.000 C 
HETATM   28  C   UNL     1      17.657  51.223  49.937  1.00  0.00     0.002 C 
HETATM   29  C   UNL     1      18.512  49.955  50.009  1.00  0.00     0.041 C 
BRANCH  24  30
HETATM   30  N   UNL     1      18.079  49.229  47.611  1.00  0.00    -0.057 N 
HETATM   31  H   UNL     1      17.564  50.102  47.464  1.00  0.00     0.281 HD
HETATM   32  C   UNL     1      18.559  48.820  46.206  1.00  0.00     0.262 C 
HETATM   33  C   UNL     1      17.349  48.727  45.264  1.00  0.00     0.195 C 
HETATM   34  O   UNL     1      16.394  47.777  45.743  1.00  0.00    -0.388 OA
HETATM   35  C   UNL     1      15.900  48.128  47.037  1.00  0.00     0.195 C 
HETATM   36  C   UNL     1      17.037  48.196  48.065  1.00  0.00     0.262 C 
ENDBRANCH  24  30
ENDBRANCH  23  24
ENDBRANCH  20  23
ENDBRANCH   1  19
TORSDOF 9
ENDMDL
MODEL 4
REMARK VINA RESULT:      -9.0      1.749      2.162
REMARK  9 active torsions:
REMARK  status: ('A' for Active; 'I' for Inactive)
REMARK    1  A    between atoms: C_4  and  S_5 
REMARK    2  A    between atoms: S_5  and  C_6 
REMARK    3  A    between atoms: C_6  and  C_7 
REMARK       I    between atoms: C_7  and  N_8 
REMARK    4  A    between atoms: N_8  and  C_9 
REMARK    5  A    between atoms: N_11  and  C_12 
REMARK    6  A    between atoms: C_12  and  C_13 
REMARK       I    between atoms: C_13  and  N_14 
REMARK    7  A    between atoms: N_14  and  C_15 
REMARK    8  A    between atoms: C_15  and  C_16 
REMARK    9  A    between atoms: C_16  and  N_17 
ROOT
HETATM    1  C   UNL     1      22.166  45.423  47.999  1.00  0.00     0.253 C 
ENDROOT
BRANCH   1   2
HETATM    2  N   UNL     1      23.277  45.809  48.858  1.00  0.00    -0.270 N 
HETATM    3  C   UNL     1      24.111  44.923  49.479  1.00  0.00     0.144 A 
HETATM    4  C   UNL     1      24.877  45.646  50.357  1.00  0.00     0.071 A 
HETATM    5  C   UNL     1      24.461  46.981  50.161  1.00  0.00     0.169 A 
HETATM    6  N   UNL     1      23.457  47.089  49.277  1.00  0.00    -0.183 NA
BRANCH   4   7
HETATM    7  N   UNL     1      25.808  45.179  51.265  1.00  0.00    -0.324 N 
HETATM    8  C   UNL     1      27.042  44.647  50.929  1.00  0.00     0.231 C 
HETATM    9  O   UNL     1      27.558  44.700  49.813  1.00  0.00    -0.272 OA
HETATM   10  H   UNL     1      25.503  45.060  52.226  1.00  0.00     0.169 HD
BRANCH   8  11
HETATM   11  C   UNL     1      27.783  43.980  52.079  1.00  0.00     0.182 C 
BRANCH  11  12
HETATM   12  S   UNL     1      27.237  44.556  53.725  1.00  0.00    -0.121 SA
BRANCH  12  13
HETATM   13  C   UNL     1      28.719  44.528  54.731  1.00  0.00     0.001 A 
HETATM   14  C   UNL     1      29.150  45.549  55.583  1.00  0.00     0.018 A 
HETATM   15  C   UNL     1      30.348  45.426  56.298  1.00  0.00     0.001 A 
HETATM   16  C   UNL     1      31.123  44.277  56.180  1.00  0.00     0.000 A 
HETATM   17  C   UNL     1      30.702  43.246  55.347  1.00  0.00     0.001 A 
HETATM   18  C   UNL     1      29.511  43.373  54.627  1.00  0.00     0.018 A 
ENDBRANCH  12  13
ENDBRANCH  11  12
ENDBRANCH   8  11
ENDBRANCH   4   7
ENDBRANCH   1   2
BRANCH   1  19
HETATM   19  C   UNL     1      20.772  45.794  48.462  1.00  0.00     0.237 C 
HETATM   20  N   UNL     1      20.549  47.104  48.834  1.00  0.00    -0.357 N 
HETATM   21  H   UNL     1      21.196  47.775  48.401  1.00  0.00     0.162 HD
HETATM   22  O   UNL     1      19.911  44.933  48.638  1.00  0.00    -0.272 OA
BRANCH  20  23
HETATM   23  C   UNL     1      19.236  47.565  49.244  1.00  0.00     0.161 C 
BRANCH  23  24
HETATM   24  C   UNL     1      18.869  49.032  48.825  1.00  0.00     0.143 C 
HETATM   25  C   UNL     1      20.093  49.807  48.270  1.00  0.00     0.041 C 
HETATM   26  C   UNL     1      19.825  51.290  48.012  1.00  0.00     0.002 C 
HETATM   27  C   UNL     1      19.318  51.993  49.265  1.00  0.00     0.000 C 
HETATM   28  C   UNL     1      18.117  51.280  49.878  1.00  0.00     0.002 C 
HETATM   29  C   UNL     1      18.397  49.793  50.101  1.00  0.00     0.041 C 
BRANCH  24  30
HETATM   30  N   UNL     1      17.704  49.059  47.766  1.00  0.00    -0.057 N 
HETATM   31  H   UNL     1      17.494  50.050  47.612  1.00  0.00     0.281 HD
HETATM   32  C   UNL     1      18.034  48.509  46.367  1.00  0.00     0.262 C 
HETATM   33  C   UNL     1      16.861  48.800  45.418  1.00  0.00     0.195 C 
HETATM   34  O   UNL     1      15.652  48.207  45.896  1.00  0.00    -0.388 OA
HETATM   35  C   UNL     1      15.289  48.706  47.186  1.00  0.00     0.195 C 
HETATM   36  C   UNL     1      16.385  48.415  48.220  1.00  0.00     0.262 C 
ENDBRANCH  24  30
ENDBRANCH  23  24
ENDBRANCH  20  23
ENDBRANCH   1  19
TORSDOF 9
ENDMDL
MODEL 5
REMARK VINA RESULT:      -8.7      2.051      3.133
REMARK  9 active torsions:
REMARK  status: ('A' for Active; 'I' for Inactive)
REMARK    1  A    between atoms: C_4  and  S_5 
REMARK    2  A    between atoms: S_5  and  C_6 
REMARK    3  A    between atoms: C_6  and  C_7 
REMARK       I    between atoms: C_7  and  N_8 
REMARK    4  A    between atoms: N_8  and  C_9 
REMARK    5  A    between atoms: N_11  and  C_12 
REMARK    6  A    between atoms: C_12  and  C_13 
REMARK       I    between atoms: C_13  and  N_14 
REMARK    7  A    between atoms: N_14  and  C_15 
REMARK    8  A    between atoms: C_15  and  C_16 
REMARK    9  A    between atoms: C_16  and  N_17 
ROOT
HETATM    1  C   UNL     1      24.016  48.354  49.358  1.00  0.00     0.253 C 
ENDROOT
BRANCH   1   2
HETATM    2  N   UNL     1      24.072  46.986  49.855  1.00  0.00    -0.270 N 
HETATM    3  C   UNL     1      24.970  46.544  50.785  1.00  0.00     0.144 A 
HETATM    4  C   UNL     1      24.854  45.178  50.832  1.00  0.00     0.071 A 
HETATM    5  C   UNL     1      23.817  44.889  49.917  1.00  0.00     0.169 A 
HETATM    6  N   UNL     1      23.359  45.979  49.286  1.00  0.00    -0.183 NA
BRANCH   4   7
HETATM    7  N   UNL     1      25.608  44.280  51.562  1.00  0.00    -0.324 N 
HETATM    8  C   UNL     1      25.628  44.207  52.945  1.00  0.00     0.231 C 
HETATM    9  O   UNL     1      24.842  44.781  53.698  1.00  0.00    -0.272 OA
HETATM   10  H   UNL     1      26.320  43.755  51.064  1.00  0.00     0.169 HD
BRANCH   8  11
HETATM   11  C   UNL     1      26.714  43.309  53.520  1.00  0.00     0.182 C 
BRANCH  11  12
HETATM   12  S   UNL     1      28.389  43.716  52.914  1.00  0.00    -0.121 SA
BRANCH  12  13
HETATM   13  C   UNL     1      29.340  44.047  54.396  1.00  0.00     0.001 A 
HETATM   14  C   UNL     1      30.403  43.276  54.876  1.00  0.00     0.018 A 
HETATM   15  C   UNL     1      31.053  43.618  56.068  1.00  0.00     0.001 A 
HETATM   16  C   UNL     1      30.657  44.740  56.789  1.00  0.00     0.000 A 
HETATM   17  C   UNL     1      29.610  45.526  56.318  1.00  0.00     0.001 A 
HETATM   18  C   UNL     1      28.957  45.179  55.133  1.00  0.00     0.018 A 
ENDBRANCH  12  13
ENDBRANCH  11  12
ENDBRANCH   8  11
ENDBRANCH   4   7
ENDBRANCH   1   2
BRANCH   1  19
HETATM   19  C   UNL     1      22.729  49.121  49.584  1.00  0.00     0.237 C 
HETATM   20  N   UNL     1      21.543  48.482  49.288  1.00  0.00    -0.357 N 
HETATM   21  H   UNL     1      21.603  47.456  49.329  1.00  0.00     0.162 HD
HETATM   22  O   UNL     1      22.745  50.315  49.880  1.00  0.00    -0.272 OA
BRANCH  20  23
HETATM   23  C   UNL     1      20.259  49.116  49.518  1.00  0.00     0.161 C 
BRANCH  23  24
HETATM   24  C   UNL     1      19.048  48.504  48.732  1.00  0.00     0.143 C 
HETATM   25  C   UNL     1      17.962  47.930  49.680  1.00  0.00     0.041 C 
HETATM   26  C   UNL     1      16.847  47.170  48.960  1.00  0.00     0.002 C 
HETATM   27  C   UNL     1      17.404  46.040  48.102  1.00  0.00     0.000 C 
HETATM   28  C   UNL     1      18.490  46.527  47.148  1.00  0.00     0.002 C 
HETATM   29  C   UNL     1      19.579  47.309  47.883  1.00  0.00     0.041 C 
BRANCH  24  30
HETATM   30  N   UNL     1      18.395  49.557  47.759  1.00  0.00    -0.057 N 
HETATM   31  H   UNL     1      17.627  49.063  47.293  1.00  0.00     0.281 HD
HETATM   32  C   UNL     1      17.729  50.779  48.416  1.00  0.00     0.262 C 
HETATM   33  C   UNL     1      16.975  51.583  47.346  1.00  0.00     0.195 C 
HETATM   34  O   UNL     1      17.859  52.015  46.308  1.00  0.00    -0.388 OA
HETATM   35  C   UNL     1      18.484  50.911  45.650  1.00  0.00     0.195 C 
HETATM   36  C   UNL     1      19.307  50.072  46.636  1.00  0.00     0.262 C 
ENDBRANCH  24  30
ENDBRANCH  23  24
ENDBRANCH  20  23
ENDBRANCH   1  19
TORSDOF 9
ENDMDL
MODEL 6
REMARK VINA RESULT:      -8.4      2.728      4.235
REMARK  9 active torsions:
REMARK  status: ('A' for Active; 'I' for Inactive)
REMARK    1  A    between atoms: C_4  and  S_5 
REMARK    2  A    between atoms: S_5  and  C_6 
REMARK    3  A    between atoms: C_6  and  C_7 
REMARK       I    between atoms: C_7  and  N_8 
REMARK    4  A    between atoms: N_8  and  C_9 
REMARK    5  A    between atoms: N_11  and  C_12 
REMARK    6  A    between atoms: C_12  and  C_13 
REMARK       I    between atoms: C_13  and  N_14 
REMARK    7  A    between atoms: N_14  and  C_15 
REMARK    8  A    between atoms: C_15  and  C_16 
REMARK    9  A    between atoms: C_16  and  N_17 
ROOT
HETATM    1  C   UNL     1      20.463  44.729  47.149  1.00  0.00     0.253 C 
ENDROOT
BRANCH   1   2
HETATM    2  N   UNL     1      21.590  44.107  47.831  1.00  0.00    -0.270 N 
HETATM    3  C   UNL     1      22.494  44.788  48.597  1.00  0.00     0.144 A 
HETATM    4  C   UNL     1      23.511  43.913  48.882  1.00  0.00     0.071 A 
HETATM    5  C   UNL     1      23.107  42.703  48.277  1.00  0.00     0.169 A 
HETATM    6  N   UNL     1      21.955  42.819  47.599  1.00  0.00    -0.183 NA
BRANCH   4   7
HETATM    7  N   UNL     1      24.689  44.163  49.560  1.00  0.00    -0.324 N 
HETATM    8  C   UNL     1      24.783  44.389  50.923  1.00  0.00     0.231 C 
HETATM    9  O   UNL     1      23.880  44.201  51.738  1.00  0.00    -0.272 OA
HETATM   10  H   UNL     1      25.515  44.362  49.003  1.00  0.00     0.169 HD
BRANCH   8  11
HETATM   11  C   UNL     1      26.144  44.880  51.395  1.00  0.00     0.182 C 
BRANCH  11  12
HETATM   12  S   UNL     1      27.498  43.700  51.057  1.00  0.00    -0.121 SA
BRANCH  12  13
HETATM   13  C   UNL     1      28.492  43.711  52.548  1.00  0.00     0.001 A 
HETATM   14  C   UNL     1      29.638  42.943  52.774  1.00  0.00     0.018 A 
HETATM   15  C   UNL     1      30.317  43.013  53.996  1.00  0.00     0.001 A 
HETATM   16  C   UNL     1      29.867  43.860  55.004  1.00  0.00     0.000 A 
HETATM   17  C   UNL     1      28.736  44.641  54.791  1.00  0.00     0.001 A 
HETATM   18  C   UNL     1      28.054  44.565  53.574  1.00  0.00     0.018 A 
ENDBRANCH  12  13
ENDBRANCH  11  12
ENDBRANCH   8  11
ENDBRANCH   4   7
ENDBRANCH   1   2
BRANCH   1  19
HETATM   19  C   UNL     1      20.645  46.154  46.669  1.00  0.00     0.237 C 
HETATM   20  N   UNL     1      19.878  47.133  47.265  1.00  0.00    -0.357 N 
HETATM   21  H   UNL     1      19.564  46.894  48.214  1.00  0.00     0.162 HD
HETATM   22  O   UNL     1      21.342  46.409  45.687  1.00  0.00    -0.272 OA
BRANCH  20  23
HETATM   23  C   UNL     1      20.017  48.532  46.907  1.00  0.00     0.161 C 
BRANCH  23  24
HETATM   24  C   UNL     1      20.207  49.525  48.106  1.00  0.00     0.143 C 
HETATM   25  C   UNL     1      19.326  49.148  49.326  1.00  0.00     0.041 C 
HETATM   26  C   UNL     1      19.347  50.182  50.452  1.00  0.00     0.002 C 
HETATM   27  C   UNL     1      18.937  51.562  49.951  1.00  0.00     0.000 C 
HETATM   28  C   UNL     1      19.755  52.000  48.740  1.00  0.00     0.002 C 
HETATM   29  C   UNL     1      19.745  50.938  47.638  1.00  0.00     0.041 C 
BRANCH  24  30
HETATM   30  N   UNL     1      21.715  49.614  48.553  1.00  0.00    -0.057 N 
HETATM   31  H   UNL     1      21.721  50.209  49.388  1.00  0.00     0.281 HD
HETATM   32  C   UNL     1      22.376  48.300  49.008  1.00  0.00     0.262 C 
HETATM   33  C   UNL     1      23.762  48.606  49.596  1.00  0.00     0.195 C 
HETATM   34  O   UNL     1      24.596  49.259  48.636  1.00  0.00    -0.388 OA
HETATM   35  C   UNL     1      24.035  50.500  48.201  1.00  0.00     0.195 C 
HETATM   36  C   UNL     1      22.662  50.288  47.549  1.00  0.00     0.262 C 
ENDBRANCH  24  30
ENDBRANCH  23  24
ENDBRANCH  20  23
ENDBRANCH   1  19
TORSDOF 9
ENDMDL
MODEL 7
REMARK VINA RESULT:      -8.4      1.899      2.437
REMARK  9 active torsions:
REMARK  status: ('A' for Active; 'I' for Inactive)
REMARK    1  A    between atoms: C_4  and  S_5 
REMARK    2  A    between atoms: S_5  and  C_6 
REMARK    3  A    between atoms: C_6  and  C_7 
REMARK       I    between atoms: C_7  and  N_8 
REMARK    4  A    between atoms: N_8  and  C_9 
REMARK    5  A    between atoms: N_11  and  C_12 
REMARK    6  A    between atoms: C_12  and  C_13 
REMARK       I    between atoms: C_13  and  N_14 
REMARK    7  A    between atoms: N_14  and  C_15 
REMARK    8  A    between atoms: C_15  and  C_16 
REMARK    9  A    between atoms: C_16  and  N_17 
ROOT
HETATM    1  C   UNL     1      23.135  49.639  48.272  1.00  0.00     0.253 C 
ENDROOT
BRANCH   1   2
HETATM    2  N   UNL     1      23.303  48.289  48.790  1.00  0.00    -0.270 N 
HETATM    3  C   UNL     1      24.320  47.905  49.619  1.00  0.00     0.144 A 
HETATM    4  C   UNL     1      24.265  46.539  49.709  1.00  0.00     0.071 A 
HETATM    5  C   UNL     1      23.143  46.185  48.928  1.00  0.00     0.169 A 
HETATM    6  N   UNL     1      22.571  47.241  48.330  1.00  0.00    -0.183 NA
BRANCH   4   7
HETATM    7  N   UNL     1      25.134  45.689  50.367  1.00  0.00    -0.324 N 
HETATM    8  C   UNL     1      24.746  44.626  51.166  1.00  0.00     0.231 C 
HETATM    9  O   UNL     1      23.605  44.172  51.238  1.00  0.00    -0.272 OA
HETATM   10  H   UNL     1      26.112  45.961  50.407  1.00  0.00     0.169 HD
BRANCH   8  11
HETATM   11  C   UNL     1      25.869  43.993  51.974  1.00  0.00     0.182 C 
BRANCH  11  12
HETATM   12  S   UNL     1      26.602  45.124  53.208  1.00  0.00    -0.121 SA
BRANCH  12  13
HETATM   13  C   UNL     1      28.155  44.353  53.664  1.00  0.00     0.001 A 
HETATM   14  C   UNL     1      28.837  43.385  52.921  1.00  0.00     0.018 A 
HETATM   15  C   UNL     1      30.032  42.830  53.396  1.00  0.00     0.001 A 
HETATM   16  C   UNL     1      30.566  43.245  54.612  1.00  0.00     0.000 A 
HETATM   17  C   UNL     1      29.907  44.217  55.357  1.00  0.00     0.001 A 
HETATM   18  C   UNL     1      28.710  44.764  54.886  1.00  0.00     0.018 A 
ENDBRANCH  12  13
ENDBRANCH  11  12
ENDBRANCH   8  11
ENDBRANCH   4   7
ENDBRANCH   1   2
BRANCH   1  19
HETATM   19  C   UNL     1      22.189  50.555  49.020  1.00  0.00     0.237 C 
HETATM   20  N   UNL     1      21.130  51.092  48.318  1.00  0.00    -0.357 N 
HETATM   21  H   UNL     1      20.847  50.534  47.501  1.00  0.00     0.162 HD
HETATM   22  O   UNL     1      22.434  50.922  50.168  1.00  0.00    -0.272 OA
BRANCH  20  23
HETATM   23  C   UNL     1      20.142  51.939  48.959  1.00  0.00     0.161 C 
BRANCH  23  24
HETATM   24  C   UNL     1      18.646  51.527  48.738  1.00  0.00     0.143 C 
HETATM   25  C   UNL     1      18.135  51.902  47.322  1.00  0.00     0.041 C 
HETATM   26  C   UNL     1      16.636  51.677  47.121  1.00  0.00     0.002 C 
HETATM   27  C   UNL     1      15.814  52.429  48.161  1.00  0.00     0.000 C 
HETATM   28  C   UNL     1      16.265  52.119  49.584  1.00  0.00     0.002 C 
HETATM   29  C   UNL     1      17.772  52.322  49.755  1.00  0.00     0.041 C 
BRANCH  24  30
HETATM   30  N   UNL     1      18.425  49.987  48.987  1.00  0.00    -0.057 N 
HETATM   31  H   UNL     1      17.410  49.848  48.973  1.00  0.00     0.281 HD
HETATM   32  C   UNL     1      18.963  49.032  47.906  1.00  0.00     0.262 C 
HETATM   33  C   UNL     1      18.484  47.604  48.206  1.00  0.00     0.195 C 
HETATM   34  O   UNL     1      18.927  47.172  49.495  1.00  0.00    -0.388 OA
HETATM   35  C   UNL     1      18.432  48.015  50.537  1.00  0.00     0.195 C 
HETATM   36  C   UNL     1      18.903  49.463  50.349  1.00  0.00     0.262 C 
ENDBRANCH  24  30
ENDBRANCH  23  24
ENDBRANCH  20  23
ENDBRANCH   1  19
TORSDOF 9
ENDMDL
MODEL 8
REMARK VINA RESULT:      -8.1      1.921      2.200
REMARK  9 active torsions:
REMARK  status: ('A' for Active; 'I' for Inactive)
REMARK    1  A    between atoms: C_4  and  S_5 
REMARK    2  A    between atoms: S_5  and  C_6 
REMARK    3  A    between atoms: C_6  and  C_7 
REMARK       I    between atoms: C_7  and  N_8 
REMARK    4  A    between atoms: N_8  and  C_9 
REMARK    5  A    between atoms: N_11  and  C_12 
REMARK    6  A    between atoms: C_12  and  C_13 
REMARK       I    between atoms: C_13  and  N_14 
REMARK    7  A    between atoms: N_14  and  C_15 
REMARK    8  A    between atoms: C_15  and  C_16 
REMARK    9  A    between atoms: C_16  and  N_17 
ROOT
HETATM    1  C   UNL     1      22.754  48.290  48.916  1.00  0.00     0.253 C 
ENDROOT
BRANCH   1   2
HETATM    2  N   UNL     1      23.394  47.002  49.151  1.00  0.00    -0.270 N 
HETATM    3  C   UNL     1      24.544  46.836  49.871  1.00  0.00     0.144 A 
HETATM    4  C   UNL     1      24.943  45.538  49.687  1.00  0.00     0.071 A 
HETATM    5  C   UNL     1      23.937  44.979  48.869  1.00  0.00     0.169 A 
HETATM    6  N   UNL     1      23.007  45.873  48.503  1.00  0.00    -0.183 NA
BRANCH   4   7
HETATM    7  N   UNL     1      26.092  44.923  50.148  1.00  0.00    -0.324 N 
HETATM    8  C   UNL     1      26.198  44.251  51.354  1.00  0.00     0.231 C 
HETATM    9  O   UNL     1      25.253  43.937  52.077  1.00  0.00    -0.272 OA
HETATM   10  H   UNL     1      26.957  45.120  49.654  1.00  0.00     0.169 HD
BRANCH   8  11
HETATM   11  C   UNL     1      27.617  43.873  51.750  1.00  0.00     0.182 C 
BRANCH  11  12
HETATM   12  S   UNL     1      27.697  42.795  53.224  1.00  0.00    -0.121 SA
BRANCH  12  13
HETATM   13  C   UNL     1      28.825  43.631  54.337  1.00  0.00     0.001 A 
HETATM   14  C   UNL     1      30.003  43.094  54.865  1.00  0.00     0.018 A 
HETATM   15  C   UNL     1      30.791  43.834  55.755  1.00  0.00     0.001 A 
HETATM   16  C   UNL     1      30.419  45.124  56.118  1.00  0.00     0.000 A 
HETATM   17  C   UNL     1      29.257  45.679  55.592  1.00  0.00     0.001 A 
HETATM   18  C   UNL     1      28.467  44.936  54.710  1.00  0.00     0.018 A 
ENDBRANCH  12  13
ENDBRANCH  11  12
ENDBRANCH   8  11
ENDBRANCH   4   7
ENDBRANCH   1   2
BRANCH   1  19
HETATM   19  C   UNL     1      21.267  48.282  48.632  1.00  0.00     0.237 C 
HETATM   20  N   UNL     1      20.831  48.919  47.489  1.00  0.00    -0.357 N 
HETATM   21  H   UNL     1      21.546  48.987  46.752  1.00  0.00     0.162 HD
HETATM   22  O   UNL     1      20.464  47.852  49.459  1.00  0.00    -0.272 OA
BRANCH  20  23
HETATM   23  C   UNL     1      19.432  48.924  47.106  1.00  0.00     0.161 C 
BRANCH  23  24
HETATM   24  C   UNL     1      18.616  50.197  47.522  1.00  0.00     0.143 C 
HETATM   25  C   UNL     1      19.535  51.412  47.815  1.00  0.00     0.041 C 
HETATM   26  C   UNL     1      18.799  52.623  48.391  1.00  0.00     0.002 C 
HETATM   27  C   UNL     1      18.033  52.261  49.658  1.00  0.00     0.000 C 
HETATM   28  C   UNL     1      17.113  51.063  49.451  1.00  0.00     0.002 C 
HETATM   29  C   UNL     1      17.862  49.874  48.847  1.00  0.00     0.041 C 
BRANCH  24  30
HETATM   30  N   UNL     1      17.555  50.591  46.426  1.00  0.00    -0.057 N 
HETATM   31  H   UNL     1      17.051  51.398  46.808  1.00  0.00     0.281 HD
HETATM   32  C   UNL     1      18.110  51.082  45.077  1.00  0.00     0.262 C 
HETATM   33  C   UNL     1      16.954  51.611  44.215  1.00  0.00     0.195 C 
HETATM   34  O   UNL     1      15.971  50.597  43.992  1.00  0.00    -0.388 OA
HETATM   35  C   UNL     1      15.407  50.125  45.218  1.00  0.00     0.195 C 
HETATM   36  C   UNL     1      16.486  49.528  46.131  1.00  0.00     0.262 C 
ENDBRANCH  24  30
ENDBRANCH  23  24
ENDBRANCH  20  23
ENDBRANCH   1  19
TORSDOF 9
ENDMDL
MODEL 9
REMARK VINA RESULT:      -7.8     11.875     13.895
REMARK  9 active torsions:
REMARK  status: ('A' for Active; 'I' for Inactive)
REMARK    1  A    between atoms: C_4  and  S_5 
REMARK    2  A    between atoms: S_5  and  C_6 
REMARK    3  A    between atoms: C_6  and  C_7 
REMARK       I    between atoms: C_7  and  N_8 
REMARK    4  A    between atoms: N_8  and  C_9 
REMARK    5  A    between atoms: N_11  and  C_12 
REMARK    6  A    between atoms: C_12  and  C_13 
REMARK       I    between atoms: C_13  and  N_14 
REMARK    7  A    between atoms: N_14  and  C_15 
REMARK    8  A    between atoms: C_15  and  C_16 
REMARK    9  A    between atoms: C_16  and  N_17 
ROOT
HETATM    1  C   UNL     1      33.094  48.157  41.311  1.00  0.00     0.253 C 
ENDROOT
BRANCH   1   2
HETATM    2  N   UNL     1      33.622  49.434  41.772  1.00  0.00    -0.270 N 
HETATM    3  C   UNL     1      34.933  49.806  41.665  1.00  0.00     0.144 A 
HETATM    4  C   UNL     1      35.079  50.958  42.393  1.00  0.00     0.071 A 
HETATM    5  C   UNL     1      33.779  51.232  42.871  1.00  0.00     0.169 A 
HETATM    6  N   UNL     1      32.889  50.288  42.531  1.00  0.00    -0.183 NA
BRANCH   4   7
HETATM    7  N   UNL     1      36.237  51.667  42.650  1.00  0.00    -0.324 N 
HETATM    8  C   UNL     1      36.725  52.696  41.862  1.00  0.00     0.231 C 
HETATM    9  O   UNL     1      36.105  53.250  40.955  1.00  0.00    -0.272 OA
HETATM   10  H   UNL     1      36.860  51.300  43.364  1.00  0.00     0.169 HD
BRANCH   8  11
HETATM   11  C   UNL     1      38.133  53.154  42.211  1.00  0.00     0.182 C 
BRANCH  11  12
HETATM   12  S   UNL     1      38.930  52.131  43.499  1.00  0.00    -0.121 SA
BRANCH  12  13
HETATM   13  C   UNL     1      38.706  53.056  45.017  1.00  0.00     0.001 A 
HETATM   14  C   UNL     1      37.875  54.168  45.183  1.00  0.00     0.018 A 
HETATM   15  C   UNL     1      37.805  54.832  46.414  1.00  0.00     0.001 A 
HETATM   16  C   UNL     1      38.556  54.385  47.497  1.00  0.00     0.000 A 
HETATM   17  C   UNL     1      39.377  53.273  47.353  1.00  0.00     0.001 A 
HETATM   18  C   UNL     1      39.453  52.616  46.122  1.00  0.00     0.018 A 
ENDBRANCH  12  13
ENDBRANCH  11  12
ENDBRANCH   8  11
ENDBRANCH   4   7
ENDBRANCH   1   2
BRANCH   1  19
HETATM   19  C   UNL     1      31.887  48.195  40.398  1.00  0.00     0.237 C 
HETATM   20  N   UNL     1      31.633  49.371  39.722  1.00  0.00    -0.357 N 
HETATM   21  H   UNL     1      32.466  49.957  39.581  1.00  0.00     0.162 HD
HETATM   22  O   UNL     1      31.081  47.266  40.370  1.00  0.00    -0.272 OA
BRANCH  20  23
HETATM   23  C   UNL     1      30.529  49.489  38.788  1.00  0.00     0.161 C 
BRANCH  23  24
HETATM   24  C   UNL     1      29.518  50.653  39.074  1.00  0.00     0.143 C 
HETATM   25  C   UNL     1      29.498  51.706  37.934  1.00  0.00     0.041 C 
HETATM   26  C   UNL     1      28.658  52.945  38.247  1.00  0.00     0.002 C 
HETATM   27  C   UNL     1      29.113  53.618  39.536  1.00  0.00     0.000 C 
HETATM   28  C   UNL     1      29.170  52.640  40.705  1.00  0.00     0.002 C 
HETATM   29  C   UNL     1      29.990  51.395  40.361  1.00  0.00     0.041 C 
BRANCH  24  30
HETATM   30  N   UNL     1      28.060  50.110  39.316  1.00  0.00    -0.057 N 
HETATM   31  H   UNL     1      27.562  50.863  39.801  1.00  0.00     0.281 HD
HETATM   32  C   UNL     1      27.214  49.829  38.061  1.00  0.00     0.262 C 
HETATM   33  C   UNL     1      25.772  49.508  38.482  1.00  0.00     0.195 C 
HETATM   34  O   UNL     1      25.730  48.377  39.355  1.00  0.00    -0.388 OA
HETATM   35  C   UNL     1      26.483  48.599  40.549  1.00  0.00     0.195 C 
HETATM   36  C   UNL     1      27.957  48.880  40.231  1.00  0.00     0.262 C 
ENDBRANCH  24  30
ENDBRANCH  23  24
ENDBRANCH  20  23
ENDBRANCH   1  19
TORSDOF 9
ENDMDL
MODEL 10
REMARK VINA RESULT:      -7.8      2.287      3.442
REMARK  9 active torsions:
REMARK  status: ('A' for Active; 'I' for Inactive)
REMARK    1  A    between atoms: C_4  and  S_5 
REMARK    2  A    between atoms: S_5  and  C_6 
REMARK    3  A    between atoms: C_6  and  C_7 
REMARK       I    between atoms: C_7  and  N_8 
REMARK    4  A    between atoms: N_8  and  C_9 
REMARK    5  A    between atoms: N_11  and  C_12 
REMARK    6  A    between atoms: C_12  and  C_13 
REMARK       I    between atoms: C_13  and  N_14 
REMARK    7  A    between atoms: N_14  and  C_15 
REMARK    8  A    between atoms: C_15  and  C_16 
REMARK    9  A    between atoms: C_16  and  N_17 
ROOT
HETATM    1  C   UNL     1      23.663  48.892  49.251  1.00  0.00     0.253 C 
ENDROOT
BRANCH   1   2
HETATM    2  N   UNL     1      23.567  47.439  49.211  1.00  0.00    -0.270 N 
HETATM    3  C   UNL     1      24.474  46.595  49.786  1.00  0.00     0.144 A 
HETATM    4  C   UNL     1      24.168  45.330  49.356  1.00  0.00     0.071 A 
HETATM    5  C   UNL     1      23.022  45.507  48.551  1.00  0.00     0.169 A 
HETATM    6  N   UNL     1      22.668  46.794  48.423  1.00  0.00    -0.183 NA
BRANCH   4   7
HETATM    7  N   UNL     1      24.849  44.153  49.603  1.00  0.00    -0.324 N 
HETATM    8  C   UNL     1      24.476  43.208  50.544  1.00  0.00     0.231 C 
HETATM    9  O   UNL     1      23.398  43.183  51.137  1.00  0.00    -0.272 OA
HETATM   10  H   UNL     1      25.773  44.053  49.193  1.00  0.00     0.169 HD
BRANCH   8  11
HETATM   11  C   UNL     1      25.511  42.123  50.803  1.00  0.00     0.182 C 
BRANCH  11  12
HETATM   12  S   UNL     1      27.228  42.672  50.502  1.00  0.00    -0.121 SA
BRANCH  12  13
HETATM   13  C   UNL     1      27.897  42.984  52.135  1.00  0.00     0.001 A 
HETATM   14  C   UNL     1      27.182  43.469  53.234  1.00  0.00     0.018 A 
HETATM   15  C   UNL     1      27.822  43.705  54.457  1.00  0.00     0.001 A 
HETATM   16  C   UNL     1      29.181  43.447  54.600  1.00  0.00     0.000 A 
HETATM   17  C   UNL     1      29.905  42.952  53.521  1.00  0.00     0.001 A 
HETATM   18  C   UNL     1      29.268  42.725  52.298  1.00  0.00     0.018 A 
ENDBRANCH  12  13
ENDBRANCH  11  12
ENDBRANCH   8  11
ENDBRANCH   4   7
ENDBRANCH   1   2
BRANCH   1  19
HETATM   19  C   UNL     1      22.373  49.666  49.432  1.00  0.00     0.237 C 
HETATM   20  N   UNL     1      21.303  49.322  48.633  1.00  0.00    -0.357 N 
HETATM   21  H   UNL     1      21.336  48.353  48.289  1.00  0.00     0.162 HD
HETATM   22  O   UNL     1      22.324  50.658  50.159  1.00  0.00    -0.272 OA
BRANCH  20  23
HETATM   23  C   UNL     1      20.013  49.972  48.767  1.00  0.00     0.161 C 
BRANCH  23  24
HETATM   24  C   UNL     1      18.774  49.124  48.315  1.00  0.00     0.143 C 
HETATM   25  C   UNL     1      18.181  48.284  49.477  1.00  0.00     0.041 C 
HETATM   26  C   UNL     1      17.083  47.312  49.045  1.00  0.00     0.002 C 
HETATM   27  C   UNL     1      17.569  46.370  47.950  1.00  0.00     0.000 C 
HETATM   28  C   UNL     1      18.178  47.124  46.773  1.00  0.00     0.002 C 
HETATM   29  C   UNL     1      19.253  48.112  47.230  1.00  0.00     0.041 C 
BRANCH  24  30
HETATM   30  N   UNL     1      17.646  50.029  47.690  1.00  0.00    -0.057 N 
HETATM   31  H   UNL     1      16.921  49.382  47.366  1.00  0.00     0.281 HD
HETATM   32  C   UNL     1      16.916  50.980  48.656  1.00  0.00     0.262 C 
HETATM   33  C   UNL     1      15.727  51.627  47.929  1.00  0.00     0.195 C 
HETATM   34  O   UNL     1      16.160  52.350  46.774  1.00  0.00    -0.388 OA
HETATM   35  C   UNL     1      16.824  51.502  45.834  1.00  0.00     0.195 C 
HETATM   36  C   UNL     1      18.063  50.847  46.458  1.00  0.00     0.262 C 
ENDBRANCH  24  30
ENDBRANCH  23  24
ENDBRANCH  20  23
ENDBRANCH   1  19
TORSDOF 9
ENDMDL
