MODEL 1
REMARK VINA RESULT:      -8.7      0.000      0.000
REMARK  8 active torsions:
REMARK  status: ('A' for Active; 'I' for Inactive)
REMARK    1  A    between atoms: O_2  and  C_3 
REMARK    2  A    between atoms: C_6  and  C_7 
REMARK    3  A    between atoms: C_7  and  O_8 
REMARK    4  A    between atoms: C_7  and  C_9 
REMARK    5  A    between atoms: C_9  and  N_10 
REMARK    6  A    between atoms: C_11  and  N_12 
REMARK    7  A    between atoms: N_13  and  C_14 
REMARK    8  A    between atoms: C_14  and  C_15 
ROOT
HETATM    1  N   UNL     1      25.846  44.272  51.978  1.00  0.00    -0.178 N 
HETATM    2  C   UNL     1      25.381  45.518  52.000  1.00  0.00     0.681 A 
HETATM    3  N   UNL     1      24.774  45.788  50.852  1.00  0.00    -0.177 N 
HETATM    4  C   UNL     1      24.751  44.638  50.069  1.00  0.00     0.079 A 
HETATM    5  C   UNL     1      25.435  43.660  50.795  1.00  0.00     0.079 A 
HETATM    6  C   UNL     1      24.205  44.386  48.813  1.00  0.00     0.032 A 
HETATM    7  C   UNL     1      24.386  43.090  48.312  1.00  0.00     0.002 A 
HETATM    8  C   UNL     1      25.080  42.105  49.041  1.00  0.00     0.002 A 
HETATM    9  C   UNL     1      25.622  42.370  50.307  1.00  0.00     0.032 A 
ENDROOT
BRANCH   1  10
HETATM   10  C   UNL     1      26.716  43.656  52.989  1.00  0.00     0.184 C 
BRANCH  10  11
HETATM   11  C   UNL     1      28.228  43.808  52.690  1.00  0.00     0.170 C 
BRANCH  11  12
HETATM   12  C   UNL     1      29.040  44.075  53.940  1.00  0.00    -0.028 A 
HETATM   13  C   UNL     1      28.741  45.189  54.735  1.00  0.00     0.012 A 
HETATM   14  C   UNL     1      29.423  45.407  55.933  1.00  0.00     0.037 A 
HETATM   15  C   UNL     1      30.418  44.525  56.357  1.00  0.00     0.068 A 
HETATM   16  C   UNL     1      30.737  43.424  55.563  1.00  0.00     0.037 A 
HETATM   17  C   UNL     1      30.053  43.199  54.361  1.00  0.00     0.012 A 
BRANCH  15  18
HETATM   18  O   UNL     1      30.984  44.847  57.558  1.00  0.00    -0.356 OA
HETATM   19  C   UNL     1      30.585  46.074  58.157  1.00  0.00     0.210 C 
ENDBRANCH  15  18
ENDBRANCH  11  12
BRANCH  11  20
HETATM   20  O   UNL     1      28.703  42.626  52.046  1.00  0.00    -0.389 OA
HETATM   21  H   UNL     1      29.425  42.894  51.446  1.00  0.00     0.210 HD
ENDBRANCH  11  20
ENDBRANCH  10  11
ENDBRANCH   1  10
BRANCH   2  22
HETATM   22  N   UNL     1      25.491  46.367  53.020  1.00  0.00    -0.234 N 
HETATM   23  H   UNL     1      25.689  46.046  53.954  1.00  0.00     0.174 HD
HETATM   24  H   UNL     1      25.342  47.356  52.888  1.00  0.00     0.174 HD
ENDBRANCH   2  22
BRANCH   3  25
HETATM   25  C   UNL     1      24.288  47.097  50.434  1.00  0.00     0.186 C 
BRANCH  25  26
HETATM   26  C   UNL     1      25.362  47.923  49.769  1.00  0.00    -0.039 A 
HETATM   27  C   UNL     1      26.737  47.669  49.898  1.00  0.00     0.009 A 
HETATM   28  C   UNL     1      27.679  48.492  49.277  1.00  0.00     0.001 A 
HETATM   29  C   UNL     1      27.263  49.582  48.518  1.00  0.00     0.000 A 
HETATM   30  C   UNL     1      25.906  49.849  48.374  1.00  0.00     0.001 A 
HETATM   31  C   UNL     1      24.962  49.026  48.993  1.00  0.00     0.009 A 
ENDBRANCH  25  26
ENDBRANCH   3  25
TORSDOF 8
ENDMDL
MODEL 2
REMARK VINA RESULT:      -8.5      5.200      9.891
REMARK  8 active torsions:
REMARK  status: ('A' for Active; 'I' for Inactive)
REMARK    1  A    between atoms: O_2  and  C_3 
REMARK    2  A    between atoms: C_6  and  C_7 
REMARK    3  A    between atoms: C_7  and  O_8 
REMARK    4  A    between atoms: C_7  and  C_9 
REMARK    5  A    between atoms: C_9  and  N_10 
REMARK    6  A    between atoms: C_11  and  N_12 
REMARK    7  A    between atoms: N_13  and  C_14 
REMARK    8  A    between atoms: C_14  and  C_15 
ROOT
HETATM    1  N   UNL     1      23.761  48.985  48.633  1.00  0.00    -0.178 N 
HETATM    2  C   UNL     1      23.483  47.831  49.232  1.00  0.00     0.681 A 
HETATM    3  N   UNL     1      24.608  47.247  49.621  1.00  0.00    -0.177 N 
HETATM    4  C   UNL     1      25.677  48.097  49.352  1.00  0.00     0.079 A 
HETATM    5  C   UNL     1      25.132  49.219  48.722  1.00  0.00     0.079 A 
HETATM    6  C   UNL     1      27.042  47.972  49.600  1.00  0.00     0.032 A 
HETATM    7  C   UNL     1      27.844  49.038  49.173  1.00  0.00     0.002 A 
HETATM    8  C   UNL     1      27.297  50.167  48.534  1.00  0.00     0.002 A 
HETATM    9  C   UNL     1      25.920  50.283  48.293  1.00  0.00     0.032 A 
ENDROOT
BRANCH   1  10
HETATM   10  C   UNL     1      22.804  49.842  47.920  1.00  0.00     0.184 C 
BRANCH  10  11
HETATM   11  C   UNL     1      22.134  50.913  48.816  1.00  0.00     0.170 C 
BRANCH  11  12
HETATM   12  C   UNL     1      20.660  51.081  48.510  1.00  0.00    -0.028 A 
HETATM   13  C   UNL     1      19.827  51.715  49.441  1.00  0.00     0.012 A 
HETATM   14  C   UNL     1      18.485  51.952  49.144  1.00  0.00     0.037 A 
HETATM   15  C   UNL     1      17.947  51.557  47.919  1.00  0.00     0.068 A 
HETATM   16  C   UNL     1      18.762  50.906  46.993  1.00  0.00     0.037 A 
HETATM   17  C   UNL     1      20.110  50.668  47.286  1.00  0.00     0.012 A 
BRANCH  15  18
HETATM   18  O   UNL     1      16.628  51.873  47.752  1.00  0.00    -0.356 OA
HETATM   19  C   UNL     1      15.819  51.923  48.922  1.00  0.00     0.210 C 
ENDBRANCH  15  18
ENDBRANCH  11  12
BRANCH  11  20
HETATM   20  O   UNL     1      22.308  50.557  50.187  1.00  0.00    -0.389 OA
HETATM   21  H   UNL     1      22.975  49.846  50.219  1.00  0.00     0.210 HD
ENDBRANCH  11  20
ENDBRANCH  10  11
ENDBRANCH   1  10
BRANCH   2  22
HETATM   22  N   UNL     1      22.262  47.336  49.429  1.00  0.00    -0.234 N 
HETATM   23  H   UNL     1      21.958  46.489  48.976  1.00  0.00     0.174 HD
HETATM   24  H   UNL     1      21.595  47.820  50.010  1.00  0.00     0.174 HD
ENDBRANCH   2  22
BRANCH   3  25
HETATM   25  C   UNL     1      24.725  45.898  50.158  1.00  0.00     0.186 C 
BRANCH  25  26
HETATM   26  C   UNL     1      25.448  45.867  51.483  1.00  0.00    -0.039 A 
HETATM   27  C   UNL     1      25.259  46.816  52.500  1.00  0.00     0.009 A 
HETATM   28  C   UNL     1      25.984  46.743  53.692  1.00  0.00     0.001 A 
HETATM   29  C   UNL     1      26.908  45.721  53.887  1.00  0.00     0.000 A 
HETATM   30  C   UNL     1      27.109  44.769  52.893  1.00  0.00     0.001 A 
HETATM   31  C   UNL     1      26.384  44.839  51.701  1.00  0.00     0.009 A 
ENDBRANCH  25  26
ENDBRANCH   3  25
TORSDOF 8
ENDMDL
MODEL 3
REMARK VINA RESULT:      -8.5      2.991      5.301
REMARK  8 active torsions:
REMARK  status: ('A' for Active; 'I' for Inactive)
REMARK    1  A    between atoms: O_2  and  C_3 
REMARK    2  A    between atoms: C_6  and  C_7 
REMARK    3  A    between atoms: C_7  and  O_8 
REMARK    4  A    between atoms: C_7  and  C_9 
REMARK    5  A    between atoms: C_9  and  N_10 
REMARK    6  A    between atoms: C_11  and  N_12 
REMARK    7  A    between atoms: N_13  and  C_14 
REMARK    8  A    between atoms: C_14  and  C_15 
ROOT
HETATM    1  N   UNL     1      26.038  43.595  50.700  1.00  0.00    -0.178 N 
HETATM    2  C   UNL     1      25.395  44.558  50.047  1.00  0.00     0.681 A 
HETATM    3  N   UNL     1      25.346  45.650  50.799  1.00  0.00    -0.177 N 
HETATM    4  C   UNL     1      26.073  45.432  51.965  1.00  0.00     0.079 A 
HETATM    5  C   UNL     1      26.525  44.112  51.900  1.00  0.00     0.079 A 
HETATM    6  C   UNL     1      26.358  46.264  53.046  1.00  0.00     0.032 A 
HETATM    7  C   UNL     1      27.122  45.696  54.074  1.00  0.00     0.002 A 
HETATM    8  C   UNL     1      27.573  44.363  54.011  1.00  0.00     0.002 A 
HETATM    9  C   UNL     1      27.283  43.537  52.916  1.00  0.00     0.032 A 
ENDROOT
BRANCH   1  10
HETATM   10  C   UNL     1      26.156  42.193  50.275  1.00  0.00     0.184 C 
BRANCH  10  11
HETATM   11  C   UNL     1      27.200  41.963  49.155  1.00  0.00     0.170 C 
BRANCH  11  12
HETATM   12  C   UNL     1      28.051  40.736  49.404  1.00  0.00    -0.028 A 
HETATM   13  C   UNL     1      28.376  40.372  50.717  1.00  0.00     0.012 A 
HETATM   14  C   UNL     1      29.090  39.200  50.971  1.00  0.00     0.037 A 
HETATM   15  C   UNL     1      29.500  38.375  49.923  1.00  0.00     0.068 A 
HETATM   16  C   UNL     1      29.200  38.738  48.611  1.00  0.00     0.037 A 
HETATM   17  C   UNL     1      28.481  39.912  48.351  1.00  0.00     0.012 A 
BRANCH  15  18
HETATM   18  O   UNL     1      30.168  37.250  50.318  1.00  0.00    -0.356 OA
HETATM   19  C   UNL     1      29.896  36.757  51.624  1.00  0.00     0.210 C 
ENDBRANCH  15  18
ENDBRANCH  11  12
BRANCH  11  20
HETATM   20  O   UNL     1      26.529  41.843  47.901  1.00  0.00    -0.389 OA
HETATM   21  H   UNL     1      27.196  41.989  47.203  1.00  0.00     0.210 HD
ENDBRANCH  11  20
ENDBRANCH  10  11
ENDBRANCH   1  10
BRANCH   2  22
HETATM   22  N   UNL     1      24.887  44.456  48.821  1.00  0.00    -0.234 N 
HETATM   23  H   UNL     1      24.296  43.683  48.558  1.00  0.00     0.174 HD
HETATM   24  H   UNL     1      25.112  45.135  48.109  1.00  0.00     0.174 HD
ENDBRANCH   2  22
BRANCH   3  25
HETATM   25  C   UNL     1      24.582  46.855  50.501  1.00  0.00     0.186 C 
BRANCH  25  26
HETATM   26  C   UNL     1      25.400  47.888  49.766  1.00  0.00    -0.039 A 
HETATM   27  C   UNL     1      26.800  47.968  49.831  1.00  0.00     0.009 A 
HETATM   28  C   UNL     1      27.493  48.970  49.147  1.00  0.00     0.001 A 
HETATM   29  C   UNL     1      26.799  49.906  48.386  1.00  0.00     0.000 A 
HETATM   30  C   UNL     1      25.412  49.842  48.305  1.00  0.00     0.001 A 
HETATM   31  C   UNL     1      24.717  48.841  48.988  1.00  0.00     0.009 A 
ENDBRANCH  25  26
ENDBRANCH   3  25
TORSDOF 8
ENDMDL
MODEL 4
REMARK VINA RESULT:      -8.4      2.916      7.713
REMARK  8 active torsions:
REMARK  status: ('A' for Active; 'I' for Inactive)
REMARK    1  A    between atoms: O_2  and  C_3 
REMARK    2  A    between atoms: C_6  and  C_7 
REMARK    3  A    between atoms: C_7  and  O_8 
REMARK    4  A    between atoms: C_7  and  C_9 
REMARK    5  A    between atoms: C_9  and  N_10 
REMARK    6  A    between atoms: C_11  and  N_12 
REMARK    7  A    between atoms: N_13  and  C_14 
REMARK    8  A    between atoms: C_14  and  C_15 
ROOT
HETATM    1  N   UNL     1      25.576  44.982  51.437  1.00  0.00    -0.178 N 
HETATM    2  C   UNL     1      25.849  44.961  52.738  1.00  0.00     0.681 A 
HETATM    3  N   UNL     1      26.526  43.860  53.034  1.00  0.00    -0.177 N 
HETATM    4  C   UNL     1      26.796  43.163  51.860  1.00  0.00     0.079 A 
HETATM    5  C   UNL     1      26.191  43.888  50.830  1.00  0.00     0.079 A 
HETATM    6  C   UNL     1      27.500  41.984  51.626  1.00  0.00     0.032 A 
HETATM    7  C   UNL     1      27.562  41.560  50.292  1.00  0.00     0.002 A 
HETATM    8  C   UNL     1      26.948  42.287  49.255  1.00  0.00     0.002 A 
HETATM    9  C   UNL     1      26.245  43.475  49.502  1.00  0.00     0.032 A 
ENDROOT
BRANCH   1  10
HETATM   10  C   UNL     1      24.704  45.947  50.752  1.00  0.00     0.184 C 
BRANCH  10  11
HETATM   11  C   UNL     1      25.468  47.116  50.083  1.00  0.00     0.170 C 
BRANCH  11  12
HETATM   12  C   UNL     1      24.544  48.055  49.335  1.00  0.00    -0.028 A 
HETATM   13  C   UNL     1      23.185  47.739  49.213  1.00  0.00     0.012 A 
HETATM   14  C   UNL     1      22.304  48.629  48.599  1.00  0.00     0.037 A 
HETATM   15  C   UNL     1      22.760  49.846  48.090  1.00  0.00     0.068 A 
HETATM   16  C   UNL     1      24.115  50.161  48.188  1.00  0.00     0.037 A 
HETATM   17  C   UNL     1      25.003  49.272  48.806  1.00  0.00     0.012 A 
BRANCH  15  18
HETATM   18  O   UNL     1      21.785  50.629  47.539  1.00  0.00    -0.356 OA
HETATM   19  C   UNL     1      20.886  51.273  48.433  1.00  0.00     0.210 C 
ENDBRANCH  15  18
ENDBRANCH  11  12
BRANCH  11  20
HETATM   20  O   UNL     1      26.193  47.838  51.078  1.00  0.00    -0.389 OA
HETATM   21  H   UNL     1      27.125  47.867  50.791  1.00  0.00     0.210 HD
ENDBRANCH  11  20
ENDBRANCH  10  11
ENDBRANCH   1  10
BRANCH   2  22
HETATM   22  N   UNL     1      25.512  45.905  53.615  1.00  0.00    -0.234 N 
HETATM   23  H   UNL     1      25.991  46.791  53.647  1.00  0.00     0.174 HD
HETATM   24  H   UNL     1      24.788  45.741  54.299  1.00  0.00     0.174 HD
ENDBRANCH   2  22
BRANCH   3  25
HETATM   25  C   UNL     1      26.856  43.399  54.377  1.00  0.00     0.186 C 
BRANCH  25  26
HETATM   26  C   UNL     1      28.264  43.765  54.780  1.00  0.00    -0.039 A 
HETATM   27  C   UNL     1      29.372  42.922  54.604  1.00  0.00     0.009 A 
HETATM   28  C   UNL     1      30.645  43.313  55.027  1.00  0.00     0.001 A 
HETATM   29  C   UNL     1      30.831  44.553  55.631  1.00  0.00     0.000 A 
HETATM   30  C   UNL     1      29.747  45.406  55.811  1.00  0.00     0.001 A 
HETATM   31  C   UNL     1      28.473  45.017  55.388  1.00  0.00     0.009 A 
ENDBRANCH  25  26
ENDBRANCH   3  25
TORSDOF 8
ENDMDL
MODEL 5
REMARK VINA RESULT:      -8.3      3.053      7.495
REMARK  8 active torsions:
REMARK  status: ('A' for Active; 'I' for Inactive)
REMARK    1  A    between atoms: O_2  and  C_3 
REMARK    2  A    between atoms: C_6  and  C_7 
REMARK    3  A    between atoms: C_7  and  O_8 
REMARK    4  A    between atoms: C_7  and  C_9 
REMARK    5  A    between atoms: C_9  and  N_10 
REMARK    6  A    between atoms: C_11  and  N_12 
REMARK    7  A    between atoms: N_13  and  C_14 
REMARK    8  A    between atoms: C_14  and  C_15 
ROOT
HETATM    1  N   UNL     1      26.585  44.251  50.658  1.00  0.00    -0.178 N 
HETATM    2  C   UNL     1      26.647  44.560  51.950  1.00  0.00     0.681 A 
HETATM    3  N   UNL     1      27.051  43.503  52.642  1.00  0.00    -0.177 N 
HETATM    4  C   UNL     1      27.363  42.474  51.759  1.00  0.00     0.079 A 
HETATM    5  C   UNL     1      27.070  42.956  50.481  1.00  0.00     0.079 A 
HETATM    6  C   UNL     1      27.860  41.190  51.974  1.00  0.00     0.032 A 
HETATM    7  C   UNL     1      28.045  40.403  50.830  1.00  0.00     0.002 A 
HETATM    8  C   UNL     1      27.745  40.887  49.542  1.00  0.00     0.002 A 
HETATM    9  C   UNL     1      27.249  42.183  49.338  1.00  0.00     0.032 A 
ENDROOT
BRANCH   1  10
HETATM   10  C   UNL     1      26.027  45.096  49.594  1.00  0.00     0.184 C 
BRANCH  10  11
HETATM   11  C   UNL     1      24.540  44.803  49.277  1.00  0.00     0.170 C 
BRANCH  11  12
HETATM   12  C   UNL     1      23.711  46.067  49.181  1.00  0.00    -0.028 A 
HETATM   13  C   UNL     1      24.212  47.266  49.704  1.00  0.00     0.012 A 
HETATM   14  C   UNL     1      23.500  48.456  49.554  1.00  0.00     0.037 A 
HETATM   15  C   UNL     1      22.273  48.473  48.888  1.00  0.00     0.068 A 
HETATM   16  C   UNL     1      21.755  47.281  48.383  1.00  0.00     0.037 A 
HETATM   17  C   UNL     1      22.468  46.085  48.528  1.00  0.00     0.012 A 
BRANCH  15  18
HETATM   18  O   UNL     1      21.699  49.709  48.794  1.00  0.00    -0.356 OA
HETATM   19  C   UNL     1      22.266  50.751  49.578  1.00  0.00     0.210 C 
ENDBRANCH  15  18
ENDBRANCH  11  12
BRANCH  11  20
HETATM   20  O   UNL     1      24.452  44.072  48.054  1.00  0.00    -0.389 OA
HETATM   21  H   UNL     1      23.507  43.892  47.893  1.00  0.00     0.210 HD
ENDBRANCH  11  20
ENDBRANCH  10  11
ENDBRANCH   1  10
BRANCH   2  22
HETATM   22  N   UNL     1      26.362  45.750  52.477  1.00  0.00    -0.234 N 
HETATM   23  H   UNL     1      26.902  46.132  53.236  1.00  0.00     0.174 HD
HETATM   24  H   UNL     1      25.571  46.283  52.151  1.00  0.00     0.174 HD
ENDBRANCH   2  22
BRANCH   3  25
HETATM   25  C   UNL     1      27.079  43.397  54.096  1.00  0.00     0.186 C 
BRANCH  25  26
HETATM   26  C   UNL     1      28.420  43.777  54.674  1.00  0.00    -0.039 A 
HETATM   27  C   UNL     1      29.539  42.929  54.676  1.00  0.00     0.009 A 
HETATM   28  C   UNL     1      30.744  43.334  55.255  1.00  0.00     0.001 A 
HETATM   29  C   UNL     1      30.851  44.592  55.841  1.00  0.00     0.000 A 
HETATM   30  C   UNL     1      29.755  45.449  55.846  1.00  0.00     0.001 A 
HETATM   31  C   UNL     1      28.549  45.046  55.267  1.00  0.00     0.009 A 
ENDBRANCH  25  26
ENDBRANCH   3  25
TORSDOF 8
ENDMDL
MODEL 6
REMARK VINA RESULT:      -8.3      2.871      4.918
REMARK  8 active torsions:
REMARK  status: ('A' for Active; 'I' for Inactive)
REMARK    1  A    between atoms: O_2  and  C_3 
REMARK    2  A    between atoms: C_6  and  C_7 
REMARK    3  A    between atoms: C_7  and  O_8 
REMARK    4  A    between atoms: C_7  and  C_9 
REMARK    5  A    between atoms: C_9  and  N_10 
REMARK    6  A    between atoms: C_11  and  N_12 
REMARK    7  A    between atoms: N_13  and  C_14 
REMARK    8  A    between atoms: C_14  and  C_15 
ROOT
HETATM    1  N   UNL     1      24.291  46.815  49.850  1.00  0.00    -0.178 N 
HETATM    2  C   UNL     1      23.138  46.843  49.189  1.00  0.00     0.681 A 
HETATM    3  N   UNL     1      23.081  47.934  48.437  1.00  0.00    -0.177 N 
HETATM    4  C   UNL     1      24.292  48.614  48.532  1.00  0.00     0.079 A 
HETATM    5  C   UNL     1      25.074  47.891  49.436  1.00  0.00     0.079 A 
HETATM    6  C   UNL     1      24.748  49.778  47.917  1.00  0.00     0.032 A 
HETATM    7  C   UNL     1      26.042  50.188  48.263  1.00  0.00     0.002 A 
HETATM    8  C   UNL     1      26.830  49.463  49.178  1.00  0.00     0.002 A 
HETATM    9  C   UNL     1      26.360  48.291  49.788  1.00  0.00     0.032 A 
ENDROOT
BRANCH   1  10
HETATM   10  C   UNL     1      24.660  45.860  50.905  1.00  0.00     0.184 C 
BRANCH  10  11
HETATM   11  C   UNL     1      25.831  44.923  50.520  1.00  0.00     0.170 C 
BRANCH  11  12
HETATM   12  C   UNL     1      26.814  44.733  51.656  1.00  0.00    -0.028 A 
HETATM   13  C   UNL     1      26.646  45.453  52.846  1.00  0.00     0.012 A 
HETATM   14  C   UNL     1      27.492  45.231  53.933  1.00  0.00     0.037 A 
HETATM   15  C   UNL     1      28.524  44.295  53.853  1.00  0.00     0.068 A 
HETATM   16  C   UNL     1      28.713  43.588  52.666  1.00  0.00     0.037 A 
HETATM   17  C   UNL     1      27.864  43.804  51.574  1.00  0.00     0.012 A 
BRANCH  15  18
HETATM   18  O   UNL     1      29.258  44.164  54.998  1.00  0.00    -0.356 OA
HETATM   19  C   UNL     1      30.427  43.357  54.931  1.00  0.00     0.210 C 
ENDBRANCH  15  18
ENDBRANCH  11  12
BRANCH  11  20
HETATM   20  O   UNL     1      25.311  43.659  50.111  1.00  0.00    -0.389 OA
HETATM   21  H   UNL     1      25.066  43.739  49.169  1.00  0.00     0.210 HD
ENDBRANCH  11  20
ENDBRANCH  10  11
ENDBRANCH   1  10
BRANCH   2  22
HETATM   22  N   UNL     1      22.186  45.914  49.253  1.00  0.00    -0.234 N 
HETATM   23  H   UNL     1      21.221  46.159  49.408  1.00  0.00     0.174 HD
HETATM   24  H   UNL     1      22.414  44.933  49.186  1.00  0.00     0.174 HD
ENDBRANCH   2  22
BRANCH   3  25
HETATM   25  C   UNL     1      21.913  48.401  47.702  1.00  0.00     0.186 C 
BRANCH  25  26
HETATM   26  C   UNL     1      21.112  49.418  48.480  1.00  0.00    -0.039 A 
HETATM   27  C   UNL     1      20.306  49.100  49.584  1.00  0.00     0.009 A 
HETATM   28  C   UNL     1      19.568  50.088  50.241  1.00  0.00     0.001 A 
HETATM   29  C   UNL     1      19.626  51.409  49.806  1.00  0.00     0.000 A 
HETATM   30  C   UNL     1      20.423  51.746  48.716  1.00  0.00     0.001 A 
HETATM   31  C   UNL     1      21.161  50.759  48.059  1.00  0.00     0.009 A 
ENDBRANCH  25  26
ENDBRANCH   3  25
TORSDOF 8
ENDMDL
MODEL 7
REMARK VINA RESULT:      -8.1      3.222      5.163
REMARK  8 active torsions:
REMARK  status: ('A' for Active; 'I' for Inactive)
REMARK    1  A    between atoms: O_2  and  C_3 
REMARK    2  A    between atoms: C_6  and  C_7 
REMARK    3  A    between atoms: C_7  and  O_8 
REMARK    4  A    between atoms: C_7  and  C_9 
REMARK    5  A    between atoms: C_9  and  N_10 
REMARK    6  A    between atoms: C_11  and  N_12 
REMARK    7  A    between atoms: N_13  and  C_14 
REMARK    8  A    between atoms: C_14  and  C_15 
ROOT
HETATM    1  N   UNL     1      27.229  41.704  51.778  1.00  0.00    -0.178 N 
HETATM    2  C   UNL     1      27.552  40.691  50.980  1.00  0.00     0.681 A 
HETATM    3  N   UNL     1      26.660  40.590  50.004  1.00  0.00    -0.177 N 
HETATM    4  C   UNL     1      25.756  41.643  50.103  1.00  0.00     0.079 A 
HETATM    5  C   UNL     1      26.125  42.365  51.241  1.00  0.00     0.079 A 
HETATM    6  C   UNL     1      24.671  42.007  49.310  1.00  0.00     0.032 A 
HETATM    7  C   UNL     1      23.960  43.142  49.724  1.00  0.00     0.002 A 
HETATM    8  C   UNL     1      24.328  43.867  50.873  1.00  0.00     0.002 A 
HETATM    9  C   UNL     1      25.426  43.493  51.662  1.00  0.00     0.032 A 
ENDROOT
BRANCH   1  10
HETATM   10  C   UNL     1      27.871  42.036  53.058  1.00  0.00     0.184 C 
BRANCH  10  11
HETATM   11  C   UNL     1      29.107  42.958  52.918  1.00  0.00     0.170 C 
BRANCH  11  12
HETATM   12  C   UNL     1      29.354  43.782  54.165  1.00  0.00    -0.028 A 
HETATM   13  C   UNL     1      30.404  43.437  55.027  1.00  0.00     0.012 A 
HETATM   14  C   UNL     1      30.699  44.230  56.136  1.00  0.00     0.037 A 
HETATM   15  C   UNL     1      29.952  45.376  56.411  1.00  0.00     0.068 A 
HETATM   16  C   UNL     1      28.891  45.717  55.571  1.00  0.00     0.037 A 
HETATM   17  C   UNL     1      28.593  44.925  54.455  1.00  0.00     0.012 A 
BRANCH  15  18
HETATM   18  O   UNL     1      30.366  46.070  57.512  1.00  0.00    -0.356 OA
HETATM   19  C   UNL     1      30.971  45.323  58.561  1.00  0.00     0.210 C 
ENDBRANCH  15  18
ENDBRANCH  11  12
BRANCH  11  20
HETATM   20  O   UNL     1      30.257  42.166  52.624  1.00  0.00    -0.389 OA
HETATM   21  H   UNL     1      30.998  42.781  52.469  1.00  0.00     0.210 HD
ENDBRANCH  11  20
ENDBRANCH  10  11
ENDBRANCH   1  10
BRANCH   2  22
HETATM   22  N   UNL     1      28.615  39.901  51.124  1.00  0.00    -0.234 N 
HETATM   23  H   UNL     1      29.180  39.924  51.958  1.00  0.00     0.174 HD
HETATM   24  H   UNL     1      28.905  39.283  50.380  1.00  0.00     0.174 HD
ENDBRANCH   2  22
BRANCH   3  25
HETATM   25  C   UNL     1      26.578  39.504  49.035  1.00  0.00     0.186 C 
BRANCH  25  26
HETATM   26  C   UNL     1      26.845  39.970  47.624  1.00  0.00    -0.039 A 
HETATM   27  C   UNL     1      25.950  39.789  46.558  1.00  0.00     0.009 A 
HETATM   28  C   UNL     1      26.273  40.221  45.270  1.00  0.00     0.001 A 
HETATM   29  C   UNL     1      27.495  40.841  45.026  1.00  0.00     0.000 A 
HETATM   30  C   UNL     1      28.395  41.034  46.070  1.00  0.00     0.001 A 
HETATM   31  C   UNL     1      28.073  40.604  47.359  1.00  0.00     0.009 A 
ENDBRANCH  25  26
ENDBRANCH   3  25
TORSDOF 8
ENDMDL
MODEL 8
REMARK VINA RESULT:      -8.1      2.609      5.900
REMARK  8 active torsions:
REMARK  status: ('A' for Active; 'I' for Inactive)
REMARK    1  A    between atoms: O_2  and  C_3 
REMARK    2  A    between atoms: C_6  and  C_7 
REMARK    3  A    between atoms: C_7  and  O_8 
REMARK    4  A    between atoms: C_7  and  C_9 
REMARK    5  A    between atoms: C_9  and  N_10 
REMARK    6  A    between atoms: C_11  and  N_12 
REMARK    7  A    between atoms: N_13  and  C_14 
REMARK    8  A    between atoms: C_14  and  C_15 
ROOT
HETATM    1  N   UNL     1      27.254  44.238  51.706  1.00  0.00    -0.178 N 
HETATM    2  C   UNL     1      26.552  44.778  50.715  1.00  0.00     0.681 A 
HETATM    3  N   UNL     1      25.916  45.856  51.154  1.00  0.00    -0.177 N 
HETATM    4  C   UNL     1      26.288  46.096  52.473  1.00  0.00     0.079 A 
HETATM    5  C   UNL     1      27.154  45.059  52.828  1.00  0.00     0.079 A 
HETATM    6  C   UNL     1      25.938  47.111  53.362  1.00  0.00     0.032 A 
HETATM    7  C   UNL     1      26.502  47.029  54.641  1.00  0.00     0.002 A 
HETATM    8  C   UNL     1      27.372  45.981  55.001  1.00  0.00     0.002 A 
HETATM    9  C   UNL     1      27.720  44.967  54.097  1.00  0.00     0.032 A 
ENDROOT
BRANCH   1  10
HETATM   10  C   UNL     1      27.957  42.948  51.665  1.00  0.00     0.184 C 
BRANCH  10  11
HETATM   11  C   UNL     1      27.014  41.720  51.662  1.00  0.00     0.170 C 
BRANCH  11  12
HETATM   12  C   UNL     1      27.157  40.886  50.406  1.00  0.00    -0.028 A 
HETATM   13  C   UNL     1      28.238  41.112  49.543  1.00  0.00     0.012 A 
HETATM   14  C   UNL     1      28.432  40.301  48.425  1.00  0.00     0.037 A 
HETATM   15  C   UNL     1      27.551  39.257  48.140  1.00  0.00     0.068 A 
HETATM   16  C   UNL     1      26.460  39.037  48.980  1.00  0.00     0.037 A 
HETATM   17  C   UNL     1      26.263  39.847  50.106  1.00  0.00     0.012 A 
BRANCH  15  18
HETATM   18  O   UNL     1      27.875  38.531  47.029  1.00  0.00    -0.356 OA
HETATM   19  C   UNL     1      28.862  37.517  47.180  1.00  0.00     0.210 C 
ENDBRANCH  15  18
ENDBRANCH  11  12
BRANCH  11  20
HETATM   20  O   UNL     1      27.281  40.916  52.810  1.00  0.00    -0.389 OA
HETATM   21  H   UNL     1      26.714  40.125  52.747  1.00  0.00     0.210 HD
ENDBRANCH  11  20
ENDBRANCH  10  11
ENDBRANCH   1  10
BRANCH   2  22
HETATM   22  N   UNL     1      26.501  44.322  49.464  1.00  0.00    -0.234 N 
HETATM   23  H   UNL     1      27.260  44.469  48.819  1.00  0.00     0.174 HD
HETATM   24  H   UNL     1      25.679  43.848  49.120  1.00  0.00     0.174 HD
ENDBRANCH   2  22
BRANCH   3  25
HETATM   25  C   UNL     1      24.918  46.616  50.413  1.00  0.00     0.186 C 
BRANCH  25  26
HETATM   26  C   UNL     1      25.518  47.795  49.685  1.00  0.00    -0.039 A 
HETATM   27  C   UNL     1      26.896  48.053  49.616  1.00  0.00     0.009 A 
HETATM   28  C   UNL     1      27.381  49.180  48.948  1.00  0.00     0.001 A 
HETATM   29  C   UNL     1      26.498  50.066  48.338  1.00  0.00     0.000 A 
HETATM   30  C   UNL     1      25.128  49.826  48.391  1.00  0.00     0.001 A 
HETATM   31  C   UNL     1      24.641  48.699  49.058  1.00  0.00     0.009 A 
ENDBRANCH  25  26
ENDBRANCH   3  25
TORSDOF 8
ENDMDL
MODEL 9
REMARK VINA RESULT:      -8.1      3.652      7.907
REMARK  8 active torsions:
REMARK  status: ('A' for Active; 'I' for Inactive)
REMARK    1  A    between atoms: O_2  and  C_3 
REMARK    2  A    between atoms: C_6  and  C_7 
REMARK    3  A    between atoms: C_7  and  O_8 
REMARK    4  A    between atoms: C_7  and  C_9 
REMARK    5  A    between atoms: C_9  and  N_10 
REMARK    6  A    between atoms: C_11  and  N_12 
REMARK    7  A    between atoms: N_13  and  C_14 
REMARK    8  A    between atoms: C_14  and  C_15 
ROOT
HETATM    1  N   UNL     1      27.416  42.053  51.138  1.00  0.00    -0.178 N 
HETATM    2  C   UNL     1      27.364  41.896  52.457  1.00  0.00     0.681 A 
HETATM    3  N   UNL     1      27.053  43.051  53.032  1.00  0.00    -0.177 N 
HETATM    4  C   UNL     1      26.793  43.995  52.043  1.00  0.00     0.079 A 
HETATM    5  C   UNL     1      27.020  43.352  50.823  1.00  0.00     0.079 A 
HETATM    6  C   UNL     1      26.393  45.327  52.119  1.00  0.00     0.032 A 
HETATM    7  C   UNL     1      26.237  45.992  50.896  1.00  0.00     0.002 A 
HETATM    8  C   UNL     1      26.470  45.347  49.667  1.00  0.00     0.002 A 
HETATM    9  C   UNL     1      26.868  44.004  49.603  1.00  0.00     0.032 A 
ENDROOT
BRANCH   1  10
HETATM   10  C   UNL     1      27.887  41.056  50.167  1.00  0.00     0.184 C 
BRANCH  10  11
HETATM   11  C   UNL     1      26.753  40.215  49.532  1.00  0.00     0.170 C 
BRANCH  11  12
HETATM   12  C   UNL     1      27.227  39.417  48.336  1.00  0.00    -0.028 A 
HETATM   13  C   UNL     1      27.119  39.964  47.051  1.00  0.00     0.012 A 
HETATM   14  C   UNL     1      27.624  39.279  45.945  1.00  0.00     0.037 A 
HETATM   15  C   UNL     1      28.239  38.036  46.097  1.00  0.00     0.068 A 
HETATM   16  C   UNL     1      28.333  37.472  47.369  1.00  0.00     0.037 A 
HETATM   17  C   UNL     1      27.830  38.157  48.482  1.00  0.00     0.012 A 
BRANCH  15  18
HETATM   18  O   UNL     1      28.708  37.492  44.935  1.00  0.00    -0.356 OA
HETATM   19  C   UNL     1      29.859  36.660  45.025  1.00  0.00     0.210 C 
ENDBRANCH  15  18
ENDBRANCH  11  12
BRANCH  11  20
HETATM   20  O   UNL     1      26.209  39.336  50.516  1.00  0.00    -0.389 OA
HETATM   21  H   UNL     1      26.769  38.537  50.531  1.00  0.00     0.210 HD
ENDBRANCH  11  20
ENDBRANCH  10  11
ENDBRANCH   1  10
BRANCH   2  22
HETATM   22  N   UNL     1      27.577  40.755  53.110  1.00  0.00    -0.234 N 
HETATM   23  H   UNL     1      28.389  40.187  52.927  1.00  0.00     0.174 HD
HETATM   24  H   UNL     1      26.907  40.411  53.782  1.00  0.00     0.174 HD
ENDBRANCH   2  22
BRANCH   3  25
HETATM   25  C   UNL     1      27.069  43.320  54.464  1.00  0.00     0.186 C 
BRANCH  25  26
HETATM   26  C   UNL     1      28.392  43.877  54.930  1.00  0.00    -0.039 A 
HETATM   27  C   UNL     1      29.589  43.144  54.940  1.00  0.00     0.009 A 
HETATM   28  C   UNL     1      30.774  43.713  55.413  1.00  0.00     0.001 A 
HETATM   29  C   UNL     1      30.782  45.024  55.881  1.00  0.00     0.000 A 
HETATM   30  C   UNL     1      29.607  45.769  55.876  1.00  0.00     0.001 A 
HETATM   31  C   UNL     1      28.421  45.201  55.404  1.00  0.00     0.009 A 
ENDBRANCH  25  26
ENDBRANCH   3  25
TORSDOF 8
ENDMDL
MODEL 10
REMARK VINA RESULT:      -8.0      2.883      7.420
REMARK  8 active torsions:
REMARK  status: ('A' for Active; 'I' for Inactive)
REMARK    1  A    between atoms: O_2  and  C_3 
REMARK    2  A    between atoms: C_6  and  C_7 
REMARK    3  A    between atoms: C_7  and  O_8 
REMARK    4  A    between atoms: C_7  and  C_9 
REMARK    5  A    between atoms: C_9  and  N_10 
REMARK    6  A    between atoms: C_11  and  N_12 
REMARK    7  A    between atoms: N_13  and  C_14 
REMARK    8  A    between atoms: C_14  and  C_15 
ROOT
HETATM    1  N   UNL     1      26.639  44.799  50.704  1.00  0.00    -0.178 N 
HETATM    2  C   UNL     1      26.733  45.050  52.006  1.00  0.00     0.681 A 
HETATM    3  N   UNL     1      26.985  43.924  52.660  1.00  0.00    -0.177 N 
HETATM    4  C   UNL     1      27.160  42.894  51.741  1.00  0.00     0.079 A 
HETATM    5  C   UNL     1      26.944  43.458  50.481  1.00  0.00     0.079 A 
HETATM    6  C   UNL     1      27.477  41.548  51.910  1.00  0.00     0.032 A 
HETATM    7  C   UNL     1      27.561  40.785  50.738  1.00  0.00     0.002 A 
HETATM    8  C   UNL     1      27.338  41.351  49.468  1.00  0.00     0.002 A 
HETATM    9  C   UNL     1      27.024  42.709  49.310  1.00  0.00     0.032 A 
ENDROOT
BRANCH   1  10
HETATM   10  C   UNL     1      26.207  45.750  49.670  1.00  0.00     0.184 C 
BRANCH  10  11
HETATM   11  C   UNL     1      24.671  45.920  49.577  1.00  0.00     0.170 C 
BRANCH  11  12
HETATM   12  C   UNL     1      23.964  44.615  49.274  1.00  0.00    -0.028 A 
HETATM   13  C   UNL     1      23.892  44.156  47.952  1.00  0.00     0.012 A 
HETATM   14  C   UNL     1      23.317  42.918  47.663  1.00  0.00     0.037 A 
HETATM   15  C   UNL     1      22.798  42.118  48.682  1.00  0.00     0.068 A 
HETATM   16  C   UNL     1      22.846  42.574  49.999  1.00  0.00     0.037 A 
HETATM   17  C   UNL     1      23.425  43.815  50.294  1.00  0.00     0.012 A 
BRANCH  15  18
HETATM   18  O   UNL     1      22.289  40.923  48.259  1.00  0.00    -0.356 OA
HETATM   19  C   UNL     1      22.092  40.760  46.859  1.00  0.00     0.210 C 
ENDBRANCH  15  18
ENDBRANCH  11  12
BRANCH  11  20
HETATM   20  O   UNL     1      24.180  46.464  50.801  1.00  0.00    -0.389 OA
HETATM   21  H   UNL     1      24.184  45.743  51.459  1.00  0.00     0.210 HD
ENDBRANCH  11  20
ENDBRANCH  10  11
ENDBRANCH   1  10
BRANCH   2  22
HETATM   22  N   UNL     1      26.609  46.248  52.575  1.00  0.00    -0.234 N 
HETATM   23  H   UNL     1      25.777  46.804  52.456  1.00  0.00     0.174 HD
HETATM   24  H   UNL     1      27.365  46.647  53.111  1.00  0.00     0.174 HD
ENDBRANCH   2  22
BRANCH   3  25
HETATM   25  C   UNL     1      26.989  43.764  54.108  1.00  0.00     0.186 C 
BRANCH  25  26
HETATM   26  C   UNL     1      28.357  43.980  54.708  1.00  0.00    -0.039 A 
HETATM   27  C   UNL     1      29.399  43.042  54.638  1.00  0.00     0.009 A 
HETATM   28  C   UNL     1      30.633  43.295  55.240  1.00  0.00     0.001 A 
HETATM   29  C   UNL     1      30.847  44.491  55.921  1.00  0.00     0.000 A 
HETATM   30  C   UNL     1      29.829  45.436  55.998  1.00  0.00     0.001 A 
HETATM   31  C   UNL     1      28.594  45.184  55.396  1.00  0.00     0.009 A 
ENDBRANCH  25  26
ENDBRANCH   3  25
TORSDOF 8
ENDMDL
