MODEL 1
REMARK VINA RESULT:      -8.2      0.000      0.000
REMARK  9 active torsions:
REMARK  status: ('A' for Active; 'I' for Inactive)
REMARK    1  A    between atoms: C_2  and  C_3 
REMARK    2  A    between atoms: C_3  and  N_4 
REMARK    3  A    between atoms: C_7  and  C_8 
REMARK       I    between atoms: C_8  and  N_9 
REMARK    4  A    between atoms: N_9  and  C_10 
REMARK    5  A    between atoms: C_10  and  C_11 
REMARK    6  A    between atoms: C_13  and  O_14 
REMARK    7  A    between atoms: O_14  and  C_15 
REMARK    8  A    between atoms: C_15  and  C_16 
REMARK       I    between atoms: C_16  and  N_17 
REMARK    9  A    between atoms: C_23  and  C_24 
ROOT
HETATM    1  C   UNL     1      24.700  44.715  51.173  1.00  0.00     0.255 C 
HETATM    2  N   UNL     1      24.857  46.075  51.105  1.00  0.00    -0.353 N 
HETATM    3  O   UNL     1      23.557  44.271  51.257  1.00  0.00    -0.268 OA
HETATM    4  H   UNL     1      23.977  46.573  51.130  1.00  0.00     0.163 HD
ENDROOT
BRANCH   2   5
HETATM    5  C   UNL     1      26.064  46.871  51.003  1.00  0.00     0.161 C 
BRANCH   5   6
HETATM    6  C   UNL     1      25.968  47.940  49.939  1.00  0.00    -0.038 A 
HETATM    7  C   UNL     1      24.753  48.287  49.326  1.00  0.00     0.045 A 
HETATM    8  C   UNL     1      24.681  49.297  48.361  1.00  0.00     0.070 A 
HETATM    9  C   UNL     1      25.839  49.986  48.006  1.00  0.00     0.037 A 
HETATM   10  C   UNL     1      27.054  49.665  48.616  1.00  0.00     0.003 A 
HETATM   11  C   UNL     1      27.118  48.655  49.577  1.00  0.00     0.009 A 
BRANCH   8  12
HETATM   12  O   UNL     1      23.429  49.508  47.853  1.00  0.00    -0.342 OA
BRANCH  12  13
HETATM   13  C   UNL     1      22.749  50.687  48.276  1.00  0.00     0.278 C 
BRANCH  13  14
HETATM   14  C   UNL     1      22.091  50.479  49.640  1.00  0.00     0.239 C 
HETATM   15  N   UNL     1      21.100  49.543  49.691  1.00  0.00    -0.368 N 
HETATM   16  H   UNL     1      20.898  48.964  48.885  1.00  0.00     0.159 HD
HETATM   17  H   UNL     1      20.659  49.344  50.579  1.00  0.00     0.159 HD
HETATM   18  O   UNL     1      22.409  51.120  50.639  1.00  0.00    -0.271 OA
ENDBRANCH  13  14
ENDBRANCH  12  13
ENDBRANCH   8  12
ENDBRANCH   5   6
ENDBRANCH   2   5
BRANCH   1  19
HETATM   19  C   UNL     1      25.877  43.872  51.178  1.00  0.00     0.075 A 
HETATM   20  C   UNL     1      26.475  43.273  50.044  1.00  0.00     0.158 A 
HETATM   21  N   UNL     1      27.534  42.526  50.341  1.00  0.00    -0.183 NA
HETATM   22  N   UNL     1      27.676  42.685  51.672  1.00  0.00    -0.268 N 
HETATM   23  C   UNL     1      26.700  43.487  52.232  1.00  0.00     0.052 A 
BRANCH  22  24
HETATM   24  C   UNL     1      28.792  42.030  52.356  1.00  0.00     0.106 C 
HETATM   25  C   UNL     1      28.347  41.087  53.483  1.00  0.00     0.034 C 
BRANCH  24  26
HETATM   26  C   UNL     1      29.858  43.040  52.827  1.00  0.00     0.022 C 
HETATM   27  C   UNL     1      30.159  43.014  54.320  1.00  0.00     0.007 C 
ENDBRANCH  24  26
ENDBRANCH  22  24
BRANCH  23  28
HETATM   28  C   UNL     1      26.609  43.794  53.729  1.00  0.00     0.038 A 
HETATM   29  C   UNL     1      27.022  45.143  54.265  1.00  0.00     0.011 A 
HETATM   30  C   UNL     1      25.578  44.768  54.250  1.00  0.00     0.011 A 
ENDBRANCH  23  28
ENDBRANCH   1  19
TORSDOF 9
ENDMDL
MODEL 2
REMARK VINA RESULT:      -8.1      1.967      2.990
REMARK  9 active torsions:
REMARK  status: ('A' for Active; 'I' for Inactive)
REMARK    1  A    between atoms: C_2  and  C_3 
REMARK    2  A    between atoms: C_3  and  N_4 
REMARK    3  A    between atoms: C_7  and  C_8 
REMARK       I    between atoms: C_8  and  N_9 
REMARK    4  A    between atoms: N_9  and  C_10 
REMARK    5  A    between atoms: C_10  and  C_11 
REMARK    6  A    between atoms: C_13  and  O_14 
REMARK    7  A    between atoms: O_14  and  C_15 
REMARK    8  A    between atoms: C_15  and  C_16 
REMARK       I    between atoms: C_16  and  N_17 
REMARK    9  A    between atoms: C_23  and  C_24 
ROOT
HETATM    1  C   UNL     1      25.392  45.493  52.482  1.00  0.00     0.255 C 
HETATM    2  N   UNL     1      25.650  46.006  51.237  1.00  0.00    -0.353 N 
HETATM    3  O   UNL     1      24.395  44.788  52.620  1.00  0.00    -0.268 OA
HETATM    4  H   UNL     1      24.961  45.730  50.549  1.00  0.00     0.163 HD
ENDROOT
BRANCH   2   5
HETATM    5  C   UNL     1      26.732  46.856  50.784  1.00  0.00     0.161 C 
BRANCH   5   6
HETATM    6  C   UNL     1      26.269  47.929  49.825  1.00  0.00    -0.038 A 
HETATM    7  C   UNL     1      24.921  48.082  49.460  1.00  0.00     0.045 A 
HETATM    8  C   UNL     1      24.508  49.098  48.590  1.00  0.00     0.070 A 
HETATM    9  C   UNL     1      25.452  49.987  48.083  1.00  0.00     0.037 A 
HETATM   10  C   UNL     1      26.795  49.860  48.447  1.00  0.00     0.003 A 
HETATM   11  C   UNL     1      27.200  48.844  49.314  1.00  0.00     0.009 A 
BRANCH   8  12
HETATM   12  O   UNL     1      23.167  49.107  48.326  1.00  0.00    -0.342 OA
BRANCH  12  13
HETATM   13  C   UNL     1      22.571  50.371  48.044  1.00  0.00     0.278 C 
BRANCH  13  14
HETATM   14  C   UNL     1      21.822  50.907  49.264  1.00  0.00     0.239 C 
HETATM   15  N   UNL     1      20.552  51.352  49.040  1.00  0.00    -0.368 N 
HETATM   16  H   UNL     1      20.119  51.233  48.133  1.00  0.00     0.159 HD
HETATM   17  H   UNL     1      20.004  51.683  49.822  1.00  0.00     0.159 HD
HETATM   18  O   UNL     1      22.323  50.959  50.384  1.00  0.00    -0.271 OA
ENDBRANCH  13  14
ENDBRANCH  12  13
ENDBRANCH   8  12
ENDBRANCH   5   6
ENDBRANCH   2   5
BRANCH   1  19
HETATM   19  C   UNL     1      26.279  45.830  53.576  1.00  0.00     0.075 A 
HETATM   20  C   UNL     1      26.433  47.112  54.156  1.00  0.00     0.158 A 
HETATM   21  N   UNL     1      27.337  47.142  55.131  1.00  0.00    -0.183 NA
HETATM   22  N   UNL     1      27.735  45.860  55.240  1.00  0.00    -0.268 N 
HETATM   23  C   UNL     1      27.130  45.021  54.323  1.00  0.00     0.052 A 
BRANCH  22  24
HETATM   24  C   UNL     1      28.714  45.498  56.266  1.00  0.00     0.106 C 
HETATM   25  C   UNL     1      28.560  46.300  57.566  1.00  0.00     0.034 C 
BRANCH  24  26
HETATM   26  C   UNL     1      30.159  45.532  55.728  1.00  0.00     0.022 C 
HETATM   27  C   UNL     1      31.025  44.344  56.124  1.00  0.00     0.007 C 
ENDBRANCH  24  26
ENDBRANCH  22  24
BRANCH  23  28
HETATM   28  C   UNL     1      27.436  43.526  54.208  1.00  0.00     0.038 A 
HETATM   29  C   UNL     1      27.370  42.826  52.872  1.00  0.00     0.011 A 
HETATM   30  C   UNL     1      28.695  43.051  53.521  1.00  0.00     0.011 A 
ENDBRANCH  23  28
ENDBRANCH   1  19
TORSDOF 9
ENDMDL
MODEL 3
REMARK VINA RESULT:      -8.0     11.811     14.523
REMARK  9 active torsions:
REMARK  status: ('A' for Active; 'I' for Inactive)
REMARK    1  A    between atoms: C_2  and  C_3 
REMARK    2  A    between atoms: C_3  and  N_4 
REMARK    3  A    between atoms: C_7  and  C_8 
REMARK       I    between atoms: C_8  and  N_9 
REMARK    4  A    between atoms: N_9  and  C_10 
REMARK    5  A    between atoms: C_10  and  C_11 
REMARK    6  A    between atoms: C_13  and  O_14 
REMARK    7  A    between atoms: O_14  and  C_15 
REMARK    8  A    between atoms: C_15  and  C_16 
REMARK       I    between atoms: C_16  and  N_17 
REMARK    9  A    between atoms: C_23  and  C_24 
ROOT
HETATM    1  C   UNL     1      30.572  53.423  41.042  1.00  0.00     0.255 C 
HETATM    2  N   UNL     1      31.333  53.153  42.150  1.00  0.00    -0.353 N 
HETATM    3  O   UNL     1      30.791  54.468  40.433  1.00  0.00    -0.268 OA
HETATM    4  H   UNL     1      32.015  53.875  42.342  1.00  0.00     0.163 HD
ENDROOT
BRANCH   2   5
HETATM    5  C   UNL     1      31.301  52.018  43.050  1.00  0.00     0.161 C 
BRANCH   5   6
HETATM    6  C   UNL     1      31.940  50.784  42.455  1.00  0.00    -0.038 A 
HETATM    7  C   UNL     1      33.275  50.763  42.018  1.00  0.00     0.045 A 
HETATM    8  C   UNL     1      33.855  49.603  41.493  1.00  0.00     0.070 A 
HETATM    9  C   UNL     1      33.097  48.437  41.411  1.00  0.00     0.037 A 
HETATM   10  C   UNL     1      31.772  48.435  41.854  1.00  0.00     0.003 A 
HETATM   11  C   UNL     1      31.199  49.596  42.376  1.00  0.00     0.009 A 
BRANCH   8  12
HETATM   12  O   UNL     1      35.158  49.747  41.105  1.00  0.00    -0.342 OA
BRANCH  12  13
HETATM   13  C   UNL     1      35.590  51.063  40.764  1.00  0.00     0.278 C 
BRANCH  13  14
HETATM   14  C   UNL     1      36.124  51.109  39.333  1.00  0.00     0.239 C 
HETATM   15  N   UNL     1      36.752  49.983  38.890  1.00  0.00    -0.368 N 
HETATM   16  H   UNL     1      36.765  49.145  39.459  1.00  0.00     0.159 HD
HETATM   17  H   UNL     1      37.091  49.952  37.938  1.00  0.00     0.159 HD
HETATM   18  O   UNL     1      36.019  52.099  38.613  1.00  0.00    -0.271 OA
ENDBRANCH  13  14
ENDBRANCH  12  13
ENDBRANCH   8  12
ENDBRANCH   5   6
ENDBRANCH   2   5
BRANCH   1  19
HETATM   19  C   UNL     1      29.532  52.490  40.662  1.00  0.00     0.075 A 
HETATM   20  C   UNL     1      28.293  52.314  41.322  1.00  0.00     0.158 A 
HETATM   21  N   UNL     1      27.535  51.369  40.773  1.00  0.00    -0.183 NA
HETATM   22  N   UNL     1      28.250  50.963  39.706  1.00  0.00    -0.268 N 
HETATM   23  C   UNL     1      29.468  51.605  39.590  1.00  0.00     0.052 A 
BRANCH  22  24
HETATM   24  C   UNL     1      27.695  49.939  38.819  1.00  0.00     0.106 C 
HETATM   25  C   UNL     1      26.439  50.398  38.067  1.00  0.00     0.034 C 
BRANCH  24  26
HETATM   26  C   UNL     1      27.481  48.595  39.546  1.00  0.00     0.022 C 
HETATM   27  C   UNL     1      28.738  47.759  39.744  1.00  0.00     0.007 C 
ENDBRANCH  24  26
ENDBRANCH  22  24
BRANCH  23  28
HETATM   28  C   UNL     1      30.488  51.301  38.489  1.00  0.00     0.038 A 
HETATM   29  C   UNL     1      31.962  51.523  38.722  1.00  0.00     0.011 A 
HETATM   30  C   UNL     1      31.435  50.131  38.623  1.00  0.00     0.011 A 
ENDBRANCH  23  28
ENDBRANCH   1  19
TORSDOF 9
ENDMDL
MODEL 4
REMARK VINA RESULT:      -7.9      4.134     10.189
REMARK  9 active torsions:
REMARK  status: ('A' for Active; 'I' for Inactive)
REMARK    1  A    between atoms: C_2  and  C_3 
REMARK    2  A    between atoms: C_3  and  N_4 
REMARK    3  A    between atoms: C_7  and  C_8 
REMARK       I    between atoms: C_8  and  N_9 
REMARK    4  A    between atoms: N_9  and  C_10 
REMARK    5  A    between atoms: C_10  and  C_11 
REMARK    6  A    between atoms: C_13  and  O_14 
REMARK    7  A    between atoms: O_14  and  C_15 
REMARK    8  A    between atoms: C_15  and  C_16 
REMARK       I    between atoms: C_16  and  N_17 
REMARK    9  A    between atoms: C_23  and  C_24 
ROOT
HETATM    1  C   UNL     1      18.697  48.654  50.367  1.00  0.00     0.255 C 
HETATM    2  N   UNL     1      19.921  48.166  49.990  1.00  0.00    -0.353 N 
HETATM    3  O   UNL     1      18.409  48.628  51.562  1.00  0.00    -0.268 OA
HETATM    4  H   UNL     1      20.468  47.832  50.773  1.00  0.00     0.163 HD
ENDROOT
BRANCH   2   5
HETATM    5  C   UNL     1      20.522  48.069  48.675  1.00  0.00     0.161 C 
BRANCH   5   6
HETATM    6  C   UNL     1      21.877  48.736  48.603  1.00  0.00    -0.038 A 
HETATM    7  C   UNL     1      22.998  48.239  49.290  1.00  0.00     0.045 A 
HETATM    8  C   UNL     1      24.250  48.857  49.191  1.00  0.00     0.070 A 
HETATM    9  C   UNL     1      24.394  49.983  48.384  1.00  0.00     0.037 A 
HETATM   10  C   UNL     1      23.294  50.481  47.681  1.00  0.00     0.003 A 
HETATM   11  C   UNL     1      22.048  49.861  47.786  1.00  0.00     0.009 A 
BRANCH   8  12
HETATM   12  O   UNL     1      25.236  48.259  49.926  1.00  0.00    -0.342 OA
BRANCH  12  13
HETATM   13  C   UNL     1      25.060  46.881  50.246  1.00  0.00     0.278 C 
BRANCH  13  14
HETATM   14  C   UNL     1      25.206  46.645  51.749  1.00  0.00     0.239 C 
HETATM   15  N   UNL     1      25.022  45.362  52.174  1.00  0.00    -0.368 N 
HETATM   16  H   UNL     1      24.895  44.612  51.506  1.00  0.00     0.159 HD
HETATM   17  H   UNL     1      25.143  45.149  53.155  1.00  0.00     0.159 HD
HETATM   18  O   UNL     1      25.457  47.546  52.544  1.00  0.00    -0.271 OA
ENDBRANCH  13  14
ENDBRANCH  12  13
ENDBRANCH   8  12
ENDBRANCH   5   6
ENDBRANCH   2   5
BRANCH   1  19
HETATM   19  C   UNL     1      17.792  49.141  49.347  1.00  0.00     0.075 A 
HETATM   20  C   UNL     1      16.879  48.356  48.604  1.00  0.00     0.158 A 
HETATM   21  N   UNL     1      16.187  49.058  47.712  1.00  0.00    -0.183 NA
HETATM   22  N   UNL     1      16.597  50.326  47.912  1.00  0.00    -0.268 N 
HETATM   23  C   UNL     1      17.570  50.435  48.888  1.00  0.00     0.052 A 
BRANCH  22  24
HETATM   24  C   UNL     1      16.003  51.405  47.122  1.00  0.00     0.106 C 
HETATM   25  C   UNL     1      16.928  51.931  46.015  1.00  0.00     0.034 C 
BRANCH  24  26
HETATM   26  C   UNL     1      15.453  52.540  48.009  1.00  0.00     0.022 C 
HETATM   27  C   UNL     1      14.565  53.549  47.293  1.00  0.00     0.007 C 
ENDBRANCH  24  26
ENDBRANCH  22  24
BRANCH  23  28
HETATM   28  C   UNL     1      18.234  51.757  49.281  1.00  0.00     0.038 A 
HETATM   29  C   UNL     1      19.624  51.777  49.867  1.00  0.00     0.011 A 
HETATM   30  C   UNL     1      19.400  52.297  48.486  1.00  0.00     0.011 A 
ENDBRANCH  23  28
ENDBRANCH   1  19
TORSDOF 9
ENDMDL
MODEL 5
REMARK VINA RESULT:      -7.8      3.062      6.134
REMARK  9 active torsions:
REMARK  status: ('A' for Active; 'I' for Inactive)
REMARK    1  A    between atoms: C_2  and  C_3 
REMARK    2  A    between atoms: C_3  and  N_4 
REMARK    3  A    between atoms: C_7  and  C_8 
REMARK       I    between atoms: C_8  and  N_9 
REMARK    4  A    between atoms: N_9  and  C_10 
REMARK    5  A    between atoms: C_10  and  C_11 
REMARK    6  A    between atoms: C_13  and  O_14 
REMARK    7  A    between atoms: O_14  and  C_15 
REMARK    8  A    between atoms: C_15  and  C_16 
REMARK       I    between atoms: C_16  and  N_17 
REMARK    9  A    between atoms: C_23  and  C_24 
ROOT
HETATM    1  C   UNL     1      24.035  50.005  48.236  1.00  0.00     0.255 C 
HETATM    2  N   UNL     1      23.148  50.896  48.781  1.00  0.00    -0.353 N 
HETATM    3  O   UNL     1      24.744  50.391  47.309  1.00  0.00    -0.268 OA
HETATM    4  H   UNL     1      23.184  51.805  48.339  1.00  0.00     0.163 HD
ENDROOT
BRANCH   2   5
HETATM    5  C   UNL     1      22.201  50.725  49.864  1.00  0.00     0.161 C 
BRANCH   5   6
HETATM    6  C   UNL     1      20.784  50.529  49.374  1.00  0.00    -0.038 A 
HETATM    7  C   UNL     1      20.157  49.272  49.364  1.00  0.00     0.045 A 
HETATM    8  C   UNL     1      18.836  49.116  48.929  1.00  0.00     0.070 A 
HETATM    9  C   UNL     1      18.120  50.234  48.507  1.00  0.00     0.037 A 
HETATM   10  C   UNL     1      18.722  51.494  48.524  1.00  0.00     0.003 A 
HETATM   11  C   UNL     1      20.040  51.642  48.958  1.00  0.00     0.009 A 
BRANCH   8  12
HETATM   12  O   UNL     1      18.374  47.830  48.972  1.00  0.00    -0.342 OA
BRANCH  12  13
HETATM   13  C   UNL     1      18.751  46.971  47.898  1.00  0.00     0.278 C 
BRANCH  13  14
HETATM   14  C   UNL     1      19.178  45.599  48.419  1.00  0.00     0.239 C 
HETATM   15  N   UNL     1      20.168  45.596  49.358  1.00  0.00    -0.368 N 
HETATM   16  H   UNL     1      20.514  46.466  49.742  1.00  0.00     0.159 HD
HETATM   17  H   UNL     1      20.460  44.715  49.759  1.00  0.00     0.159 HD
HETATM   18  O   UNL     1      18.683  44.549  48.017  1.00  0.00    -0.271 OA
ENDBRANCH  13  14
ENDBRANCH  12  13
ENDBRANCH   8  12
ENDBRANCH   5   6
ENDBRANCH   2   5
BRANCH   1  19
HETATM   19  C   UNL     1      24.074  48.651  48.748  1.00  0.00     0.075 A 
HETATM   20  C   UNL     1      23.038  47.694  48.643  1.00  0.00     0.158 A 
HETATM   21  N   UNL     1      23.331  46.536  49.227  1.00  0.00    -0.183 NA
HETATM   22  N   UNL     1      24.595  46.707  49.663  1.00  0.00    -0.268 N 
HETATM   23  C   UNL     1      25.094  47.969  49.403  1.00  0.00     0.052 A 
BRANCH  22  24
HETATM   24  C   UNL     1      25.279  45.598  50.330  1.00  0.00     0.106 C 
HETATM   25  C   UNL     1      24.998  44.233  49.688  1.00  0.00     0.034 C 
BRANCH  24  26
HETATM   26  C   UNL     1      25.024  45.590  51.851  1.00  0.00     0.022 C 
HETATM   27  C   UNL     1      26.250  45.857  52.714  1.00  0.00     0.007 C 
ENDBRANCH  24  26
ENDBRANCH  22  24
BRANCH  23  28
HETATM   28  C   UNL     1      26.489  48.435  49.829  1.00  0.00     0.038 A 
HETATM   29  C   UNL     1      27.723  47.901  49.144  1.00  0.00     0.011 A 
HETATM   30  C   UNL     1      27.313  49.318  48.921  1.00  0.00     0.011 A 
ENDBRANCH  23  28
ENDBRANCH   1  19
TORSDOF 9
ENDMDL
MODEL 6
REMARK VINA RESULT:      -7.7      2.423      3.809
REMARK  9 active torsions:
REMARK  status: ('A' for Active; 'I' for Inactive)
REMARK    1  A    between atoms: C_2  and  C_3 
REMARK    2  A    between atoms: C_3  and  N_4 
REMARK    3  A    between atoms: C_7  and  C_8 
REMARK       I    between atoms: C_8  and  N_9 
REMARK    4  A    between atoms: N_9  and  C_10 
REMARK    5  A    between atoms: C_10  and  C_11 
REMARK    6  A    between atoms: C_13  and  O_14 
REMARK    7  A    between atoms: O_14  and  C_15 
REMARK    8  A    between atoms: C_15  and  C_16 
REMARK       I    between atoms: C_16  and  N_17 
REMARK    9  A    between atoms: C_23  and  C_24 
ROOT
HETATM    1  C   UNL     1      26.447  47.276  49.792  1.00  0.00     0.255 C 
HETATM    2  N   UNL     1      25.265  47.642  49.203  1.00  0.00    -0.353 N 
HETATM    3  O   UNL     1      27.492  47.545  49.203  1.00  0.00    -0.268 OA
HETATM    4  H   UNL     1      25.397  48.112  48.317  1.00  0.00     0.163 HD
ENDROOT
BRANCH   2   5
HETATM    5  C   UNL     1      23.901  47.460  49.656  1.00  0.00     0.161 C 
BRANCH   5   6
HETATM    6  C   UNL     1      22.970  48.540  49.154  1.00  0.00    -0.038 A 
HETATM    7  C   UNL     1      21.576  48.373  49.111  1.00  0.00     0.045 A 
HETATM    8  C   UNL     1      20.730  49.395  48.665  1.00  0.00     0.070 A 
HETATM    9  C   UNL     1      21.280  50.612  48.267  1.00  0.00     0.037 A 
HETATM   10  C   UNL     1      22.662  50.801  48.318  1.00  0.00     0.003 A 
HETATM   11  C   UNL     1      23.501  49.777  48.762  1.00  0.00     0.009 A 
BRANCH   8  12
HETATM   12  O   UNL     1      19.401  49.074  48.674  1.00  0.00    -0.342 OA
BRANCH  12  13
HETATM   13  C   UNL     1      18.953  48.197  49.705  1.00  0.00     0.278 C 
BRANCH  13  14
HETATM   14  C   UNL     1      18.628  48.973  50.981  1.00  0.00     0.239 C 
HETATM   15  N   UNL     1      18.643  48.254  52.140  1.00  0.00    -0.368 N 
HETATM   16  H   UNL     1      18.949  47.289  52.142  1.00  0.00     0.159 HD
HETATM   17  H   UNL     1      18.469  48.730  53.014  1.00  0.00     0.159 HD
HETATM   18  O   UNL     1      18.350  50.169  50.981  1.00  0.00    -0.271 OA
ENDBRANCH  13  14
ENDBRANCH  12  13
ENDBRANCH   8  12
ENDBRANCH   5   6
ENDBRANCH   2   5
BRANCH   1  19
HETATM   19  C   UNL     1      26.412  46.566  51.053  1.00  0.00     0.075 A 
HETATM   20  C   UNL     1      26.144  47.135  52.320  1.00  0.00     0.158 A 
HETATM   21  N   UNL     1      26.201  46.255  53.315  1.00  0.00    -0.183 NA
HETATM   22  N   UNL     1      26.445  45.084  52.694  1.00  0.00    -0.268 N 
HETATM   23  C   UNL     1      26.584  45.212  51.325  1.00  0.00     0.052 A 
BRANCH  22  24
HETATM   24  C   UNL     1      26.530  43.857  53.487  1.00  0.00     0.106 C 
HETATM   25  C   UNL     1      25.691  43.901  54.772  1.00  0.00     0.034 C 
BRANCH  24  26
HETATM   26  C   UNL     1      27.990  43.440  53.758  1.00  0.00     0.022 C 
HETATM   27  C   UNL     1      28.750  44.337  54.727  1.00  0.00     0.007 C 
ENDBRANCH  24  26
ENDBRANCH  22  24
BRANCH  23  28
HETATM   28  C   UNL     1      26.904  44.042  50.391  1.00  0.00     0.038 A 
HETATM   29  C   UNL     1      26.141  42.744  50.491  1.00  0.00     0.011 A 
HETATM   30  C   UNL     1      25.928  43.634  49.311  1.00  0.00     0.011 A 
ENDBRANCH  23  28
ENDBRANCH   1  19
TORSDOF 9
ENDMDL
MODEL 7
REMARK VINA RESULT:      -7.7      3.360      7.726
REMARK  9 active torsions:
REMARK  status: ('A' for Active; 'I' for Inactive)
REMARK    1  A    between atoms: C_2  and  C_3 
REMARK    2  A    between atoms: C_3  and  N_4 
REMARK    3  A    between atoms: C_7  and  C_8 
REMARK       I    between atoms: C_8  and  N_9 
REMARK    4  A    between atoms: N_9  and  C_10 
REMARK    5  A    between atoms: C_10  and  C_11 
REMARK    6  A    between atoms: C_13  and  O_14 
REMARK    7  A    between atoms: O_14  and  C_15 
REMARK    8  A    between atoms: C_15  and  C_16 
REMARK       I    between atoms: C_16  and  N_17 
REMARK    9  A    between atoms: C_23  and  C_24 
ROOT
HETATM    1  C   UNL     1      24.620  44.728  51.221  1.00  0.00     0.255 C 
HETATM    2  N   UNL     1      25.348  44.069  50.265  1.00  0.00    -0.353 N 
HETATM    3  O   UNL     1      23.415  44.495  51.290  1.00  0.00    -0.268 OA
HETATM    4  H   UNL     1      24.785  43.439  49.708  1.00  0.00     0.163 HD
ENDROOT
BRANCH   2   5
HETATM    5  C   UNL     1      26.761  44.141  49.954  1.00  0.00     0.161 C 
BRANCH   5   6
HETATM    6  C   UNL     1      27.598  43.235  50.829  1.00  0.00    -0.038 A 
HETATM    7  C   UNL     1      27.582  41.837  50.698  1.00  0.00     0.045 A 
HETATM    8  C   UNL     1      28.383  41.018  51.502  1.00  0.00     0.070 A 
HETATM    9  C   UNL     1      29.225  41.600  52.447  1.00  0.00     0.037 A 
HETATM   10  C   UNL     1      29.264  42.990  52.581  1.00  0.00     0.003 A 
HETATM   11  C   UNL     1      28.462  43.801  51.776  1.00  0.00     0.009 A 
BRANCH   8  12
HETATM   12  O   UNL     1      28.247  39.679  51.259  1.00  0.00    -0.342 OA
BRANCH  12  13
HETATM   13  C   UNL     1      28.924  39.156  50.119  1.00  0.00     0.278 C 
BRANCH  13  14
HETATM   14  C   UNL     1      29.412  37.731  50.378  1.00  0.00     0.239 C 
HETATM   15  N   UNL     1      28.448  36.768  50.438  1.00  0.00    -0.368 N 
HETATM   16  H   UNL     1      27.484  36.993  50.222  1.00  0.00     0.159 HD
HETATM   17  H   UNL     1      28.724  35.805  50.572  1.00  0.00     0.159 HD
HETATM   18  O   UNL     1      30.597  37.452  50.543  1.00  0.00    -0.271 OA
ENDBRANCH  13  14
ENDBRANCH  12  13
ENDBRANCH   8  12
ENDBRANCH   5   6
ENDBRANCH   2   5
BRANCH   1  19
HETATM   19  C   UNL     1      25.289  45.686  52.075  1.00  0.00     0.075 A 
HETATM   20  C   UNL     1      25.700  46.988  51.701  1.00  0.00     0.158 A 
HETATM   21  N   UNL     1      26.316  47.645  52.679  1.00  0.00    -0.183 NA
HETATM   22  N   UNL     1      26.255  46.798  53.725  1.00  0.00    -0.268 N 
HETATM   23  C   UNL     1      25.646  45.597  53.417  1.00  0.00     0.052 A 
BRANCH  22  24
HETATM   24  C   UNL     1      26.806  47.213  55.016  1.00  0.00     0.106 C 
HETATM   25  C   UNL     1      26.308  48.589  55.478  1.00  0.00     0.034 C 
BRANCH  24  26
HETATM   26  C   UNL     1      28.344  47.107  55.052  1.00  0.00     0.022 C 
HETATM   27  C   UNL     1      28.906  46.222  56.157  1.00  0.00     0.007 C 
ENDBRANCH  24  26
ENDBRANCH  22  24
BRANCH  23  28
HETATM   28  C   UNL     1      25.484  44.446  54.414  1.00  0.00     0.038 A 
HETATM   29  C   UNL     1      25.798  43.026  54.011  1.00  0.00     0.011 A 
HETATM   30  C   UNL     1      26.696  43.735  54.969  1.00  0.00     0.011 A 
ENDBRANCH  23  28
ENDBRANCH   1  19
TORSDOF 9
ENDMDL
MODEL 8
REMARK VINA RESULT:      -7.7     11.834     13.733
REMARK  9 active torsions:
REMARK  status: ('A' for Active; 'I' for Inactive)
REMARK    1  A    between atoms: C_2  and  C_3 
REMARK    2  A    between atoms: C_3  and  N_4 
REMARK    3  A    between atoms: C_7  and  C_8 
REMARK       I    between atoms: C_8  and  N_9 
REMARK    4  A    between atoms: N_9  and  C_10 
REMARK    5  A    between atoms: C_10  and  C_11 
REMARK    6  A    between atoms: C_13  and  O_14 
REMARK    7  A    between atoms: O_14  and  C_15 
REMARK    8  A    between atoms: C_15  and  C_16 
REMARK       I    between atoms: C_16  and  N_17 
REMARK    9  A    between atoms: C_23  and  C_24 
ROOT
HETATM    1  C   UNL     1      29.288  53.307  40.478  1.00  0.00     0.255 C 
HETATM    2  N   UNL     1      28.041  52.753  40.605  1.00  0.00    -0.353 N 
HETATM    3  O   UNL     1      29.382  54.394  39.913  1.00  0.00    -0.268 OA
HETATM    4  H   UNL     1      27.313  53.331  40.204  1.00  0.00     0.163 HD
ENDROOT
BRANCH   2   5
HETATM    5  C   UNL     1      27.632  51.503  41.213  1.00  0.00     0.161 C 
BRANCH   5   6
HETATM    6  C   UNL     1      27.647  50.348  40.238  1.00  0.00    -0.038 A 
HETATM    7  C   UNL     1      28.142  49.079  40.581  1.00  0.00     0.045 A 
HETATM    8  C   UNL     1      28.124  48.016  39.671  1.00  0.00     0.070 A 
HETATM    9  C   UNL     1      27.593  48.215  38.399  1.00  0.00     0.037 A 
HETATM   10  C   UNL     1      27.083  49.466  38.045  1.00  0.00     0.003 A 
HETATM   11  C   UNL     1      27.105  50.522  38.957  1.00  0.00     0.009 A 
BRANCH   8  12
HETATM   12  O   UNL     1      28.649  46.849  40.153  1.00  0.00    -0.342 OA
BRANCH  12  13
HETATM   13  C   UNL     1      29.829  46.360  39.521  1.00  0.00     0.278 C 
BRANCH  13  14
HETATM   14  C   UNL     1      29.539  45.081  38.736  1.00  0.00     0.239 C 
HETATM   15  N   UNL     1      29.581  45.189  37.377  1.00  0.00    -0.368 N 
HETATM   16  H   UNL     1      29.884  46.051  36.939  1.00  0.00     0.159 HD
HETATM   17  H   UNL     1      29.431  44.363  36.814  1.00  0.00     0.159 HD
HETATM   18  O   UNL     1      29.266  44.013  39.277  1.00  0.00    -0.271 OA
ENDBRANCH  13  14
ENDBRANCH  12  13
ENDBRANCH   8  12
ENDBRANCH   5   6
ENDBRANCH   2   5
BRANCH   1  19
HETATM   19  C   UNL     1      30.434  52.576  40.979  1.00  0.00     0.075 A 
HETATM   20  C   UNL     1      31.048  52.758  42.241  1.00  0.00     0.158 A 
HETATM   21  N   UNL     1      32.101  51.970  42.432  1.00  0.00    -0.183 NA
HETATM   22  N   UNL     1      32.144  51.216  41.316  1.00  0.00    -0.268 N 
HETATM   23  C   UNL     1      31.161  51.540  40.401  1.00  0.00     0.052 A 
BRANCH  22  24
HETATM   24  C   UNL     1      33.171  50.180  41.190  1.00  0.00     0.106 C 
HETATM   25  C   UNL     1      32.657  48.769  41.507  1.00  0.00     0.034 C 
BRANCH  24  26
HETATM   26  C   UNL     1      34.447  50.528  41.983  1.00  0.00     0.022 C 
HETATM   27  C   UNL     1      35.742  50.466  41.185  1.00  0.00     0.007 C 
ENDBRANCH  24  26
ENDBRANCH  22  24
BRANCH  23  28
HETATM   28  C   UNL     1      31.013  50.863  39.036  1.00  0.00     0.038 A 
HETATM   29  C   UNL     1      30.565  51.650  37.829  1.00  0.00     0.011 A 
HETATM   30  C   UNL     1      31.977  51.177  37.915  1.00  0.00     0.011 A 
ENDBRANCH  23  28
ENDBRANCH   1  19
TORSDOF 9
ENDMDL
MODEL 9
REMARK VINA RESULT:      -7.7      4.195      7.681
REMARK  9 active torsions:
REMARK  status: ('A' for Active; 'I' for Inactive)
REMARK    1  A    between atoms: C_2  and  C_3 
REMARK    2  A    between atoms: C_3  and  N_4 
REMARK    3  A    between atoms: C_7  and  C_8 
REMARK       I    between atoms: C_8  and  N_9 
REMARK    4  A    between atoms: N_9  and  C_10 
REMARK    5  A    between atoms: C_10  and  C_11 
REMARK    6  A    between atoms: C_13  and  O_14 
REMARK    7  A    between atoms: O_14  and  C_15 
REMARK    8  A    between atoms: C_15  and  C_16 
REMARK       I    between atoms: C_16  and  N_17 
REMARK    9  A    between atoms: C_23  and  C_24 
ROOT
HETATM    1  C   UNL     1      25.713  44.190  52.912  1.00  0.00     0.255 C 
HETATM    2  N   UNL     1      25.822  44.083  51.550  1.00  0.00    -0.353 N 
HETATM    3  O   UNL     1      24.592  44.353  53.390  1.00  0.00    -0.268 OA
HETATM    4  H   UNL     1      24.929  44.151  51.079  1.00  0.00     0.163 HD
ENDROOT
BRANCH   2   5
HETATM    5  C   UNL     1      26.993  43.889  50.720  1.00  0.00     0.161 C 
BRANCH   5   6
HETATM    6  C   UNL     1      26.875  42.682  49.818  1.00  0.00    -0.038 A 
HETATM    7  C   UNL     1      27.843  41.664  49.791  1.00  0.00     0.045 A 
HETATM    8  C   UNL     1      27.703  40.542  48.966  1.00  0.00     0.070 A 
HETATM    9  C   UNL     1      26.572  40.423  48.161  1.00  0.00     0.037 A 
HETATM   10  C   UNL     1      25.592  41.418  48.186  1.00  0.00     0.003 A 
HETATM   11  C   UNL     1      25.739  42.535  49.010  1.00  0.00     0.009 A 
BRANCH   8  12
HETATM   12  O   UNL     1      28.733  39.647  49.048  1.00  0.00    -0.342 OA
BRANCH  12  13
HETATM   13  C   UNL     1      28.783  38.820  50.208  1.00  0.00     0.278 C 
BRANCH  13  14
HETATM   14  C   UNL     1      30.067  37.993  50.236  1.00  0.00     0.239 C 
HETATM   15  N   UNL     1      31.091  38.449  49.459  1.00  0.00    -0.368 N 
HETATM   16  H   UNL     1      31.016  39.338  48.979  1.00  0.00     0.159 HD
HETATM   17  H   UNL     1      31.974  37.956  49.472  1.00  0.00     0.159 HD
HETATM   18  O   UNL     1      30.185  36.966  50.899  1.00  0.00    -0.271 OA
ENDBRANCH  13  14
ENDBRANCH  12  13
ENDBRANCH   8  12
ENDBRANCH   5   6
ENDBRANCH   2   5
BRANCH   1  19
HETATM   19  C   UNL     1      26.915  44.141  53.718  1.00  0.00     0.075 A 
HETATM   20  C   UNL     1      27.598  42.969  54.120  1.00  0.00     0.158 A 
HETATM   21  N   UNL     1      28.662  43.215  54.879  1.00  0.00    -0.183 NA
HETATM   22  N   UNL     1      28.720  44.561  54.925  1.00  0.00    -0.268 N 
HETATM   23  C   UNL     1      27.687  45.174  54.242  1.00  0.00     0.052 A 
BRANCH  22  24
HETATM   24  C   UNL     1      29.814  45.206  55.651  1.00  0.00     0.106 C 
HETATM   25  C   UNL     1      31.008  44.277  55.908  1.00  0.00     0.034 C 
BRANCH  24  26
HETATM   26  C   UNL     1      29.327  45.900  56.939  1.00  0.00     0.022 C 
HETATM   27  C   UNL     1      30.195  45.668  58.168  1.00  0.00     0.007 C 
ENDBRANCH  24  26
ENDBRANCH  22  24
BRANCH  23  28
HETATM   28  C   UNL     1      27.497  46.691  54.171  1.00  0.00     0.038 A 
HETATM   29  C   UNL     1      26.339  47.289  53.410  1.00  0.00     0.011 A 
HETATM   30  C   UNL     1      26.354  47.356  54.900  1.00  0.00     0.011 A 
ENDBRANCH  23  28
ENDBRANCH   1  19
TORSDOF 9
ENDMDL
MODEL 10
REMARK VINA RESULT:      -7.6      4.713     10.346
REMARK  9 active torsions:
REMARK  status: ('A' for Active; 'I' for Inactive)
REMARK    1  A    between atoms: C_2  and  C_3 
REMARK    2  A    between atoms: C_3  and  N_4 
REMARK    3  A    between atoms: C_7  and  C_8 
REMARK       I    between atoms: C_8  and  N_9 
REMARK    4  A    between atoms: N_9  and  C_10 
REMARK    5  A    between atoms: C_10  and  C_11 
REMARK    6  A    between atoms: C_13  and  O_14 
REMARK    7  A    between atoms: O_14  and  C_15 
REMARK    8  A    between atoms: C_15  and  C_16 
REMARK       I    between atoms: C_16  and  N_17 
REMARK    9  A    between atoms: C_23  and  C_24 
ROOT
HETATM    1  C   UNL     1      18.956  49.289  50.320  1.00  0.00     0.255 C 
HETATM    2  N   UNL     1      19.873  48.330  49.978  1.00  0.00    -0.353 N 
HETATM    3  O   UNL     1      18.548  49.309  51.480  1.00  0.00    -0.268 OA
HETATM    4  H   UNL     1      20.119  47.728  50.752  1.00  0.00     0.163 HD
ENDROOT
BRANCH   2   5
HETATM    5  C   UNL     1      20.520  48.069  48.707  1.00  0.00     0.161 C 
BRANCH   5   6
HETATM    6  C   UNL     1      21.916  48.643  48.635  1.00  0.00    -0.038 A 
HETATM    7  C   UNL     1      23.052  47.914  49.025  1.00  0.00     0.045 A 
HETATM    8  C   UNL     1      24.339  48.455  48.927  1.00  0.00     0.070 A 
HETATM    9  C   UNL     1      24.502  49.742  48.421  1.00  0.00     0.037 A 
HETATM   10  C   UNL     1      23.385  50.477  48.015  1.00  0.00     0.003 A 
HETATM   11  C   UNL     1      22.104  49.931  48.116  1.00  0.00     0.009 A 
BRANCH   8  12
HETATM   12  O   UNL     1      25.336  47.623  49.355  1.00  0.00    -0.342 OA
BRANCH  12  13
HETATM   13  C   UNL     1      26.423  48.222  50.057  1.00  0.00     0.278 C 
BRANCH  13  14
HETATM   14  C   UNL     1      27.644  48.374  49.151  1.00  0.00     0.239 C 
HETATM   15  N   UNL     1      28.004  49.652  48.840  1.00  0.00    -0.368 N 
HETATM   16  H   UNL     1      27.536  50.438  49.274  1.00  0.00     0.159 HD
HETATM   17  H   UNL     1      28.827  49.805  48.272  1.00  0.00     0.159 HD
HETATM   18  O   UNL     1      28.266  47.414  48.704  1.00  0.00    -0.271 OA
ENDBRANCH  13  14
ENDBRANCH  12  13
ENDBRANCH   8  12
ENDBRANCH   5   6
ENDBRANCH   2   5
BRANCH   1  19
HETATM   19  C   UNL     1      18.487  50.206  49.303  1.00  0.00     0.075 A 
HETATM   20  C   UNL     1      18.826  51.576  49.198  1.00  0.00     0.158 A 
HETATM   21  N   UNL     1      18.230  52.189  48.180  1.00  0.00    -0.183 NA
HETATM   22  N   UNL     1      17.543  51.204  47.569  1.00  0.00    -0.268 N 
HETATM   23  C   UNL     1      17.660  49.983  48.206  1.00  0.00     0.052 A 
BRANCH  22  24
HETATM   24  C   UNL     1      16.785  51.506  46.354  1.00  0.00     0.106 C 
HETATM   25  C   UNL     1      17.432  52.592  45.485  1.00  0.00     0.034 C 
BRANCH  24  26
HETATM   26  C   UNL     1      15.302  51.806  46.655  1.00  0.00     0.022 C 
HETATM   27  C   UNL     1      15.054  53.018  47.542  1.00  0.00     0.007 C 
ENDBRANCH  24  26
ENDBRANCH  22  24
BRANCH  23  28
HETATM   28  C   UNL     1      16.948  48.710  47.740  1.00  0.00     0.038 A 
HETATM   29  C   UNL     1      16.612  47.612  48.719  1.00  0.00     0.011 A 
HETATM   30  C   UNL     1      15.516  48.442  48.140  1.00  0.00     0.011 A 
ENDBRANCH  23  28
ENDBRANCH   1  19
TORSDOF 9
ENDMDL
