MODEL 1
REMARK VINA RESULT:      -9.2      0.000      0.000
REMARK  5 active torsions:
REMARK  status: ('A' for Active; 'I' for Inactive)
REMARK    1  A    between atoms: C_4  and  N_5 
REMARK    2  A    between atoms: N_8  and  C_10 
REMARK    3  A    between atoms: N_13  and  C_15 
REMARK    4  A    between atoms: C_15  and  C_16 
REMARK    5  A    between atoms: C_17  and  O_18 
ROOT
HETATM    1  C   UNL     1      25.834  43.433  51.915  1.00  0.00     0.191 C 
HETATM    2  C   UNL     1      25.583  43.666  50.420  1.00  0.00     0.061 C 
HETATM    3  C   UNL     1      26.050  45.012  49.865  1.00  0.00     0.237 C 
HETATM    4  N   UNL     1      25.751  46.167  50.777  1.00  0.00    -0.067 N 
HETATM    5  H   UNL     1      24.746  46.420  50.689  1.00  0.00     0.280 HD
HETATM    6  C   UNL     1      26.034  45.946  52.237  1.00  0.00     0.237 C 
HETATM    7  C   UNL     1      25.380  44.663  52.701  1.00  0.00     0.061 C 
ENDROOT
BRANCH   1   8
HETATM    8  N   UNL     1      27.245  42.915  52.256  1.00  0.00    -0.064 N 
HETATM    9  C   UNL     1      28.450  43.860  52.069  1.00  0.00     0.255 C 
HETATM   10  C   UNL     1      29.788  43.185  52.442  1.00  0.00     0.150 C 
HETATM   11  N   UNL     1      29.706  42.685  53.824  1.00  0.00    -0.378 N 
HETATM   12  C   UNL     1      28.716  41.596  53.931  1.00  0.00     0.150 C 
HETATM   13  C   UNL     1      27.305  42.138  53.613  1.00  0.00     0.255 C 
HETATM   14  H   UNL     1      27.430  42.168  51.567  1.00  0.00     0.280 HD
BRANCH  11  15
HETATM   15  C   UNL     1      29.842  43.623  54.863  1.00  0.00     0.030 A 
HETATM   16  C   UNL     1      29.012  44.750  54.995  1.00  0.00     0.029 A 
HETATM   17  C   UNL     1      29.199  45.702  56.008  1.00  0.00     0.002 A 
HETATM   18  C   UNL     1      30.206  45.536  56.948  1.00  0.00     0.000 A 
HETATM   19  C   UNL     1      31.004  44.404  56.890  1.00  0.00     0.002 A 
HETATM   20  C   UNL     1      30.813  43.460  55.870  1.00  0.00     0.029 A 
ENDBRANCH  11  15
ENDBRANCH   1   8
BRANCH   4  21
HETATM   21  C   UNL     1      26.429  47.443  50.253  1.00  0.00     0.276 C 
BRANCH  21  22
HETATM   22  C   UNL     1      25.515  48.339  49.470  1.00  0.00     0.002 A 
HETATM   23  C   UNL     1      26.033  49.324  48.622  1.00  0.00     0.073 A 
HETATM   24  C   UNL     1      25.194  50.152  47.880  1.00  0.00     0.038 A 
HETATM   25  C   UNL     1      23.811  49.988  47.971  1.00  0.00     0.022 A 
HETATM   26  C   UNL     1      23.282  49.005  48.804  1.00  0.00     0.011 A 
HETATM   27 BR   UNL     1      21.412  48.754  48.901  1.00  0.00    -0.051 Br
HETATM   28  C   UNL     1      24.123  48.187  49.558  1.00  0.00     0.030 A 
BRANCH  23  29
HETATM   29  O   UNL     1      27.393  49.420  48.507  1.00  0.00    -0.360 OA
HETATM   30  H   UNL     1      27.657  50.297  48.862  1.00  0.00     0.217 HD
ENDBRANCH  23  29
ENDBRANCH  21  22
ENDBRANCH   4  21
TORSDOF 5
ENDMDL
MODEL 2
REMARK VINA RESULT:      -9.1      2.473      4.202
REMARK  5 active torsions:
REMARK  status: ('A' for Active; 'I' for Inactive)
REMARK    1  A    between atoms: C_4  and  N_5 
REMARK    2  A    between atoms: N_8  and  C_10 
REMARK    3  A    between atoms: N_13  and  C_15 
REMARK    4  A    between atoms: C_15  and  C_16 
REMARK    5  A    between atoms: C_17  and  O_18 
ROOT
HETATM    1  C   UNL     1      25.151  46.337  50.085  1.00  0.00     0.191 C 
HETATM    2  C   UNL     1      26.157  47.335  49.500  1.00  0.00     0.061 C 
HETATM    3  C   UNL     1      25.670  48.779  49.373  1.00  0.00     0.237 C 
HETATM    4  N   UNL     1      24.259  48.888  48.872  1.00  0.00    -0.067 N 
HETATM    5  H   UNL     1      24.250  48.738  47.843  1.00  0.00     0.280 HD
HETATM    6  C   UNL     1      23.269  47.931  49.476  1.00  0.00     0.237 C 
HETATM    7  C   UNL     1      23.800  46.517  49.393  1.00  0.00     0.061 C 
ENDROOT
BRANCH   1   8
HETATM    8  N   UNL     1      25.104  46.299  51.624  1.00  0.00    -0.064 N 
HETATM    9  C   UNL     1      24.903  44.942  52.331  1.00  0.00     0.255 C 
HETATM   10  C   UNL     1      24.867  45.081  53.869  1.00  0.00     0.150 C 
HETATM   11  N   UNL     1      26.101  45.744  54.320  1.00  0.00    -0.378 N 
HETATM   12  C   UNL     1      26.156  47.138  53.839  1.00  0.00     0.150 C 
HETATM   13  C   UNL     1      26.229  47.156  52.296  1.00  0.00     0.255 C 
HETATM   14  H   UNL     1      24.250  46.820  51.880  1.00  0.00     0.280 HD
BRANCH  11  15
HETATM   15  C   UNL     1      27.273  44.968  54.376  1.00  0.00     0.030 A 
HETATM   16  C   UNL     1      27.378  43.693  53.794  1.00  0.00     0.029 A 
HETATM   17  C   UNL     1      28.538  42.912  53.907  1.00  0.00     0.002 A 
HETATM   18  C   UNL     1      29.648  43.402  54.580  1.00  0.00     0.000 A 
HETATM   19  C   UNL     1      29.606  44.681  55.113  1.00  0.00     0.002 A 
HETATM   20  C   UNL     1      28.440  45.452  54.998  1.00  0.00     0.029 A 
ENDBRANCH  11  15
ENDBRANCH   1   8
BRANCH   4  21
HETATM   21  C   UNL     1      23.774  50.344  48.969  1.00  0.00     0.276 C 
BRANCH  21  22
HETATM   22  C   UNL     1      22.281  50.489  48.947  1.00  0.00     0.002 A 
HETATM   23  C   UNL     1      21.582  50.859  50.101  1.00  0.00     0.073 A 
HETATM   24  C   UNL     1      20.197  51.010  50.090  1.00  0.00     0.038 A 
HETATM   25  C   UNL     1      19.494  50.805  48.901  1.00  0.00     0.022 A 
HETATM   26  C   UNL     1      20.179  50.446  47.743  1.00  0.00     0.011 A 
HETATM   27 BR   UNL     1      19.235  50.206  46.123  1.00  0.00    -0.051 Br
HETATM   28  C   UNL     1      21.563  50.280  47.760  1.00  0.00     0.030 A 
BRANCH  23  29
HETATM   29  O   UNL     1      22.305  51.112  51.235  1.00  0.00    -0.360 OA
HETATM   30  H   UNL     1      22.571  50.246  51.615  1.00  0.00     0.217 HD
ENDBRANCH  23  29
ENDBRANCH  21  22
ENDBRANCH   4  21
TORSDOF 5
ENDMDL
MODEL 3
REMARK VINA RESULT:      -8.6      4.317      6.856
REMARK  5 active torsions:
REMARK  status: ('A' for Active; 'I' for Inactive)
REMARK    1  A    between atoms: C_4  and  N_5 
REMARK    2  A    between atoms: N_8  and  C_10 
REMARK    3  A    between atoms: N_13  and  C_15 
REMARK    4  A    between atoms: C_15  and  C_16 
REMARK    5  A    between atoms: C_17  and  O_18 
ROOT
HETATM    1  C   UNL     1      25.501  44.733  50.451  1.00  0.00     0.191 C 
HETATM    2  C   UNL     1      24.444  43.690  50.067  1.00  0.00     0.061 C 
HETATM    3  C   UNL     1      24.779  42.239  50.416  1.00  0.00     0.237 C 
HETATM    4  N   UNL     1      26.207  41.874  50.130  1.00  0.00    -0.067 N 
HETATM    5  H   UNL     1      26.320  41.710  49.110  1.00  0.00     0.280 HD
HETATM    6  C   UNL     1      27.242  42.884  50.542  1.00  0.00     0.237 C 
HETATM    7  C   UNL     1      26.878  44.247  49.997  1.00  0.00     0.061 C 
ENDROOT
BRANCH   1   8
HETATM    8  N   UNL     1      25.421  45.221  51.910  1.00  0.00    -0.064 N 
HETATM    9  C   UNL     1      25.432  44.177  53.046  1.00  0.00     0.255 C 
HETATM   10  C   UNL     1      25.332  44.830  54.443  1.00  0.00     0.150 C 
HETATM   11  N   UNL     1      26.425  45.803  54.597  1.00  0.00    -0.378 N 
HETATM   12  C   UNL     1      26.258  46.934  53.665  1.00  0.00     0.150 C 
HETATM   13  C   UNL     1      26.367  46.432  52.208  1.00  0.00     0.255 C 
HETATM   14  H   UNL     1      24.484  45.648  51.999  1.00  0.00     0.280 HD
BRANCH  11  15
HETATM   15  C   UNL     1      27.708  45.302  54.878  1.00  0.00     0.030 A 
HETATM   16  C   UNL     1      28.180  44.076  54.376  1.00  0.00     0.029 A 
HETATM   17  C   UNL     1      29.444  43.567  54.711  1.00  0.00     0.002 A 
HETATM   18  C   UNL     1      30.294  44.290  55.535  1.00  0.00     0.000 A 
HETATM   19  C   UNL     1      29.889  45.534  55.999  1.00  0.00     0.002 A 
HETATM   20  C   UNL     1      28.623  46.031  55.662  1.00  0.00     0.029 A 
ENDBRANCH  11  15
ENDBRANCH   1   8
BRANCH   4  21
HETATM   21  C   UNL     1      26.518  40.478  50.695  1.00  0.00     0.276 C 
BRANCH  21  22
HETATM   22  C   UNL     1      27.391  39.644  49.805  1.00  0.00     0.002 A 
HETATM   23  C   UNL     1      28.655  39.223  50.232  1.00  0.00     0.073 A 
HETATM   24  C   UNL     1      29.468  38.437  49.419  1.00  0.00     0.038 A 
HETATM   25  C   UNL     1      29.008  38.047  48.160  1.00  0.00     0.022 A 
HETATM   26  C   UNL     1      27.747  38.449  47.726  1.00  0.00     0.011 A 
HETATM   27 BR   UNL     1      27.105  37.891  46.039  1.00  0.00    -0.051 Br
HETATM   28  C   UNL     1      26.941  39.249  48.535  1.00  0.00     0.030 A 
BRANCH  23  29
HETATM   29  O   UNL     1      29.053  39.571  51.494  1.00  0.00    -0.360 OA
HETATM   30  H   UNL     1      29.409  40.486  51.450  1.00  0.00     0.217 HD
ENDBRANCH  23  29
ENDBRANCH  21  22
ENDBRANCH   4  21
TORSDOF 5
ENDMDL
MODEL 4
REMARK VINA RESULT:      -8.6      6.472     12.292
REMARK  5 active torsions:
REMARK  status: ('A' for Active; 'I' for Inactive)
REMARK    1  A    between atoms: C_4  and  N_5 
REMARK    2  A    between atoms: N_8  and  C_10 
REMARK    3  A    between atoms: N_13  and  C_15 
REMARK    4  A    between atoms: C_15  and  C_16 
REMARK    5  A    between atoms: C_17  and  O_18 
ROOT
HETATM    1  C   UNL     1      19.154  50.028  49.971  1.00  0.00     0.191 C 
HETATM    2  C   UNL     1      20.332  50.962  50.270  1.00  0.00     0.061 C 
HETATM    3  C   UNL     1      21.591  50.742  49.430  1.00  0.00     0.237 C 
HETATM    4  N   UNL     1      21.927  49.292  49.232  1.00  0.00    -0.067 N 
HETATM    5  H   UNL     1      22.375  48.924  50.096  1.00  0.00     0.280 HD
HETATM    6  C   UNL     1      20.773  48.386  48.902  1.00  0.00     0.237 C 
HETATM    7  C   UNL     1      19.657  48.586  49.904  1.00  0.00     0.061 C 
ENDROOT
BRANCH   1   8
HETATM    8  N   UNL     1      18.266  50.472  48.793  1.00  0.00    -0.064 N 
HETATM    9  C   UNL     1      16.805  49.976  48.733  1.00  0.00     0.255 C 
HETATM   10  C   UNL     1      16.058  50.501  47.487  1.00  0.00     0.150 C 
HETATM   11  N   UNL     1      16.128  51.971  47.469  1.00  0.00    -0.378 N 
HETATM   12  C   UNL     1      17.516  52.430  47.270  1.00  0.00     0.150 C 
HETATM   13  C   UNL     1      18.387  51.999  48.471  1.00  0.00     0.255 C 
HETATM   14  H   UNL     1      18.690  50.037  47.958  1.00  0.00     0.280 HD
BRANCH  11  15
HETATM   15  C   UNL     1      15.268  52.673  48.332  1.00  0.00     0.030 A 
HETATM   16  C   UNL     1      15.132  52.368  49.697  1.00  0.00     0.029 A 
HETATM   17  C   UNL     1      14.228  53.046  50.529  1.00  0.00     0.002 A 
HETATM   18  C   UNL     1      13.453  54.080  50.025  1.00  0.00     0.000 A 
HETATM   19  C   UNL     1      13.605  54.454  48.698  1.00  0.00     0.002 A 
HETATM   20  C   UNL     1      14.507  53.767  47.874  1.00  0.00     0.029 A 
ENDBRANCH  11  15
ENDBRANCH   1   8
BRANCH   4  21
HETATM   21  C   UNL     1      23.071  49.148  48.215  1.00  0.00     0.276 C 
BRANCH  21  22
HETATM   22  C   UNL     1      24.388  48.781  48.831  1.00  0.00     0.002 A 
HETATM   23  C   UNL     1      25.575  49.379  48.393  1.00  0.00     0.073 A 
HETATM   24  C   UNL     1      26.802  49.055  48.967  1.00  0.00     0.038 A 
HETATM   25  C   UNL     1      26.850  48.128  50.009  1.00  0.00     0.022 A 
HETATM   26  C   UNL     1      25.675  47.532  50.462  1.00  0.00     0.011 A 
HETATM   27 BR   UNL     1      25.730  46.306  51.899  1.00  0.00    -0.051 Br
HETATM   28  C   UNL     1      24.449  47.846  49.876  1.00  0.00     0.030 A 
BRANCH  23  29
HETATM   29  O   UNL     1      25.489  50.329  47.411  1.00  0.00    -0.360 OA
HETATM   30  H   UNL     1      24.835  50.999  47.706  1.00  0.00     0.217 HD
ENDBRANCH  23  29
ENDBRANCH  21  22
ENDBRANCH   4  21
TORSDOF 5
ENDMDL
MODEL 5
REMARK VINA RESULT:      -8.5     11.882     13.027
REMARK  5 active torsions:
REMARK  status: ('A' for Active; 'I' for Inactive)
REMARK    1  A    between atoms: C_4  and  N_5 
REMARK    2  A    between atoms: N_8  and  C_10 
REMARK    3  A    between atoms: N_13  and  C_15 
REMARK    4  A    between atoms: C_15  and  C_16 
REMARK    5  A    between atoms: C_17  and  O_18 
ROOT
HETATM    1  C   UNL     1      28.879  51.892  40.204  1.00  0.00     0.191 C 
HETATM    2  C   UNL     1      27.720  51.423  41.092  1.00  0.00     0.061 C 
HETATM    3  C   UNL     1      26.808  50.353  40.492  1.00  0.00     0.237 C 
HETATM    4  N   UNL     1      26.482  50.593  39.046  1.00  0.00    -0.067 N 
HETATM    5  H   UNL     1      25.750  51.329  38.979  1.00  0.00     0.280 HD
HETATM    6  C   UNL     1      27.630  51.016  38.172  1.00  0.00     0.237 C 
HETATM    7  C   UNL     1      28.352  52.188  38.800  1.00  0.00     0.061 C 
ENDROOT
BRANCH   1   8
HETATM    8  N   UNL     1      30.135  51.001  40.264  1.00  0.00    -0.064 N 
HETATM    9  C   UNL     1      31.510  51.630  39.957  1.00  0.00     0.255 C 
HETATM   10  C   UNL     1      32.659  50.602  40.047  1.00  0.00     0.150 C 
HETATM   11  N   UNL     1      32.639  49.976  41.379  1.00  0.00    -0.378 N 
HETATM   12  C   UNL     1      31.421  49.164  41.561  1.00  0.00     0.150 C 
HETATM   13  C   UNL     1      30.175  50.075  41.526  1.00  0.00     0.255 C 
HETATM   14  H   UNL     1      30.017  50.320  39.496  1.00  0.00     0.280 HD
BRANCH  11  15
HETATM   15  C   UNL     1      33.163  50.717  42.453  1.00  0.00     0.030 A 
HETATM   16  C   UNL     1      32.402  51.085  43.576  1.00  0.00     0.029 A 
HETATM   17  C   UNL     1      32.928  51.871  44.613  1.00  0.00     0.002 A 
HETATM   18  C   UNL     1      34.252  52.285  44.574  1.00  0.00     0.000 A 
HETATM   19  C   UNL     1      35.053  51.888  43.514  1.00  0.00     0.002 A 
HETATM   20  C   UNL     1      34.516  51.107  42.481  1.00  0.00     0.029 A 
ENDBRANCH  11  15
ENDBRANCH   1   8
BRANCH   4  21
HETATM   21  C   UNL     1      25.741  49.378  38.463  1.00  0.00     0.276 C 
BRANCH  21  22
HETATM   22  C   UNL     1      24.415  49.107  39.109  1.00  0.00     0.002 A 
HETATM   23  C   UNL     1      23.340  49.984  38.931  1.00  0.00     0.073 A 
HETATM   24  C   UNL     1      22.100  49.736  39.516  1.00  0.00     0.038 A 
HETATM   25  C   UNL     1      21.921  48.583  40.281  1.00  0.00     0.022 A 
HETATM   26  C   UNL     1      22.980  47.696  40.459  1.00  0.00     0.011 A 
HETATM   27 BR   UNL     1      22.730  46.114  41.462  1.00  0.00    -0.051 Br
HETATM   28  C   UNL     1      24.225  47.954  39.885  1.00  0.00     0.030 A 
BRANCH  23  29
HETATM   29  O   UNL     1      23.529  51.075  38.126  1.00  0.00    -0.360 OA
HETATM   30  H   UNL     1      24.123  50.801  37.393  1.00  0.00     0.217 HD
ENDBRANCH  23  29
ENDBRANCH  21  22
ENDBRANCH   4  21
TORSDOF 5
ENDMDL
MODEL 6
REMARK VINA RESULT:      -8.5      2.973      4.335
REMARK  5 active torsions:
REMARK  status: ('A' for Active; 'I' for Inactive)
REMARK    1  A    between atoms: C_4  and  N_5 
REMARK    2  A    between atoms: N_8  and  C_10 
REMARK    3  A    between atoms: N_13  and  C_15 
REMARK    4  A    between atoms: C_15  and  C_16 
REMARK    5  A    between atoms: C_17  and  O_18 
ROOT
HETATM    1  C   UNL     1      25.787  45.854  50.350  1.00  0.00     0.191 C 
HETATM    2  C   UNL     1      26.029  47.311  49.938  1.00  0.00     0.061 C 
HETATM    3  C   UNL     1      24.777  48.161  49.717  1.00  0.00     0.237 C 
HETATM    4  N   UNL     1      23.688  47.435  48.982  1.00  0.00    -0.067 N 
HETATM    5  H   UNL     1      23.917  47.413  47.967  1.00  0.00     0.280 HD
HETATM    6  C   UNL     1      23.429  46.019  49.416  1.00  0.00     0.237 C 
HETATM    7  C   UNL     1      24.726  45.240  49.436  1.00  0.00     0.061 C 
ENDROOT
BRANCH   1   8
HETATM    8  N   UNL     1      25.559  45.644  51.859  1.00  0.00    -0.064 N 
HETATM    9  C   UNL     1      25.633  44.213  52.432  1.00  0.00     0.255 C 
HETATM   10  C   UNL     1      25.370  44.175  53.953  1.00  0.00     0.150 C 
HETATM   11  N   UNL     1      26.322  45.073  54.627  1.00  0.00    -0.378 N 
HETATM   12  C   UNL     1      26.070  46.479  54.259  1.00  0.00     0.150 C 
HETATM   13  C   UNL     1      26.328  46.678  52.749  1.00  0.00     0.255 C 
HETATM   14  H   UNL     1      24.573  45.905  52.022  1.00  0.00     0.280 HD
BRANCH  11  15
HETATM   15  C   UNL     1      27.638  44.611  54.802  1.00  0.00     0.030 A 
HETATM   16  C   UNL     1      28.614  45.325  55.520  1.00  0.00     0.029 A 
HETATM   17  C   UNL     1      29.937  44.873  55.637  1.00  0.00     0.002 A 
HETATM   18  C   UNL     1      30.318  43.668  55.066  1.00  0.00     0.000 A 
HETATM   19  C   UNL     1      29.369  42.903  54.404  1.00  0.00     0.002 A 
HETATM   20  C   UNL     1      28.050  43.366  54.289  1.00  0.00     0.029 A 
ENDBRANCH  11  15
ENDBRANCH   1   8
BRANCH   4  21
HETATM   21  C   UNL     1      22.400  48.273  48.982  1.00  0.00     0.276 C 
BRANCH  21  22
HETATM   22  C   UNL     1      21.250  47.621  48.272  1.00  0.00     0.002 A 
HETATM   23  C   UNL     1      19.986  47.556  48.867  1.00  0.00     0.073 A 
HETATM   24  C   UNL     1      18.908  46.965  48.211  1.00  0.00     0.038 A 
HETATM   25  C   UNL     1      19.088  46.441  46.930  1.00  0.00     0.022 A 
HETATM   26  C   UNL     1      20.339  46.509  46.321  1.00  0.00     0.011 A 
HETATM   27 BR   UNL     1      20.577  45.836  44.572  1.00  0.00    -0.051 Br
HETATM   28  C   UNL     1      21.420  47.087  46.985  1.00  0.00     0.030 A 
BRANCH  23  29
HETATM   29  O   UNL     1      19.826  48.132  50.098  1.00  0.00    -0.360 OA
HETATM   30  H   UNL     1      19.804  47.407  50.761  1.00  0.00     0.217 HD
ENDBRANCH  23  29
ENDBRANCH  21  22
ENDBRANCH   4  21
TORSDOF 5
ENDMDL
MODEL 7
REMARK VINA RESULT:      -8.2      4.358     10.335
REMARK  5 active torsions:
REMARK  status: ('A' for Active; 'I' for Inactive)
REMARK    1  A    between atoms: C_4  and  N_5 
REMARK    2  A    between atoms: N_8  and  C_10 
REMARK    3  A    between atoms: N_13  and  C_15 
REMARK    4  A    between atoms: C_15  and  C_16 
REMARK    5  A    between atoms: C_17  and  O_18 
ROOT
HETATM    1  C   UNL     1      22.413  48.237  48.368  1.00  0.00     0.191 C 
HETATM    2  C   UNL     1      22.784  46.799  48.750  1.00  0.00     0.061 C 
HETATM    3  C   UNL     1      23.890  46.648  49.796  1.00  0.00     0.237 C 
HETATM    4  N   UNL     1      25.035  47.597  49.590  1.00  0.00    -0.067 N 
HETATM    5  H   UNL     1      25.640  47.242  48.822  1.00  0.00     0.280 HD
HETATM    6  C   UNL     1      24.665  49.015  49.252  1.00  0.00     0.237 C 
HETATM    7  C   UNL     1      23.690  49.032  48.095  1.00  0.00     0.061 C 
ENDROOT
BRANCH   1   8
HETATM    8  N   UNL     1      21.404  48.913  49.315  1.00  0.00    -0.064 N 
HETATM    9  C   UNL     1      21.258  50.448  49.276  1.00  0.00     0.255 C 
HETATM   10  C   UNL     1      20.217  50.965  50.294  1.00  0.00     0.150 C 
HETATM   11  N   UNL     1      18.930  50.297  50.045  1.00  0.00    -0.378 N 
HETATM   12  C   UNL     1      19.022  48.853  50.334  1.00  0.00     0.150 C 
HETATM   13  C   UNL     1      20.017  48.187  49.359  1.00  0.00     0.255 C 
HETATM   14  H   UNL     1      21.771  48.741  50.266  1.00  0.00     0.280 HD
BRANCH  11  15
HETATM   15  C   UNL     1      18.159  50.754  48.962  1.00  0.00     0.030 A 
HETATM   16  C   UNL     1      16.939  50.166  48.585  1.00  0.00     0.029 A 
HETATM   17  C   UNL     1      16.210  50.603  47.468  1.00  0.00     0.002 A 
HETATM   18  C   UNL     1      16.666  51.672  46.711  1.00  0.00     0.000 A 
HETATM   19  C   UNL     1      17.833  52.320  47.089  1.00  0.00     0.002 A 
HETATM   20  C   UNL     1      18.555  51.873  48.204  1.00  0.00     0.029 A 
ENDBRANCH  11  15
ENDBRANCH   1   8
BRANCH   4  21
HETATM   21  C   UNL     1      25.998  47.532  50.787  1.00  0.00     0.276 C 
BRANCH  21  22
HETATM   22  C   UNL     1      26.301  46.136  51.246  1.00  0.00     0.002 A 
HETATM   23  C   UNL     1      26.986  45.243  50.416  1.00  0.00     0.073 A 
HETATM   24  C   UNL     1      27.285  43.949  50.837  1.00  0.00     0.038 A 
HETATM   25  C   UNL     1      26.909  43.540  52.117  1.00  0.00     0.022 A 
HETATM   26  C   UNL     1      26.236  44.422  52.959  1.00  0.00     0.011 A 
HETATM   27 BR   UNL     1      25.760  43.886  54.706  1.00  0.00    -0.051 Br
HETATM   28  C   UNL     1      25.924  45.712  52.530  1.00  0.00     0.030 A 
BRANCH  23  29
HETATM   29  O   UNL     1      27.395  45.692  49.189  1.00  0.00    -0.360 OA
HETATM   30  H   UNL     1      26.959  46.559  49.033  1.00  0.00     0.217 HD
ENDBRANCH  23  29
ENDBRANCH  21  22
ENDBRANCH   4  21
TORSDOF 5
ENDMDL
MODEL 8
REMARK VINA RESULT:      -8.1      2.982      4.148
REMARK  5 active torsions:
REMARK  status: ('A' for Active; 'I' for Inactive)
REMARK    1  A    between atoms: C_4  and  N_5 
REMARK    2  A    between atoms: N_8  and  C_10 
REMARK    3  A    between atoms: N_13  and  C_15 
REMARK    4  A    between atoms: C_15  and  C_16 
REMARK    5  A    between atoms: C_17  and  O_18 
ROOT
HETATM    1  C   UNL     1      25.867  45.908  50.497  1.00  0.00     0.191 C 
HETATM    2  C   UNL     1      24.937  46.961  49.880  1.00  0.00     0.061 C 
HETATM    3  C   UNL     1      23.549  46.469  49.468  1.00  0.00     0.237 C 
HETATM    4  N   UNL     1      23.570  45.126  48.797  1.00  0.00    -0.067 N 
HETATM    5  H   UNL     1      23.879  45.243  47.811  1.00  0.00     0.280 HD
HETATM    6  C   UNL     1      24.455  44.086  49.427  1.00  0.00     0.237 C 
HETATM    7  C   UNL     1      25.845  44.647  49.633  1.00  0.00     0.061 C 
ENDROOT
BRANCH   1   8
HETATM    8  N   UNL     1      25.664  45.678  52.006  1.00  0.00    -0.064 N 
HETATM    9  C   UNL     1      25.802  44.247  52.567  1.00  0.00     0.255 C 
HETATM   10  C   UNL     1      25.557  44.188  54.091  1.00  0.00     0.150 C 
HETATM   11  N   UNL     1      26.477  45.119  54.762  1.00  0.00    -0.378 N 
HETATM   12  C   UNL     1      26.164  46.516  54.407  1.00  0.00     0.150 C 
HETATM   13  C   UNL     1      26.397  46.737  52.896  1.00  0.00     0.255 C 
HETATM   14  H   UNL     1      24.669  45.897  52.180  1.00  0.00     0.280 HD
BRANCH  11  15
HETATM   15  C   UNL     1      27.814  44.712  54.920  1.00  0.00     0.030 A 
HETATM   16  C   UNL     1      28.327  43.529  54.361  1.00  0.00     0.029 A 
HETATM   17  C   UNL     1      29.650  43.113  54.574  1.00  0.00     0.002 A 
HETATM   18  C   UNL     1      30.515  43.891  55.330  1.00  0.00     0.000 A 
HETATM   19  C   UNL     1      30.064  45.097  55.846  1.00  0.00     0.002 A 
HETATM   20  C   UNL     1      28.739  45.502  55.630  1.00  0.00     0.029 A 
ENDBRANCH  11  15
ENDBRANCH   1   8
BRANCH   4  21
HETATM   21  C   UNL     1      22.135  44.609  48.603  1.00  0.00     0.276 C 
BRANCH  21  22
HETATM   22  C   UNL     1      21.223  45.589  47.926  1.00  0.00     0.002 A 
HETATM   23  C   UNL     1      21.447  45.977  46.601  1.00  0.00     0.073 A 
HETATM   24  C   UNL     1      20.598  46.876  45.958  1.00  0.00     0.038 A 
HETATM   25  C   UNL     1      19.494  47.388  46.643  1.00  0.00     0.022 A 
HETATM   26  C   UNL     1      19.254  47.002  47.959  1.00  0.00     0.011 A 
HETATM   27 BR   UNL     1      17.739  47.662  48.876  1.00  0.00    -0.051 Br
HETATM   28  C   UNL     1      20.113  46.114  48.606  1.00  0.00     0.030 A 
BRANCH  23  29
HETATM   29  O   UNL     1      22.502  45.412  45.937  1.00  0.00    -0.360 OA
HETATM   30  H   UNL     1      22.714  44.566  46.387  1.00  0.00     0.217 HD
ENDBRANCH  23  29
ENDBRANCH  21  22
ENDBRANCH   4  21
TORSDOF 5
ENDMDL
MODEL 9
REMARK VINA RESULT:      -8.1      4.162      8.934
REMARK  5 active torsions:
REMARK  status: ('A' for Active; 'I' for Inactive)
REMARK    1  A    between atoms: C_4  and  N_5 
REMARK    2  A    between atoms: N_8  and  C_10 
REMARK    3  A    between atoms: N_13  and  C_15 
REMARK    4  A    between atoms: C_15  and  C_16 
REMARK    5  A    between atoms: C_17  and  O_18 
ROOT
HETATM    1  C   UNL     1      25.086  46.759  50.282  1.00  0.00     0.191 C 
HETATM    2  C   UNL     1      26.296  46.013  49.707  1.00  0.00     0.061 C 
HETATM    3  C   UNL     1      26.762  44.786  50.492  1.00  0.00     0.237 C 
HETATM    4  N   UNL     1      26.756  44.995  51.979  1.00  0.00    -0.067 N 
HETATM    5  H   UNL     1      27.592  45.551  52.249  1.00  0.00     0.280 HD
HETATM    6  C   UNL     1      25.549  45.694  52.542  1.00  0.00     0.237 C 
HETATM    7  C   UNL     1      25.293  46.976  51.781  1.00  0.00     0.061 C 
ENDROOT
BRANCH   1   8
HETATM    8  N   UNL     1      23.720  46.170  49.882  1.00  0.00    -0.064 N 
HETATM    9  C   UNL     1      22.908  46.862  48.768  1.00  0.00     0.255 C 
HETATM   10  C   UNL     1      21.561  46.156  48.498  1.00  0.00     0.150 C 
HETATM   11  N   UNL     1      21.816  44.742  48.178  1.00  0.00    -0.378 N 
HETATM   12  C   UNL     1      22.362  44.028  49.348  1.00  0.00     0.150 C 
HETATM   13  C   UNL     1      23.743  44.613  49.719  1.00  0.00     0.255 C 
HETATM   14  H   UNL     1      23.120  46.294  50.714  1.00  0.00     0.280 HD
BRANCH  11  15
HETATM   15  C   UNL     1      22.279  44.441  46.885  1.00  0.00     0.030 A 
HETATM   16  C   UNL     1      22.037  45.265  45.772  1.00  0.00     0.029 A 
HETATM   17  C   UNL     1      22.463  44.921  44.480  1.00  0.00     0.002 A 
HETATM   18  C   UNL     1      23.178  43.751  44.267  1.00  0.00     0.000 A 
HETATM   19  C   UNL     1      23.492  42.944  45.350  1.00  0.00     0.002 A 
HETATM   20  C   UNL     1      23.058  43.295  46.637  1.00  0.00     0.029 A 
ENDBRANCH  11  15
ENDBRANCH   1   8
BRANCH   4  21
HETATM   21  C   UNL     1      27.031  43.666  52.701  1.00  0.00     0.276 C 
BRANCH  21  22
HETATM   22  C   UNL     1      28.264  43.684  53.556  1.00  0.00     0.002 A 
HETATM   23  C   UNL     1      29.346  42.845  53.268  1.00  0.00     0.073 A 
HETATM   24  C   UNL     1      30.501  42.862  54.047  1.00  0.00     0.038 A 
HETATM   25  C   UNL     1      30.588  43.744  55.126  1.00  0.00     0.022 A 
HETATM   26  C   UNL     1      29.522  44.591  55.418  1.00  0.00     0.011 A 
HETATM   27 BR   UNL     1      29.651  45.812  56.854  1.00  0.00    -0.051 Br
HETATM   28  C   UNL     1      28.360  44.562  54.646  1.00  0.00     0.030 A 
BRANCH  23  29
HETATM   29  O   UNL     1      29.255  42.036  52.168  1.00  0.00    -0.360 OA
HETATM   30  H   UNL     1      28.301  41.884  51.992  1.00  0.00     0.217 HD
ENDBRANCH  23  29
ENDBRANCH  21  22
ENDBRANCH   4  21
TORSDOF 5
ENDMDL
MODEL 10
REMARK VINA RESULT:      -8.1      4.227     10.078
REMARK  5 active torsions:
REMARK  status: ('A' for Active; 'I' for Inactive)
REMARK    1  A    between atoms: C_4  and  N_5 
REMARK    2  A    between atoms: N_8  and  C_10 
REMARK    3  A    between atoms: N_13  and  C_15 
REMARK    4  A    between atoms: C_15  and  C_16 
REMARK    5  A    between atoms: C_17  and  O_18 
ROOT
HETATM    1  C   UNL     1      23.458  46.982  48.932  1.00  0.00     0.191 C 
HETATM    2  C   UNL     1      23.560  45.451  48.924  1.00  0.00     0.061 C 
HETATM    3  C   UNL     1      23.815  44.791  50.279  1.00  0.00     0.237 C 
HETATM    4  N   UNL     1      24.829  45.519  51.114  1.00  0.00    -0.067 N 
HETATM    5  H   UNL     1      25.782  45.295  50.765  1.00  0.00     0.280 HD
HETATM    6  C   UNL     1      24.702  47.017  51.148  1.00  0.00     0.237 C 
HETATM    7  C   UNL     1      24.621  47.561  49.738  1.00  0.00     0.061 C 
ENDROOT
BRANCH   1   8
HETATM    8  N   UNL     1      22.065  47.531  49.295  1.00  0.00    -0.064 N 
HETATM    9  C   UNL     1      21.782  49.034  49.094  1.00  0.00     0.255 C 
HETATM   10  C   UNL     1      20.348  49.422  49.517  1.00  0.00     0.150 C 
HETATM   11  N   UNL     1      19.387  48.591  48.773  1.00  0.00    -0.378 N 
HETATM   12  C   UNL     1      19.502  47.174  49.168  1.00  0.00     0.150 C 
HETATM   13  C   UNL     1      20.894  46.632  48.774  1.00  0.00     0.255 C 
HETATM   14  H   UNL     1      21.990  47.417  50.319  1.00  0.00     0.280 HD
BRANCH  11  15
HETATM   15  C   UNL     1      19.130  48.934  47.434  1.00  0.00     0.030 A 
HETATM   16  C   UNL     1      19.131  50.260  46.968  1.00  0.00     0.029 A 
HETATM   17  C   UNL     1      18.820  50.586  45.639  1.00  0.00     0.002 A 
HETATM   18  C   UNL     1      18.530  49.585  44.722  1.00  0.00     0.000 A 
HETATM   19  C   UNL     1      18.582  48.261  45.129  1.00  0.00     0.002 A 
HETATM   20  C   UNL     1      18.890  47.946  46.460  1.00  0.00     0.029 A 
ENDBRANCH  11  15
ENDBRANCH   1   8
BRANCH   4  21
HETATM   21  C   UNL     1      24.877  44.921  52.529  1.00  0.00     0.276 C 
BRANCH  21  22
HETATM   22  C   UNL     1      26.240  44.950  53.155  1.00  0.00     0.002 A 
HETATM   23  C   UNL     1      26.553  45.888  54.144  1.00  0.00     0.073 A 
HETATM   24  C   UNL     1      27.811  45.916  54.742  1.00  0.00     0.038 A 
HETATM   25  C   UNL     1      28.774  44.981  54.358  1.00  0.00     0.022 A 
HETATM   26  C   UNL     1      28.473  44.035  53.382  1.00  0.00     0.011 A 
HETATM   27 BR   UNL     1      29.760  42.743  52.888  1.00  0.00    -0.051 Br
HETATM   28  C   UNL     1      27.218  44.018  52.774  1.00  0.00     0.030 A 
BRANCH  23  29
HETATM   29  O   UNL     1      25.569  46.753  54.542  1.00  0.00    -0.360 OA
HETATM   30  H   UNL     1      24.879  46.756  53.843  1.00  0.00     0.217 HD
ENDBRANCH  23  29
ENDBRANCH  21  22
ENDBRANCH   4  21
TORSDOF 5
ENDMDL
