MODEL 1
REMARK VINA RESULT:      -9.3      0.000      0.000
REMARK  5 active torsions:
REMARK  status: ('A' for Active; 'I' for Inactive)
REMARK    1  A    between atoms: C_8  and  C_9 
REMARK    2  A    between atoms: C_9  and  N_10 
REMARK       I    between atoms: N_10  and  C_11 
REMARK    3  A    between atoms: C_11  and  C_12 
REMARK    4  A    between atoms: C_13  and  O_14 
REMARK    5  A    between atoms: O_14  and  C_15 
ROOT
HETATM    1  C   UNL     1      28.581  44.258  53.932  1.00  0.00     0.066 A 
HETATM    2  C   UNL     1      28.075  45.368  54.621  1.00  0.00     0.091 A 
HETATM    3  C   UNL     1      28.665  45.793  55.816  1.00  0.00     0.050 A 
HETATM    4  C   UNL     1      29.742  45.085  56.370  1.00  0.00    -0.023 A 
HETATM    5  C   UNL     1      30.237  43.941  55.701  1.00  0.00    -0.025 A 
HETATM    6  C   UNL     1      29.649  43.540  54.490  1.00  0.00     0.032 A 
HETATM    7  C   UNL     1      30.333  45.486  57.578  1.00  0.00     0.012 A 
HETATM    8  C   UNL     1      31.400  44.769  58.122  1.00  0.00     0.001 A 
HETATM    9  C   UNL     1      31.888  43.643  57.464  1.00  0.00     0.001 A 
HETATM   10  C   UNL     1      31.311  43.232  56.262  1.00  0.00     0.012 A 
ENDROOT
BRANCH   1  11
HETATM   11  C   UNL     1      28.011  43.761  52.648  1.00  0.00     0.254 C 
HETATM   12  N   UNL     1      27.578  44.717  51.761  1.00  0.00    -0.352 N 
HETATM   13  H   UNL     1      27.774  45.692  51.956  1.00  0.00     0.163 HD
HETATM   14  O   UNL     1      27.948  42.555  52.437  1.00  0.00    -0.268 OA
BRANCH  12  15
HETATM   15  C   UNL     1      27.052  44.391  50.457  1.00  0.00     0.165 C 
BRANCH  15  16
HETATM   16  C   UNL     1      25.572  44.301  50.550  1.00  0.00     0.009 A 
HETATM   17  C   UNL     1      24.662  45.334  50.700  1.00  0.00     0.034 A 
HETATM   18  C   UNL     1      24.848  46.799  50.824  1.00  0.00     0.070 C 
HETATM   19  N   UNL     1      23.429  44.749  50.730  1.00  0.00    -0.282 N 
HETATM   20  H   UNL     1      22.525  45.199  50.830  1.00  0.00     0.189 HD
HETATM   21  N   UNL     1      23.462  43.415  50.608  1.00  0.00    -0.179 NA
HETATM   22  C   UNL     1      24.764  43.129  50.500  1.00  0.00     0.060 A 
HETATM   23  C   UNL     1      25.205  41.720  50.353  1.00  0.00     0.073 C 
ENDBRANCH  15  16
ENDBRANCH  12  15
ENDBRANCH   1  11
BRANCH   2  24
HETATM   24  O   UNL     1      27.025  46.103  54.135  1.00  0.00    -0.289 OA
BRANCH  24  25
HETATM   25  C   UNL     1      27.007  47.390  54.753  1.00  0.00     0.505 C 
HETATM   26  F   UNL     1      27.976  48.151  54.188  1.00  0.00    -0.184 F 
HETATM   27  F   UNL     1      25.820  47.964  54.430  1.00  0.00    -0.184 F 
ENDBRANCH  24  25
ENDBRANCH   2  24
TORSDOF 5
ENDMDL
MODEL 2
REMARK VINA RESULT:      -9.2      2.771      3.958
REMARK  5 active torsions:
REMARK  status: ('A' for Active; 'I' for Inactive)
REMARK    1  A    between atoms: C_8  and  C_9 
REMARK    2  A    between atoms: C_9  and  N_10 
REMARK       I    between atoms: N_10  and  C_11 
REMARK    3  A    between atoms: C_11  and  C_12 
REMARK    4  A    between atoms: C_13  and  O_14 
REMARK    5  A    between atoms: O_14  and  C_15 
ROOT
HETATM    1  C   UNL     1      28.134  43.973  52.999  1.00  0.00     0.066 A 
HETATM    2  C   UNL     1      29.166  43.030  53.078  1.00  0.00     0.091 A 
HETATM    3  C   UNL     1      30.042  43.024  54.169  1.00  0.00     0.050 A 
HETATM    4  C   UNL     1      29.932  43.994  55.177  1.00  0.00    -0.023 A 
HETATM    5  C   UNL     1      28.915  44.972  55.088  1.00  0.00    -0.025 A 
HETATM    6  C   UNL     1      28.028  44.951  53.998  1.00  0.00     0.032 A 
HETATM    7  C   UNL     1      30.814  44.014  56.268  1.00  0.00     0.012 A 
HETATM    8  C   UNL     1      30.698  44.988  57.260  1.00  0.00     0.001 A 
HETATM    9  C   UNL     1      29.697  45.952  57.175  1.00  0.00     0.001 A 
HETATM   10  C   UNL     1      28.811  45.944  56.096  1.00  0.00     0.012 A 
ENDROOT
BRANCH   1  11
HETATM   11  C   UNL     1      27.156  44.027  51.875  1.00  0.00     0.254 C 
HETATM   12  N   UNL     1      27.483  44.844  50.821  1.00  0.00    -0.352 N 
HETATM   13  H   UNL     1      28.404  45.265  50.792  1.00  0.00     0.163 HD
HETATM   14  O   UNL     1      26.127  43.364  51.933  1.00  0.00    -0.268 OA
BRANCH  12  15
HETATM   15  C   UNL     1      26.661  44.958  49.639  1.00  0.00     0.165 C 
BRANCH  15  16
HETATM   16  C   UNL     1      25.659  46.033  49.858  1.00  0.00     0.009 A 
HETATM   17  C   UNL     1      24.309  45.899  50.132  1.00  0.00     0.034 A 
HETATM   18  C   UNL     1      23.449  44.701  50.278  1.00  0.00     0.070 C 
HETATM   19  N   UNL     1      23.820  47.167  50.254  1.00  0.00    -0.282 N 
HETATM   20  H   UNL     1      22.868  47.455  50.452  1.00  0.00     0.189 HD
HETATM   21  N   UNL     1      24.747  48.120  50.084  1.00  0.00    -0.179 NA
HETATM   22  C   UNL     1      25.873  47.441  49.840  1.00  0.00     0.060 A 
HETATM   23  C   UNL     1      27.141  48.171  49.588  1.00  0.00     0.073 C 
ENDBRANCH  15  16
ENDBRANCH  12  15
ENDBRANCH   1  11
BRANCH   2  24
HETATM   24  O   UNL     1      29.330  42.057  52.128  1.00  0.00    -0.289 OA
BRANCH  24  25
HETATM   25  C   UNL     1      28.962  40.787  52.664  1.00  0.00     0.505 C 
HETATM   26  F   UNL     1      27.691  40.869  53.128  1.00  0.00    -0.184 F 
HETATM   27  F   UNL     1      28.944  39.911  51.626  1.00  0.00    -0.184 F 
ENDBRANCH  24  25
ENDBRANCH   2  24
TORSDOF 5
ENDMDL
MODEL 3
REMARK VINA RESULT:      -9.2      2.392      3.620
REMARK  5 active torsions:
REMARK  status: ('A' for Active; 'I' for Inactive)
REMARK    1  A    between atoms: C_8  and  C_9 
REMARK    2  A    between atoms: C_9  and  N_10 
REMARK       I    between atoms: N_10  and  C_11 
REMARK    3  A    between atoms: C_11  and  C_12 
REMARK    4  A    between atoms: C_13  and  O_14 
REMARK    5  A    between atoms: O_14  and  C_15 
ROOT
HETATM    1  C   UNL     1      28.258  44.705  54.407  1.00  0.00     0.066 A 
HETATM    2  C   UNL     1      29.082  43.674  53.935  1.00  0.00     0.091 A 
HETATM    3  C   UNL     1      30.187  43.251  54.680  1.00  0.00     0.050 A 
HETATM    4  C   UNL     1      30.518  43.884  55.888  1.00  0.00    -0.023 A 
HETATM    5  C   UNL     1      29.714  44.948  56.355  1.00  0.00    -0.025 A 
HETATM    6  C   UNL     1      28.592  45.348  55.607  1.00  0.00     0.032 A 
HETATM    7  C   UNL     1      31.635  43.483  56.637  1.00  0.00     0.012 A 
HETATM    8  C   UNL     1      31.957  44.125  57.834  1.00  0.00     0.001 A 
HETATM    9  C   UNL     1      31.165  45.174  58.295  1.00  0.00     0.001 A 
HETATM   10  C   UNL     1      30.051  45.582  57.561  1.00  0.00     0.012 A 
ENDROOT
BRANCH   1  11
HETATM   11  C   UNL     1      27.056  45.194  53.674  1.00  0.00     0.254 C 
HETATM   12  N   UNL     1      26.155  44.238  53.272  1.00  0.00    -0.352 N 
HETATM   13  H   UNL     1      26.275  43.284  53.592  1.00  0.00     0.163 HD
HETATM   14  O   UNL     1      26.922  46.393  53.458  1.00  0.00    -0.268 OA
BRANCH  12  15
HETATM   15  C   UNL     1      24.920  44.565  52.599  1.00  0.00     0.165 C 
BRANCH  15  16
HETATM   16  C   UNL     1      25.172  44.603  51.135  1.00  0.00     0.009 A 
HETATM   17  C   UNL     1      25.489  43.548  50.296  1.00  0.00     0.034 A 
HETATM   18  C   UNL     1      25.685  42.104  50.563  1.00  0.00     0.070 C 
HETATM   19  N   UNL     1      25.619  44.085  49.048  1.00  0.00    -0.282 N 
HETATM   20  H   UNL     1      25.848  43.608  48.182  1.00  0.00     0.189 HD
HETATM   21  N   UNL     1      25.409  45.408  49.005  1.00  0.00    -0.179 NA
HETATM   22  C   UNL     1      25.138  45.736  50.273  1.00  0.00     0.060 A 
HETATM   23  C   UNL     1      24.852  47.148  50.630  1.00  0.00     0.073 C 
ENDBRANCH  15  16
ENDBRANCH  12  15
ENDBRANCH   1  11
BRANCH   2  24
HETATM   24  O   UNL     1      28.816  43.015  52.764  1.00  0.00    -0.289 OA
BRANCH  24  25
HETATM   25  C   UNL     1      28.815  41.606  52.988  1.00  0.00     0.505 C 
HETATM   26  F   UNL     1      27.671  41.275  53.634  1.00  0.00    -0.184 F 
HETATM   27  F   UNL     1      28.761  41.013  51.768  1.00  0.00    -0.184 F 
ENDBRANCH  24  25
ENDBRANCH   2  24
TORSDOF 5
ENDMDL
MODEL 4
REMARK VINA RESULT:      -9.0      1.053      1.905
REMARK  5 active torsions:
REMARK  status: ('A' for Active; 'I' for Inactive)
REMARK    1  A    between atoms: C_8  and  C_9 
REMARK    2  A    between atoms: C_9  and  N_10 
REMARK       I    between atoms: N_10  and  C_11 
REMARK    3  A    between atoms: C_11  and  C_12 
REMARK    4  A    between atoms: C_13  and  O_14 
REMARK    5  A    between atoms: O_14  and  C_15 
ROOT
HETATM    1  C   UNL     1      28.118  44.291  53.811  1.00  0.00     0.066 A 
HETATM    2  C   UNL     1      27.584  45.305  54.617  1.00  0.00     0.091 A 
HETATM    3  C   UNL     1      28.230  45.690  55.796  1.00  0.00     0.050 A 
HETATM    4  C   UNL     1      29.396  45.034  56.217  1.00  0.00    -0.023 A 
HETATM    5  C   UNL     1      29.923  43.984  55.429  1.00  0.00    -0.025 A 
HETATM    6  C   UNL     1      29.276  43.624  54.235  1.00  0.00     0.032 A 
HETATM    7  C   UNL     1      30.046  45.395  57.407  1.00  0.00     0.012 A 
HETATM    8  C   UNL     1      31.202  44.730  57.818  1.00  0.00     0.001 A 
HETATM    9  C   UNL     1      31.722  43.696  57.043  1.00  0.00     0.001 A 
HETATM   10  C   UNL     1      31.087  43.326  55.857  1.00  0.00     0.012 A 
ENDROOT
BRANCH   1  11
HETATM   11  C   UNL     1      27.490  43.842  52.536  1.00  0.00     0.254 C 
HETATM   12  N   UNL     1      27.312  44.804  51.572  1.00  0.00    -0.352 N 
HETATM   13  H   UNL     1      27.717  45.723  51.712  1.00  0.00     0.163 HD
HETATM   14  O   UNL     1      27.163  42.669  52.399  1.00  0.00    -0.268 OA
BRANCH  12  15
HETATM   15  C   UNL     1      26.767  44.509  50.267  1.00  0.00     0.165 C 
BRANCH  15  16
HETATM   16  C   UNL     1      25.552  45.340  50.062  1.00  0.00     0.009 A 
HETATM   17  C   UNL     1      24.228  44.935  50.079  1.00  0.00     0.034 A 
HETATM   18  C   UNL     1      23.608  43.605  50.284  1.00  0.00     0.070 C 
HETATM   19  N   UNL     1      23.487  46.058  49.844  1.00  0.00    -0.282 N 
HETATM   20  H   UNL     1      22.478  46.141  49.785  1.00  0.00     0.189 HD
HETATM   21  N   UNL     1      24.224  47.165  49.679  1.00  0.00    -0.179 NA
HETATM   22  C   UNL     1      25.485  46.740  49.807  1.00  0.00     0.060 A 
HETATM   23  C   UNL     1      26.610  47.700  49.676  1.00  0.00     0.073 C 
ENDBRANCH  15  16
ENDBRANCH  12  15
ENDBRANCH   1  11
BRANCH   2  24
HETATM   24  O   UNL     1      26.448  45.986  54.265  1.00  0.00    -0.289 OA
BRANCH  24  25
HETATM   25  C   UNL     1      26.722  47.384  54.195  1.00  0.00     0.505 C 
HETATM   26  F   UNL     1      27.122  47.681  52.935  1.00  0.00    -0.184 F 
HETATM   27  F   UNL     1      25.542  48.027  54.392  1.00  0.00    -0.184 F 
ENDBRANCH  24  25
ENDBRANCH   2  24
TORSDOF 5
ENDMDL
MODEL 5
REMARK VINA RESULT:      -9.0      2.428      3.268
REMARK  5 active torsions:
REMARK  status: ('A' for Active; 'I' for Inactive)
REMARK    1  A    between atoms: C_8  and  C_9 
REMARK    2  A    between atoms: C_9  and  N_10 
REMARK       I    between atoms: N_10  and  C_11 
REMARK    3  A    between atoms: C_11  and  C_12 
REMARK    4  A    between atoms: C_13  and  O_14 
REMARK    5  A    between atoms: O_14  and  C_15 
ROOT
HETATM    1  C   UNL     1      28.191  44.637  54.330  1.00  0.00     0.066 A 
HETATM    2  C   UNL     1      29.004  43.582  53.896  1.00  0.00     0.091 A 
HETATM    3  C   UNL     1      30.102  43.171  54.660  1.00  0.00     0.050 A 
HETATM    4  C   UNL     1      30.436  43.840  55.846  1.00  0.00    -0.023 A 
HETATM    5  C   UNL     1      29.643  44.930  56.274  1.00  0.00    -0.025 A 
HETATM    6  C   UNL     1      28.529  45.317  55.509  1.00  0.00     0.032 A 
HETATM    7  C   UNL     1      31.545  43.452  56.614  1.00  0.00     0.012 A 
HETATM    8  C   UNL     1      31.870  44.130  57.789  1.00  0.00     0.001 A 
HETATM    9  C   UNL     1      31.090  45.203  58.211  1.00  0.00     0.001 A 
HETATM   10  C   UNL     1      29.984  45.600  57.460  1.00  0.00     0.012 A 
ENDROOT
BRANCH   1  11
HETATM   11  C   UNL     1      26.998  45.116  53.575  1.00  0.00     0.254 C 
HETATM   12  N   UNL     1      26.088  44.158  53.200  1.00  0.00    -0.352 N 
HETATM   13  H   UNL     1      26.196  43.213  53.551  1.00  0.00     0.163 HD
HETATM   14  O   UNL     1      26.879  46.309  53.321  1.00  0.00    -0.268 OA
BRANCH  12  15
HETATM   15  C   UNL     1      24.859  44.477  52.512  1.00  0.00     0.165 C 
BRANCH  15  16
HETATM   16  C   UNL     1      25.090  44.355  51.049  1.00  0.00     0.009 A 
HETATM   17  C   UNL     1      25.017  45.350  50.088  1.00  0.00     0.034 A 
HETATM   18  C   UNL     1      24.690  46.791  50.187  1.00  0.00     0.070 C 
HETATM   19  N   UNL     1      25.314  44.748  48.899  1.00  0.00    -0.282 N 
HETATM   20  H   UNL     1      25.356  45.169  47.978  1.00  0.00     0.189 HD
HETATM   21  N   UNL     1      25.578  43.439  49.009  1.00  0.00    -0.179 NA
HETATM   22  C   UNL     1      25.443  43.187  50.315  1.00  0.00     0.060 A 
HETATM   23  C   UNL     1      25.654  41.811  50.832  1.00  0.00     0.073 C 
ENDBRANCH  15  16
ENDBRANCH  12  15
ENDBRANCH   1  11
BRANCH   2  24
HETATM   24  O   UNL     1      28.734  42.887  52.747  1.00  0.00    -0.289 OA
BRANCH  24  25
HETATM   25  C   UNL     1      28.831  41.484  52.993  1.00  0.00     0.505 C 
HETATM   26  F   UNL     1      27.720  41.088  53.661  1.00  0.00    -0.184 F 
HETATM   27  F   UNL     1      28.800  40.869  51.784  1.00  0.00    -0.184 F 
ENDBRANCH  24  25
ENDBRANCH   2  24
TORSDOF 5
ENDMDL
MODEL 6
REMARK VINA RESULT:      -8.9      2.732      3.480
REMARK  5 active torsions:
REMARK  status: ('A' for Active; 'I' for Inactive)
REMARK    1  A    between atoms: C_8  and  C_9 
REMARK    2  A    between atoms: C_9  and  N_10 
REMARK       I    between atoms: N_10  and  C_11 
REMARK    3  A    between atoms: C_11  and  C_12 
REMARK    4  A    between atoms: C_13  and  O_14 
REMARK    5  A    between atoms: O_14  and  C_15 
ROOT
HETATM    1  C   UNL     1      28.420  42.558  53.279  1.00  0.00     0.066 A 
HETATM    2  C   UNL     1      27.642  43.723  53.266  1.00  0.00     0.091 A 
HETATM    3  C   UNL     1      27.941  44.786  54.125  1.00  0.00     0.050 A 
HETATM    4  C   UNL     1      28.993  44.683  55.048  1.00  0.00    -0.023 A 
HETATM    5  C   UNL     1      29.761  43.497  55.094  1.00  0.00    -0.025 A 
HETATM    6  C   UNL     1      29.463  42.446  54.209  1.00  0.00     0.032 A 
HETATM    7  C   UNL     1      29.293  45.733  55.929  1.00  0.00     0.012 A 
HETATM    8  C   UNL     1      30.338  45.616  56.847  1.00  0.00     0.001 A 
HETATM    9  C   UNL     1      31.095  44.448  56.893  1.00  0.00     0.001 A 
HETATM   10  C   UNL     1      30.809  43.396  56.022  1.00  0.00     0.012 A 
ENDROOT
BRANCH   1  11
HETATM   11  C   UNL     1      28.168  41.395  52.382  1.00  0.00     0.254 C 
HETATM   12  N   UNL     1      26.917  41.318  51.818  1.00  0.00    -0.352 N 
HETATM   13  H   UNL     1      26.279  42.098  51.929  1.00  0.00     0.163 HD
HETATM   14  O   UNL     1      29.055  40.572  52.189  1.00  0.00    -0.268 OA
BRANCH  12  15
HETATM   15  C   UNL     1      26.544  40.280  50.887  1.00  0.00     0.165 C 
BRANCH  15  16
HETATM   16  C   UNL     1      26.787  40.771  49.505  1.00  0.00     0.009 A 
HETATM   17  C   UNL     1      26.030  41.668  48.772  1.00  0.00     0.034 A 
HETATM   18  C   UNL     1      24.780  42.395  49.096  1.00  0.00     0.070 C 
HETATM   19  N   UNL     1      26.660  41.800  47.569  1.00  0.00    -0.282 N 
HETATM   20  H   UNL     1      26.389  42.376  46.780  1.00  0.00     0.189 HD
HETATM   21  N   UNL     1      27.773  41.061  47.460  1.00  0.00    -0.179 NA
HETATM   22  C   UNL     1      27.860  40.427  48.634  1.00  0.00     0.060 A 
HETATM   23  C   UNL     1      28.983  39.491  48.891  1.00  0.00     0.073 C 
ENDBRANCH  15  16
ENDBRANCH  12  15
ENDBRANCH   1  11
BRANCH   2  24
HETATM   24  O   UNL     1      26.601  43.888  52.391  1.00  0.00    -0.289 OA
BRANCH  24  25
HETATM   25  C   UNL     1      26.944  44.862  51.406  1.00  0.00     0.505 C 
HETATM   26  F   UNL     1      27.528  44.228  50.360  1.00  0.00    -0.184 F 
HETATM   27  F   UNL     1      25.778  45.384  50.946  1.00  0.00    -0.184 F 
ENDBRANCH  24  25
ENDBRANCH   2  24
TORSDOF 5
ENDMDL
MODEL 7
REMARK VINA RESULT:      -8.7      2.824      3.749
REMARK  5 active torsions:
REMARK  status: ('A' for Active; 'I' for Inactive)
REMARK    1  A    between atoms: C_8  and  C_9 
REMARK    2  A    between atoms: C_9  and  N_10 
REMARK       I    between atoms: N_10  and  C_11 
REMARK    3  A    between atoms: C_11  and  C_12 
REMARK    4  A    between atoms: C_13  and  O_14 
REMARK    5  A    between atoms: O_14  and  C_15 
ROOT
HETATM    1  C   UNL     1      27.784  44.109  53.367  1.00  0.00     0.066 A 
HETATM    2  C   UNL     1      28.804  43.158  53.231  1.00  0.00     0.091 A 
HETATM    3  C   UNL     1      29.847  43.097  54.162  1.00  0.00     0.050 A 
HETATM    4  C   UNL     1      29.914  44.018  55.219  1.00  0.00    -0.023 A 
HETATM    5  C   UNL     1      28.908  45.004  55.344  1.00  0.00    -0.025 A 
HETATM    6  C   UNL     1      27.854  45.038  54.414  1.00  0.00     0.032 A 
HETATM    7  C   UNL     1      30.963  43.982  56.150  1.00  0.00     0.012 A 
HETATM    8  C   UNL     1      31.021  44.908  57.193  1.00  0.00     0.001 A 
HETATM    9  C   UNL     1      30.031  45.879  57.317  1.00  0.00     0.001 A 
HETATM   10  C   UNL     1      28.981  45.927  56.399  1.00  0.00     0.012 A 
ENDROOT
BRANCH   1  11
HETATM   11  C   UNL     1      26.637  44.219  52.421  1.00  0.00     0.254 C 
HETATM   12  N   UNL     1      25.825  43.116  52.315  1.00  0.00    -0.352 N 
HETATM   13  H   UNL     1      25.958  42.343  52.958  1.00  0.00     0.163 HD
HETATM   14  O   UNL     1      26.467  45.255  51.790  1.00  0.00    -0.268 OA
BRANCH  12  15
HETATM   15  C   UNL     1      24.646  43.093  51.482  1.00  0.00     0.165 C 
BRANCH  15  16
HETATM   16  C   UNL     1      25.037  42.647  50.119  1.00  0.00     0.009 A 
HETATM   17  C   UNL     1      24.893  43.330  48.923  1.00  0.00     0.034 A 
HETATM   18  C   UNL     1      24.318  44.659  48.613  1.00  0.00     0.070 C 
HETATM   19  N   UNL     1      25.402  42.511  47.957  1.00  0.00    -0.282 N 
HETATM   20  H   UNL     1      25.463  42.682  46.960  1.00  0.00     0.189 HD
HETATM   21  N   UNL     1      25.872  41.348  48.429  1.00  0.00    -0.179 NA
HETATM   22  C   UNL     1      25.652  41.417  49.746  1.00  0.00     0.060 A 
HETATM   23  C   UNL     1      26.041  40.286  50.626  1.00  0.00     0.073 C 
ENDBRANCH  15  16
ENDBRANCH  12  15
ENDBRANCH   1  11
BRANCH   2  24
HETATM   24  O   UNL     1      28.800  42.231  52.223  1.00  0.00    -0.289 OA
BRANCH  24  25
HETATM   25  C   UNL     1      28.925  40.919  52.769  1.00  0.00     0.505 C 
HETATM   26  F   UNL     1      27.784  40.621  53.438  1.00  0.00    -0.184 F 
HETATM   27  F   UNL     1      28.997  40.061  51.719  1.00  0.00    -0.184 F 
ENDBRANCH  24  25
ENDBRANCH   2  24
TORSDOF 5
ENDMDL
MODEL 8
REMARK VINA RESULT:      -8.6      2.084      3.043
REMARK  5 active torsions:
REMARK  status: ('A' for Active; 'I' for Inactive)
REMARK    1  A    between atoms: C_8  and  C_9 
REMARK    2  A    between atoms: C_9  and  N_10 
REMARK       I    between atoms: N_10  and  C_11 
REMARK    3  A    between atoms: C_11  and  C_12 
REMARK    4  A    between atoms: C_13  and  O_14 
REMARK    5  A    between atoms: O_14  and  C_15 
ROOT
HETATM    1  C   UNL     1      28.363  44.355  53.823  1.00  0.00     0.066 A 
HETATM    2  C   UNL     1      27.908  45.468  54.543  1.00  0.00     0.091 A 
HETATM    3  C   UNL     1      28.540  45.851  55.731  1.00  0.00     0.050 A 
HETATM    4  C   UNL     1      29.606  45.100  56.246  1.00  0.00    -0.023 A 
HETATM    5  C   UNL     1      30.049  43.954  55.545  1.00  0.00    -0.025 A 
HETATM    6  C   UNL     1      29.420  43.594  54.341  1.00  0.00     0.032 A 
HETATM    7  C   UNL     1      30.238  45.461  57.446  1.00  0.00     0.012 A 
HETATM    8  C   UNL     1      31.294  44.701  57.951  1.00  0.00     0.001 A 
HETATM    9  C   UNL     1      31.731  43.573  57.262  1.00  0.00     0.001 A 
HETATM   10  C   UNL     1      31.114  43.202  56.067  1.00  0.00     0.012 A 
ENDROOT
BRANCH   1  11
HETATM   11  C   UNL     1      27.747  43.900  52.544  1.00  0.00     0.254 C 
HETATM   12  N   UNL     1      27.035  42.726  52.592  1.00  0.00    -0.352 N 
HETATM   13  H   UNL     1      26.854  42.298  53.493  1.00  0.00     0.163 HD
HETATM   14  O   UNL     1      27.899  44.565  51.526  1.00  0.00    -0.268 OA
BRANCH  12  15
HETATM   15  C   UNL     1      26.339  42.188  51.447  1.00  0.00     0.165 C 
BRANCH  15  16
HETATM   16  C   UNL     1      27.283  41.339  50.674  1.00  0.00     0.009 A 
HETATM   17  C   UNL     1      28.355  40.603  51.150  1.00  0.00     0.034 A 
HETATM   18  C   UNL     1      28.901  40.432  52.516  1.00  0.00     0.070 C 
HETATM   19  N   UNL     1      28.907  39.994  50.061  1.00  0.00    -0.282 N 
HETATM   20  H   UNL     1      29.711  39.376  50.029  1.00  0.00     0.189 HD
HETATM   21  N   UNL     1      28.278  40.272  48.910  1.00  0.00    -0.179 NA
HETATM   22  C   UNL     1      27.287  41.094  49.271  1.00  0.00     0.060 A 
HETATM   23  C   UNL     1      26.358  41.633  48.246  1.00  0.00     0.073 C 
ENDBRANCH  15  16
ENDBRANCH  12  15
ENDBRANCH   1  11
BRANCH   2  24
HETATM   24  O   UNL     1      26.871  46.244  54.096  1.00  0.00    -0.289 OA
BRANCH  24  25
HETATM   25  C   UNL     1      26.876  47.499  54.776  1.00  0.00     0.505 C 
HETATM   26  F   UNL     1      27.884  48.254  54.275  1.00  0.00    -0.184 F 
HETATM   27  F   UNL     1      25.718  48.127  54.451  1.00  0.00    -0.184 F 
ENDBRANCH  24  25
ENDBRANCH   2  24
TORSDOF 5
ENDMDL
MODEL 9
REMARK VINA RESULT:      -8.4      1.741      2.344
REMARK  5 active torsions:
REMARK  status: ('A' for Active; 'I' for Inactive)
REMARK    1  A    between atoms: C_8  and  C_9 
REMARK    2  A    between atoms: C_9  and  N_10 
REMARK       I    between atoms: N_10  and  C_11 
REMARK    3  A    between atoms: C_11  and  C_12 
REMARK    4  A    between atoms: C_13  and  O_14 
REMARK    5  A    between atoms: O_14  and  C_15 
ROOT
HETATM    1  C   UNL     1      26.725  45.415  53.977  1.00  0.00     0.066 A 
HETATM    2  C   UNL     1      26.936  46.473  54.871  1.00  0.00     0.091 A 
HETATM    3  C   UNL     1      28.078  46.505  55.677  1.00  0.00     0.050 A 
HETATM    4  C   UNL     1      29.007  45.455  55.640  1.00  0.00    -0.023 A 
HETATM    5  C   UNL     1      28.785  44.364  54.767  1.00  0.00    -0.025 A 
HETATM    6  C   UNL     1      27.644  44.357  53.946  1.00  0.00     0.032 A 
HETATM    7  C   UNL     1      30.149  45.463  56.456  1.00  0.00     0.012 A 
HETATM    8  C   UNL     1      31.062  44.408  56.414  1.00  0.00     0.001 A 
HETATM    9  C   UNL     1      30.845  43.334  55.555  1.00  0.00     0.001 A 
HETATM   10  C   UNL     1      29.714  43.312  54.736  1.00  0.00     0.012 A 
ENDROOT
BRANCH   1  11
HETATM   11  C   UNL     1      25.539  45.325  53.078  1.00  0.00     0.254 C 
HETATM   12  N   UNL     1      25.534  46.162  51.989  1.00  0.00    -0.352 N 
HETATM   13  H   UNL     1      26.368  46.698  51.776  1.00  0.00     0.163 HD
HETATM   14  O   UNL     1      24.638  44.537  53.338  1.00  0.00    -0.268 OA
BRANCH  12  15
HETATM   15  C   UNL     1      24.481  46.151  51.002  1.00  0.00     0.165 C 
BRANCH  15  16
HETATM   16  C   UNL     1      24.717  45.020  50.067  1.00  0.00     0.009 A 
HETATM   17  C   UNL     1      25.925  44.572  49.559  1.00  0.00     0.034 A 
HETATM   18  C   UNL     1      27.313  45.050  49.755  1.00  0.00     0.070 C 
HETATM   19  N   UNL     1      25.624  43.512  48.752  1.00  0.00    -0.282 N 
HETATM   20  H   UNL     1      26.260  42.936  48.212  1.00  0.00     0.189 HD
HETATM   21  N   UNL     1      24.315  43.231  48.697  1.00  0.00    -0.179 NA
HETATM   22  C   UNL     1      23.751  44.146  49.493  1.00  0.00     0.060 A 
HETATM   23  C   UNL     1      22.278  44.160  49.682  1.00  0.00     0.073 C 
ENDBRANCH  15  16
ENDBRANCH  12  15
ENDBRANCH   1  11
BRANCH   2  24
HETATM   24  O   UNL     1      26.068  47.530  54.958  1.00  0.00    -0.289 OA
BRANCH  24  25
HETATM   25  C   UNL     1      26.523  48.452  55.947  1.00  0.00     0.505 C 
HETATM   26  F   UNL     1      26.915  49.590  55.325  1.00  0.00    -0.184 F 
HETATM   27  F   UNL     1      25.447  48.774  56.710  1.00  0.00    -0.184 F 
ENDBRANCH  24  25
ENDBRANCH   2  24
TORSDOF 5
ENDMDL
MODEL 10
REMARK VINA RESULT:      -8.0      3.312      4.777
REMARK  5 active torsions:
REMARK  status: ('A' for Active; 'I' for Inactive)
REMARK    1  A    between atoms: C_8  and  C_9 
REMARK    2  A    between atoms: C_9  and  N_10 
REMARK       I    between atoms: N_10  and  C_11 
REMARK    3  A    between atoms: C_11  and  C_12 
REMARK    4  A    between atoms: C_13  and  O_14 
REMARK    5  A    between atoms: O_14  and  C_15 
ROOT
HETATM    1  C   UNL     1      26.567  44.749  52.575  1.00  0.00     0.066 A 
HETATM    2  C   UNL     1      27.372  43.680  52.161  1.00  0.00     0.091 A 
HETATM    3  C   UNL     1      28.510  43.323  52.891  1.00  0.00     0.050 A 
HETATM    4  C   UNL     1      28.892  44.060  54.023  1.00  0.00    -0.023 A 
HETATM    5  C   UNL     1      28.106  45.163  54.428  1.00  0.00    -0.025 A 
HETATM    6  C   UNL     1      26.952  45.496  53.698  1.00  0.00     0.032 A 
HETATM    7  C   UNL     1      30.041  43.726  54.755  1.00  0.00     0.012 A 
HETATM    8  C   UNL     1      30.413  44.471  55.875  1.00  0.00     0.001 A 
HETATM    9  C   UNL     1      29.640  45.557  56.276  1.00  0.00     0.001 A 
HETATM   10  C   UNL     1      28.494  45.901  55.558  1.00  0.00     0.012 A 
ENDROOT
BRANCH   1  11
HETATM   11  C   UNL     1      25.333  45.174  51.854  1.00  0.00     0.254 C 
HETATM   12  N   UNL     1      25.475  46.203  50.955  1.00  0.00    -0.352 N 
HETATM   13  H   UNL     1      26.406  46.536  50.732  1.00  0.00     0.163 HD
HETATM   14  O   UNL     1      24.270  44.611  52.086  1.00  0.00    -0.268 OA
BRANCH  12  15
HETATM   15  C   UNL     1      24.383  46.687  50.145  1.00  0.00     0.165 C 
BRANCH  15  16
HETATM   16  C   UNL     1      24.788  47.973  49.519  1.00  0.00     0.009 A 
HETATM   17  C   UNL     1      26.068  48.417  49.236  1.00  0.00     0.034 A 
HETATM   18  C   UNL     1      27.396  47.800  49.461  1.00  0.00     0.070 C 
HETATM   19  N   UNL     1      25.922  49.648  48.664  1.00  0.00    -0.282 N 
HETATM   20  H   UNL     1      26.647  50.273  48.329  1.00  0.00     0.189 HD
HETATM   21  N   UNL     1      24.646  50.041  48.549  1.00  0.00    -0.179 NA
HETATM   22  C   UNL     1      23.944  49.028  49.069  1.00  0.00     0.060 A 
HETATM   23  C   UNL     1      22.463  49.101  49.125  1.00  0.00     0.073 C 
ENDBRANCH  15  16
ENDBRANCH  12  15
ENDBRANCH   1  11
BRANCH   2  24
HETATM   24  O   UNL     1      27.058  42.920  51.065  1.00  0.00    -0.289 OA
BRANCH  24  25
HETATM   25  C   UNL     1      27.249  41.538  51.361  1.00  0.00     0.505 C 
HETATM   26  F   UNL     1      26.094  40.879  51.101  1.00  0.00    -0.184 F 
HETATM   27  F   UNL     1      28.172  41.071  50.483  1.00  0.00    -0.184 F 
ENDBRANCH  24  25
ENDBRANCH   2  24
TORSDOF 5
ENDMDL
