MODEL 1
REMARK VINA RESULT:      -9.0      0.000      0.000
REMARK  5 active torsions:
REMARK  status: ('A' for Active; 'I' for Inactive)
REMARK    1  A    between atoms: C_2  and  N_3 
REMARK       I    between atoms: N_3  and  C_4 
REMARK    2  A    between atoms: C_4  and  C_5 
REMARK    3  A    between atoms: C_13  and  C_14 
REMARK    4  A    between atoms: C_15  and  O_16 
REMARK    5  A    between atoms: C_19  and  O_20 
ROOT
HETATM    1  C   UNL     1      27.725  41.393  50.947  1.00  0.00     0.046 A 
HETATM    2  C   UNL     1      26.433  41.908  50.699  1.00  0.00     0.008 A 
HETATM    3  C   UNL     1      26.015  42.959  51.539  1.00  0.00     0.068 A 
HETATM    4  C   UNL     1      24.757  43.513  51.344  1.00  0.00     0.032 A 
HETATM    5  C   UNL     1      23.896  43.064  50.342  1.00  0.00     0.002 A 
HETATM    6  C   UNL     1      24.297  42.034  49.504  1.00  0.00     0.001 A 
HETATM    7  C   UNL     1      25.556  41.461  49.678  1.00  0.00     0.015 A 
HETATM    8  N   UNL     1      26.781  43.462  52.522  1.00  0.00    -0.247 NA
HETATM    9  C   UNL     1      28.001  42.925  52.756  1.00  0.00     0.071 A 
HETATM   10  C   UNL     1      28.510  41.895  51.987  1.00  0.00     0.050 A 
ENDROOT
BRANCH   9  11
HETATM   11  C   UNL     1      28.775  43.526  53.848  1.00  0.00     0.026 A 
HETATM   12  C   UNL     1      28.484  44.799  54.366  1.00  0.00     0.083 A 
HETATM   13  C   UNL     1      29.205  45.340  55.441  1.00  0.00     0.074 A 
HETATM   14  C   UNL     1      30.265  44.628  55.997  1.00  0.00     0.070 A 
HETATM   15  C   UNL     1      30.584  43.370  55.480  1.00  0.00     0.038 A 
HETATM   16  C   UNL     1      29.849  42.825  54.422  1.00  0.00     0.019 A 
BRANCH  12  17
HETATM   17  O   UNL     1      27.407  45.506  53.885  1.00  0.00    -0.355 OA
HETATM   18  C   UNL     1      27.294  46.757  54.563  1.00  0.00     0.210 C 
ENDBRANCH  12  17
BRANCH  14  19
HETATM   19  O   UNL     1      31.052  45.034  57.038  1.00  0.00    -0.356 OA
HETATM   20  C   UNL     1      30.427  45.813  58.050  1.00  0.00     0.210 C 
ENDBRANCH  14  19
ENDBRANCH   9  11
BRANCH   1  21
HETATM   21  C   UNL     1      28.300  40.296  50.127  1.00  0.00     0.253 C 
HETATM   22  N   UNL     1      28.578  39.141  50.831  1.00  0.00    -0.349 N 
HETATM   23  H   UNL     1      28.530  39.192  51.840  1.00  0.00     0.163 HD
HETATM   24  O   UNL     1      28.497  40.455  48.930  1.00  0.00    -0.268 OA
BRANCH  22  25
HETATM   25  C   UNL     1      29.200  37.938  50.255  1.00  0.00     0.022 C 
HETATM   26  C   UNL     1      29.775  37.041  51.362  1.00  0.00     0.037 C 
HETATM   27  C   UNL     1      30.301  38.309  49.248  1.00  0.00     0.037 C 
HETATM   28  C   UNL     1      28.109  37.154  49.504  1.00  0.00     0.037 C 
ENDBRANCH  22  25
ENDBRANCH   1  21
TORSDOF 5
ENDMDL
MODEL 2
REMARK VINA RESULT:      -8.7      4.037      7.285
REMARK  5 active torsions:
REMARK  status: ('A' for Active; 'I' for Inactive)
REMARK    1  A    between atoms: C_2  and  N_3 
REMARK       I    between atoms: N_3  and  C_4 
REMARK    2  A    between atoms: C_4  and  C_5 
REMARK    3  A    between atoms: C_13  and  C_14 
REMARK    4  A    between atoms: C_15  and  O_16 
REMARK    5  A    between atoms: C_19  and  O_20 
ROOT
HETATM    1  C   UNL     1      24.353  46.974  50.260  1.00  0.00     0.046 A 
HETATM    2  C   UNL     1      23.821  45.718  49.891  1.00  0.00     0.008 A 
HETATM    3  C   UNL     1      24.204  44.624  50.690  1.00  0.00     0.068 A 
HETATM    4  C   UNL     1      23.710  43.364  50.383  1.00  0.00     0.032 A 
HETATM    5  C   UNL     1      22.845  43.147  49.309  1.00  0.00     0.002 A 
HETATM    6  C   UNL     1      22.455  44.217  48.517  1.00  0.00     0.001 A 
HETATM    7  C   UNL     1      22.936  45.493  48.805  1.00  0.00     0.015 A 
HETATM    8  N   UNL     1      25.023  44.740  51.749  1.00  0.00    -0.247 NA
HETATM    9  C   UNL     1      25.544  45.951  52.058  1.00  0.00     0.071 A 
HETATM   10  C   UNL     1      25.228  47.091  51.341  1.00  0.00     0.050 A 
ENDROOT
BRANCH   9  11
HETATM   11  C   UNL     1      26.432  45.996  53.225  1.00  0.00     0.026 A 
HETATM   12  C   UNL     1      27.428  45.030  53.451  1.00  0.00     0.083 A 
HETATM   13  C   UNL     1      28.298  45.113  54.548  1.00  0.00     0.074 A 
HETATM   14  C   UNL     1      28.164  46.151  55.467  1.00  0.00     0.070 A 
HETATM   15  C   UNL     1      27.166  47.107  55.271  1.00  0.00     0.038 A 
HETATM   16  C   UNL     1      26.313  47.034  54.164  1.00  0.00     0.019 A 
BRANCH  12  17
HETATM   17  O   UNL     1      27.631  44.026  52.534  1.00  0.00    -0.355 OA
HETATM   18  C   UNL     1      28.975  43.551  52.611  1.00  0.00     0.210 C 
ENDBRANCH  12  17
BRANCH  14  19
HETATM   19  O   UNL     1      28.936  46.350  56.577  1.00  0.00    -0.356 OA
HETATM   20  C   UNL     1      30.182  45.666  56.624  1.00  0.00     0.210 C 
ENDBRANCH  14  19
ENDBRANCH   9  11
BRANCH   1  21
HETATM   21  C   UNL     1      24.020  48.215  49.515  1.00  0.00     0.253 C 
HETATM   22  N   UNL     1      22.753  48.707  49.760  1.00  0.00    -0.349 N 
HETATM   23  H   UNL     1      22.118  48.112  50.275  1.00  0.00     0.163 HD
HETATM   24  O   UNL     1      24.835  48.718  48.754  1.00  0.00    -0.268 OA
BRANCH  22  25
HETATM   25  C   UNL     1      22.173  49.890  49.104  1.00  0.00     0.022 C 
HETATM   26  C   UNL     1      21.763  49.563  47.660  1.00  0.00     0.037 C 
HETATM   27  C   UNL     1      23.154  51.073  49.122  1.00  0.00     0.037 C 
HETATM   28  C   UNL     1      20.915  50.298  49.891  1.00  0.00     0.037 C 
ENDBRANCH  22  25
ENDBRANCH   1  21
TORSDOF 5
ENDMDL
MODEL 3
REMARK VINA RESULT:      -8.4      4.238      6.987
REMARK  5 active torsions:
REMARK  status: ('A' for Active; 'I' for Inactive)
REMARK    1  A    between atoms: C_2  and  N_3 
REMARK       I    between atoms: N_3  and  C_4 
REMARK    2  A    between atoms: C_4  and  C_5 
REMARK    3  A    between atoms: C_13  and  C_14 
REMARK    4  A    between atoms: C_15  and  O_16 
REMARK    5  A    between atoms: C_19  and  O_20 
ROOT
HETATM    1  C   UNL     1      26.720  44.430  51.278  1.00  0.00     0.046 A 
HETATM    2  C   UNL     1      27.015  44.846  52.595  1.00  0.00     0.008 A 
HETATM    3  C   UNL     1      26.645  46.163  52.927  1.00  0.00     0.068 A 
HETATM    4  C   UNL     1      26.903  46.630  54.209  1.00  0.00     0.032 A 
HETATM    5  C   UNL     1      27.516  45.835  55.178  1.00  0.00     0.002 A 
HETATM    6  C   UNL     1      27.881  44.534  54.867  1.00  0.00     0.001 A 
HETATM    7  C   UNL     1      27.631  44.040  53.587  1.00  0.00     0.015 A 
HETATM    8  N   UNL     1      26.041  46.995  52.062  1.00  0.00    -0.247 NA
HETATM    9  C   UNL     1      25.801  46.580  50.796  1.00  0.00     0.071 A 
HETATM   10  C   UNL     1      26.120  45.304  50.369  1.00  0.00     0.050 A 
ENDROOT
BRANCH   9  11
HETATM   11  C   UNL     1      25.143  47.547  49.910  1.00  0.00     0.026 A 
HETATM   12  C   UNL     1      25.825  48.639  49.348  1.00  0.00     0.083 A 
HETATM   13  C   UNL     1      25.193  49.529  48.467  1.00  0.00     0.074 A 
HETATM   14  C   UNL     1      23.844  49.363  48.160  1.00  0.00     0.070 A 
HETATM   15  C   UNL     1      23.144  48.297  48.728  1.00  0.00     0.038 A 
HETATM   16  C   UNL     1      23.783  47.399  49.589  1.00  0.00     0.019 A 
BRANCH  12  17
HETATM   17  O   UNL     1      27.171  48.799  49.578  1.00  0.00    -0.355 OA
HETATM   18  C   UNL     1      27.678  49.890  48.808  1.00  0.00     0.210 C 
ENDBRANCH  12  17
BRANCH  14  19
HETATM   19  O   UNL     1      23.104  50.154  47.325  1.00  0.00    -0.356 OA
HETATM   20  C   UNL     1      21.816  50.543  47.784  1.00  0.00     0.210 C 
ENDBRANCH  14  19
ENDBRANCH   9  11
BRANCH   1  21
HETATM   21  C   UNL     1      27.040  43.062  50.798  1.00  0.00     0.253 C 
HETATM   22  N   UNL     1      26.122  42.537  49.910  1.00  0.00    -0.349 N 
HETATM   23  H   UNL     1      25.251  43.038  49.796  1.00  0.00     0.163 HD
HETATM   24  O   UNL     1      28.046  42.487  51.191  1.00  0.00    -0.268 OA
BRANCH  22  25
HETATM   25  C   UNL     1      26.190  41.183  49.338  1.00  0.00     0.022 C 
HETATM   26  C   UNL     1      26.246  40.125  50.452  1.00  0.00     0.037 C 
HETATM   27  C   UNL     1      27.401  41.034  48.404  1.00  0.00     0.037 C 
HETATM   28  C   UNL     1      24.914  40.955  48.508  1.00  0.00     0.037 C 
ENDBRANCH  22  25
ENDBRANCH   1  21
TORSDOF 5
ENDMDL
MODEL 4
REMARK VINA RESULT:      -8.3      2.164      3.007
REMARK  5 active torsions:
REMARK  status: ('A' for Active; 'I' for Inactive)
REMARK    1  A    between atoms: C_2  and  N_3 
REMARK       I    between atoms: N_3  and  C_4 
REMARK    2  A    between atoms: C_4  and  C_5 
REMARK    3  A    between atoms: C_13  and  C_14 
REMARK    4  A    between atoms: C_15  and  O_16 
REMARK    5  A    between atoms: C_19  and  O_20 
ROOT
HETATM    1  C   UNL     1      26.257  43.327  50.671  1.00  0.00     0.046 A 
HETATM    2  C   UNL     1      25.602  44.568  50.501  1.00  0.00     0.008 A 
HETATM    3  C   UNL     1      25.992  45.599  51.377  1.00  0.00     0.068 A 
HETATM    4  C   UNL     1      25.391  46.844  51.257  1.00  0.00     0.032 A 
HETATM    5  C   UNL     1      24.412  47.106  50.296  1.00  0.00     0.002 A 
HETATM    6  C   UNL     1      24.023  46.101  49.423  1.00  0.00     0.001 A 
HETATM    7  C   UNL     1      24.613  44.842  49.521  1.00  0.00     0.015 A 
HETATM    8  N   UNL     1      26.932  45.441  52.324  1.00  0.00    -0.247 NA
HETATM    9  C   UNL     1      27.518  44.231  52.485  1.00  0.00     0.071 A 
HETATM   10  C   UNL     1      27.211  43.153  51.675  1.00  0.00     0.050 A 
ENDROOT
BRANCH   9  11
HETATM   11  C   UNL     1      28.530  44.136  53.543  1.00  0.00     0.026 A 
HETATM   12  C   UNL     1      28.503  44.952  54.687  1.00  0.00     0.083 A 
HETATM   13  C   UNL     1      29.453  44.817  55.710  1.00  0.00     0.074 A 
HETATM   14  C   UNL     1      30.479  43.884  55.589  1.00  0.00     0.070 A 
HETATM   15  C   UNL     1      30.536  43.080  54.449  1.00  0.00     0.038 A 
HETATM   16  C   UNL     1      29.574  43.202  53.440  1.00  0.00     0.019 A 
BRANCH  12  17
HETATM   17  O   UNL     1      27.471  45.842  54.870  1.00  0.00    -0.355 OA
HETATM   18  C   UNL     1      27.976  47.094  55.335  1.00  0.00     0.210 C 
ENDBRANCH  12  17
BRANCH  14  19
HETATM   19  O   UNL     1      31.469  43.651  56.502  1.00  0.00    -0.356 OA
HETATM   20  C   UNL     1      31.314  44.246  57.784  1.00  0.00     0.210 C 
ENDBRANCH  14  19
ENDBRANCH   9  11
BRANCH   1  21
HETATM   21  C   UNL     1      25.955  42.158  49.806  1.00  0.00     0.253 C 
HETATM   22  N   UNL     1      26.919  41.885  48.856  1.00  0.00    -0.349 N 
HETATM   23  H   UNL     1      27.642  42.580  48.718  1.00  0.00     0.163 HD
HETATM   24  O   UNL     1      24.921  41.524  49.961  1.00  0.00    -0.268 OA
BRANCH  22  25
HETATM   25  C   UNL     1      26.824  40.815  47.850  1.00  0.00     0.022 C 
HETATM   26  C   UNL     1      25.547  40.972  47.009  1.00  0.00     0.037 C 
HETATM   27  C   UNL     1      26.857  39.427  48.510  1.00  0.00     0.037 C 
HETATM   28  C   UNL     1      28.043  40.932  46.918  1.00  0.00     0.037 C 
ENDBRANCH  22  25
ENDBRANCH   1  21
TORSDOF 5
ENDMDL
MODEL 5
REMARK VINA RESULT:      -8.3      6.178     10.099
REMARK  5 active torsions:
REMARK  status: ('A' for Active; 'I' for Inactive)
REMARK    1  A    between atoms: C_2  and  N_3 
REMARK       I    between atoms: N_3  and  C_4 
REMARK    2  A    between atoms: C_4  and  C_5 
REMARK    3  A    between atoms: C_13  and  C_14 
REMARK    4  A    between atoms: C_15  and  O_16 
REMARK    5  A    between atoms: C_19  and  O_20 
ROOT
HETATM    1  C   UNL     1      24.678  47.019  49.910  1.00  0.00     0.046 A 
HETATM    2  C   UNL     1      25.547  48.027  49.437  1.00  0.00     0.008 A 
HETATM    3  C   UNL     1      24.962  49.017  48.624  1.00  0.00     0.068 A 
HETATM    4  C   UNL     1      25.761  50.040  48.132  1.00  0.00     0.032 A 
HETATM    5  C   UNL     1      27.126  50.118  48.419  1.00  0.00     0.002 A 
HETATM    6  C   UNL     1      27.713  49.153  49.222  1.00  0.00     0.001 A 
HETATM    7  C   UNL     1      26.932  48.116  49.731  1.00  0.00     0.015 A 
HETATM    8  N   UNL     1      23.657  49.028  48.305  1.00  0.00    -0.247 NA
HETATM    9  C   UNL     1      22.856  48.030  48.746  1.00  0.00     0.071 A 
HETATM   10  C   UNL     1      23.328  47.012  49.555  1.00  0.00     0.050 A 
ENDROOT
BRANCH   9  11
HETATM   11  C   UNL     1      21.444  48.109  48.353  1.00  0.00     0.026 A 
HETATM   12  C   UNL     1      20.951  47.497  47.188  1.00  0.00     0.083 A 
HETATM   13  C   UNL     1      19.591  47.545  46.850  1.00  0.00     0.074 A 
HETATM   14  C   UNL     1      18.697  48.244  47.658  1.00  0.00     0.070 A 
HETATM   15  C   UNL     1      19.173  48.878  48.807  1.00  0.00     0.038 A 
HETATM   16  C   UNL     1      20.526  48.810  49.153  1.00  0.00     0.019 A 
BRANCH  12  17
HETATM   17  O   UNL     1      21.791  46.747  46.399  1.00  0.00    -0.355 OA
HETATM   18  C   UNL     1      21.258  45.434  46.220  1.00  0.00     0.210 C 
ENDBRANCH  12  17
BRANCH  14  19
HETATM   19  O   UNL     1      17.353  48.376  47.447  1.00  0.00    -0.356 OA
HETATM   20  C   UNL     1      16.508  47.408  48.057  1.00  0.00     0.210 C 
ENDBRANCH  14  19
ENDBRANCH   9  11
BRANCH   1  21
HETATM   21  C   UNL     1      25.156  45.922  50.790  1.00  0.00     0.253 C 
HETATM   22  N   UNL     1      25.648  46.340  52.010  1.00  0.00    -0.349 N 
HETATM   23  H   UNL     1      25.795  47.333  52.134  1.00  0.00     0.163 HD
HETATM   24  O   UNL     1      25.103  44.759  50.414  1.00  0.00    -0.268 OA
BRANCH  22  25
HETATM   25  C   UNL     1      26.228  45.450  53.029  1.00  0.00     0.022 C 
HETATM   26  C   UNL     1      27.330  44.571  52.418  1.00  0.00     0.037 C 
HETATM   27  C   UNL     1      25.147  44.571  53.679  1.00  0.00     0.037 C 
HETATM   28  C   UNL     1      26.853  46.331  54.126  1.00  0.00     0.037 C 
ENDBRANCH  22  25
ENDBRANCH   1  21
TORSDOF 5
ENDMDL
MODEL 6
REMARK VINA RESULT:      -8.3      3.315      5.815
REMARK  5 active torsions:
REMARK  status: ('A' for Active; 'I' for Inactive)
REMARK    1  A    between atoms: C_2  and  N_3 
REMARK       I    between atoms: N_3  and  C_4 
REMARK    2  A    between atoms: C_4  and  C_5 
REMARK    3  A    between atoms: C_13  and  C_14 
REMARK    4  A    between atoms: C_15  and  O_16 
REMARK    5  A    between atoms: C_19  and  O_20 
ROOT
HETATM    1  C   UNL     1      27.250  42.419  49.931  1.00  0.00     0.046 A 
HETATM    2  C   UNL     1      27.700  42.263  51.261  1.00  0.00     0.008 A 
HETATM    3  C   UNL     1      27.495  43.364  52.116  1.00  0.00     0.068 A 
HETATM    4  C   UNL     1      27.910  43.272  53.438  1.00  0.00     0.032 A 
HETATM    5  C   UNL     1      28.521  42.124  53.946  1.00  0.00     0.002 A 
HETATM    6  C   UNL     1      28.723  41.031  53.116  1.00  0.00     0.001 A 
HETATM    7  C   UNL     1      28.315  41.098  51.785  1.00  0.00     0.015 A 
HETATM    8  N   UNL     1      26.906  44.503  51.717  1.00  0.00    -0.247 NA
HETATM    9  C   UNL     1      26.516  44.635  50.428  1.00  0.00     0.071 A 
HETATM   10  C   UNL     1      26.666  43.614  49.508  1.00  0.00     0.050 A 
ENDROOT
BRANCH   9  11
HETATM   11  C   UNL     1      25.885  45.910  50.069  1.00  0.00     0.026 A 
HETATM   12  C   UNL     1      24.492  46.056  49.957  1.00  0.00     0.083 A 
HETATM   13  C   UNL     1      23.903  47.293  49.657  1.00  0.00     0.074 A 
HETATM   14  C   UNL     1      24.704  48.408  49.424  1.00  0.00     0.070 A 
HETATM   15  C   UNL     1      26.092  48.277  49.507  1.00  0.00     0.038 A 
HETATM   16  C   UNL     1      26.675  47.047  49.828  1.00  0.00     0.019 A 
BRANCH  12  17
HETATM   17  O   UNL     1      23.666  44.994  50.241  1.00  0.00    -0.355 OA
HETATM   18  C   UNL     1      22.850  44.687  49.110  1.00  0.00     0.210 C 
ENDBRANCH  12  17
BRANCH  14  19
HETATM   19  O   UNL     1      24.266  49.667  49.119  1.00  0.00    -0.356 OA
HETATM   20  C   UNL     1      23.382  49.789  48.012  1.00  0.00     0.210 C 
ENDBRANCH  14  19
ENDBRANCH   9  11
BRANCH   1  21
HETATM   21  C   UNL     1      27.387  41.334  48.926  1.00  0.00     0.253 C 
HETATM   22  N   UNL     1      26.965  40.094  49.362  1.00  0.00    -0.349 N 
HETATM   23  H   UNL     1      26.766  39.994  50.349  1.00  0.00     0.163 HD
HETATM   24  O   UNL     1      27.846  41.571  47.817  1.00  0.00    -0.268 OA
BRANCH  22  25
HETATM   25  C   UNL     1      27.050  38.855  48.572  1.00  0.00     0.022 C 
HETATM   26  C   UNL     1      28.470  38.662  48.015  1.00  0.00     0.037 C 
HETATM   27  C   UNL     1      26.026  38.855  47.426  1.00  0.00     0.037 C 
HETATM   28  C   UNL     1      26.725  37.675  49.506  1.00  0.00     0.037 C 
ENDBRANCH  22  25
ENDBRANCH   1  21
TORSDOF 5
ENDMDL
MODEL 7
REMARK VINA RESULT:      -8.2      4.433      7.560
REMARK  5 active torsions:
REMARK  status: ('A' for Active; 'I' for Inactive)
REMARK    1  A    between atoms: C_2  and  N_3 
REMARK       I    between atoms: N_3  and  C_4 
REMARK    2  A    between atoms: C_4  and  C_5 
REMARK    3  A    between atoms: C_13  and  C_14 
REMARK    4  A    between atoms: C_15  and  O_16 
REMARK    5  A    between atoms: C_19  and  O_20 
ROOT
HETATM    1  C   UNL     1      25.136  44.470  51.063  1.00  0.00     0.046 A 
HETATM    2  C   UNL     1      24.901  43.462  50.100  1.00  0.00     0.008 A 
HETATM    3  C   UNL     1      24.256  43.874  48.918  1.00  0.00     0.068 A 
HETATM    4  C   UNL     1      24.001  42.933  47.930  1.00  0.00     0.032 A 
HETATM    5  C   UNL     1      24.365  41.592  48.071  1.00  0.00     0.002 A 
HETATM    6  C   UNL     1      25.006  41.174  49.228  1.00  0.00     0.001 A 
HETATM    7  C   UNL     1      25.275  42.101  50.235  1.00  0.00     0.015 A 
HETATM    8  N   UNL     1      23.880  45.144  48.692  1.00  0.00    -0.247 NA
HETATM    9  C   UNL     1      24.089  46.080  49.647  1.00  0.00     0.071 A 
HETATM   10  C   UNL     1      24.718  45.783  50.841  1.00  0.00     0.050 A 
ENDROOT
BRANCH   9  11
HETATM   11  C   UNL     1      23.647  47.443  49.327  1.00  0.00     0.026 A 
HETATM   12  C   UNL     1      24.546  48.513  49.186  1.00  0.00     0.083 A 
HETATM   13  C   UNL     1      24.111  49.799  48.835  1.00  0.00     0.074 A 
HETATM   14  C   UNL     1      22.753  50.050  48.655  1.00  0.00     0.070 A 
HETATM   15  C   UNL     1      21.842  49.004  48.813  1.00  0.00     0.038 A 
HETATM   16  C   UNL     1      22.281  47.717  49.142  1.00  0.00     0.019 A 
BRANCH  12  17
HETATM   17  O   UNL     1      25.899  48.291  49.295  1.00  0.00    -0.355 OA
HETATM   18  C   UNL     1      26.625  49.350  48.670  1.00  0.00     0.210 C 
ENDBRANCH  12  17
BRANCH  14  19
HETATM   19  O   UNL     1      22.192  51.250  48.318  1.00  0.00    -0.356 OA
HETATM   20  C   UNL     1      20.782  51.363  48.463  1.00  0.00     0.210 C 
ENDBRANCH  14  19
ENDBRANCH   9  11
BRANCH   1  21
HETATM   21  C   UNL     1      25.821  44.180  52.348  1.00  0.00     0.253 C 
HETATM   22  N   UNL     1      27.185  43.997  52.241  1.00  0.00    -0.349 N 
HETATM   23  H   UNL     1      27.568  43.909  51.309  1.00  0.00     0.163 HD
HETATM   24  O   UNL     1      25.182  44.113  53.389  1.00  0.00    -0.268 OA
BRANCH  22  25
HETATM   25  C   UNL     1      28.074  43.647  53.361  1.00  0.00     0.022 C 
HETATM   26  C   UNL     1      27.561  42.395  54.090  1.00  0.00     0.037 C 
HETATM   27  C   UNL     1      28.212  44.816  54.349  1.00  0.00     0.037 C 
HETATM   28  C   UNL     1      29.467  43.342  52.782  1.00  0.00     0.037 C 
ENDBRANCH  22  25
ENDBRANCH   1  21
TORSDOF 5
ENDMDL
MODEL 8
REMARK VINA RESULT:      -8.1      6.394      9.943
REMARK  5 active torsions:
REMARK  status: ('A' for Active; 'I' for Inactive)
REMARK    1  A    between atoms: C_2  and  N_3 
REMARK       I    between atoms: N_3  and  C_4 
REMARK    2  A    between atoms: C_4  and  C_5 
REMARK    3  A    between atoms: C_13  and  C_14 
REMARK    4  A    between atoms: C_15  and  O_16 
REMARK    5  A    between atoms: C_19  and  O_20 
ROOT
HETATM    1  C   UNL     1      24.502  46.963  49.660  1.00  0.00     0.046 A 
HETATM    2  C   UNL     1      25.405  47.985  49.288  1.00  0.00     0.008 A 
HETATM    3  C   UNL     1      24.867  49.039  48.524  1.00  0.00     0.068 A 
HETATM    4  C   UNL     1      25.700  50.077  48.131  1.00  0.00     0.032 A 
HETATM    5  C   UNL     1      27.054  50.110  48.471  1.00  0.00     0.002 A 
HETATM    6  C   UNL     1      27.596  49.082  49.228  1.00  0.00     0.001 A 
HETATM    7  C   UNL     1      26.779  48.028  49.636  1.00  0.00     0.015 A 
HETATM    8  N   UNL     1      23.575  49.095  48.159  1.00  0.00    -0.247 NA
HETATM    9  C   UNL     1      22.741  48.084  48.502  1.00  0.00     0.071 A 
HETATM   10  C   UNL     1      23.167  47.006  49.256  1.00  0.00     0.050 A 
ENDROOT
BRANCH   9  11
HETATM   11  C   UNL     1      21.347  48.217  48.065  1.00  0.00     0.026 A 
HETATM   12  C   UNL     1      20.429  49.057  48.718  1.00  0.00     0.083 A 
HETATM   13  C   UNL     1      19.112  49.206  48.259  1.00  0.00     0.074 A 
HETATM   14  C   UNL     1      18.674  48.483  47.152  1.00  0.00     0.070 A 
HETATM   15  C   UNL     1      19.566  47.626  46.504  1.00  0.00     0.038 A 
HETATM   16  C   UNL     1      20.885  47.496  46.951  1.00  0.00     0.019 A 
BRANCH  12  17
HETATM   17  O   UNL     1      20.841  49.832  49.775  1.00  0.00    -0.355 OA
HETATM   18  C   UNL     1      20.356  51.167  49.627  1.00  0.00     0.210 C 
ENDBRANCH  12  17
BRANCH  14  19
HETATM   19  O   UNL     1      17.423  48.528  46.603  1.00  0.00    -0.356 OA
HETATM   20  C   UNL     1      16.588  47.397  46.813  1.00  0.00     0.210 C 
ENDBRANCH  14  19
ENDBRANCH   9  11
BRANCH   1  21
HETATM   21  C   UNL     1      24.930  45.801  50.479  1.00  0.00     0.253 C 
HETATM   22  N   UNL     1      25.531  44.785  49.763  1.00  0.00    -0.349 N 
HETATM   23  H   UNL     1      25.478  44.838  48.754  1.00  0.00     0.163 HD
HETATM   24  O   UNL     1      24.738  45.792  51.688  1.00  0.00    -0.268 OA
BRANCH  22  25
HETATM   25  C   UNL     1      25.990  43.512  50.340  1.00  0.00     0.022 C 
HETATM   26  C   UNL     1      26.626  42.624  49.258  1.00  0.00     0.037 C 
HETATM   27  C   UNL     1      24.836  42.765  51.027  1.00  0.00     0.037 C 
HETATM   28  C   UNL     1      27.056  43.830  51.403  1.00  0.00     0.037 C 
ENDBRANCH  22  25
ENDBRANCH   1  21
TORSDOF 5
ENDMDL
MODEL 9
REMARK VINA RESULT:      -8.1     11.955     15.794
REMARK  5 active torsions:
REMARK  status: ('A' for Active; 'I' for Inactive)
REMARK    1  A    between atoms: C_2  and  N_3 
REMARK       I    between atoms: N_3  and  C_4 
REMARK    2  A    between atoms: C_4  and  C_5 
REMARK    3  A    between atoms: C_13  and  C_14 
REMARK    4  A    between atoms: C_15  and  O_16 
REMARK    5  A    between atoms: C_19  and  O_20 
ROOT
HETATM    1  C   UNL     1      16.362  52.455  48.436  1.00  0.00     0.046 A 
HETATM    2  C   UNL     1      16.054  52.396  47.058  1.00  0.00     0.008 A 
HETATM    3  C   UNL     1      17.016  51.779  46.234  1.00  0.00     0.068 A 
HETATM    4  C   UNL     1      16.770  51.685  44.871  1.00  0.00     0.032 A 
HETATM    5  C   UNL     1      15.600  52.180  44.292  1.00  0.00     0.002 A 
HETATM    6  C   UNL     1      14.642  52.785  45.093  1.00  0.00     0.001 A 
HETATM    7  C   UNL     1      14.864  52.890  46.465  1.00  0.00     0.015 A 
HETATM    8  N   UNL     1      18.164  51.266  46.705  1.00  0.00    -0.247 NA
HETATM    9  C   UNL     1      18.447  51.367  48.025  1.00  0.00     0.071 A 
HETATM   10  C   UNL     1      17.569  51.948  48.921  1.00  0.00     0.050 A 
ENDROOT
BRANCH   9  11
HETATM   11  C   UNL     1      19.722  50.786  48.462  1.00  0.00     0.026 A 
HETATM   12  C   UNL     1      19.839  49.446  48.869  1.00  0.00     0.083 A 
HETATM   13  C   UNL     1      21.074  48.894  49.240  1.00  0.00     0.074 A 
HETATM   14  C   UNL     1      22.217  49.689  49.247  1.00  0.00     0.070 A 
HETATM   15  C   UNL     1      22.116  51.028  48.868  1.00  0.00     0.038 A 
HETATM   16  C   UNL     1      20.887  51.570  48.477  1.00  0.00     0.019 A 
BRANCH  12  17
HETATM   17  O   UNL     1      18.744  48.615  48.816  1.00  0.00    -0.355 OA
HETATM   18  C   UNL     1      18.359  48.222  50.134  1.00  0.00     0.210 C 
ENDBRANCH  12  17
BRANCH  14  19
HETATM   19  O   UNL     1      23.478  49.285  49.589  1.00  0.00    -0.356 OA
HETATM   20  C   UNL     1      24.517  49.567  48.660  1.00  0.00     0.210 C 
ENDBRANCH  14  19
ENDBRANCH   9  11
BRANCH   1  21
HETATM   21  C   UNL     1      15.432  53.062  49.421  1.00  0.00     0.253 C 
HETATM   22  N   UNL     1      15.513  54.437  49.513  1.00  0.00    -0.349 N 
HETATM   23  H   UNL     1      16.289  54.887  49.044  1.00  0.00     0.163 HD
HETATM   24  O   UNL     1      14.678  52.357  50.077  1.00  0.00    -0.268 OA
BRANCH  22  25
HETATM   25  C   UNL     1      14.736  55.262  50.452  1.00  0.00     0.022 C 
HETATM   26  C   UNL     1      14.882  54.734  51.888  1.00  0.00     0.037 C 
HETATM   27  C   UNL     1      13.252  55.308  50.053  1.00  0.00     0.037 C 
HETATM   28  C   UNL     1      15.292  56.696  50.396  1.00  0.00     0.037 C 
ENDBRANCH  22  25
ENDBRANCH   1  21
TORSDOF 5
ENDMDL
MODEL 10
REMARK VINA RESULT:      -8.0      4.711      8.199
REMARK  5 active torsions:
REMARK  status: ('A' for Active; 'I' for Inactive)
REMARK    1  A    between atoms: C_2  and  N_3 
REMARK       I    between atoms: N_3  and  C_4 
REMARK    2  A    between atoms: C_4  and  C_5 
REMARK    3  A    between atoms: C_13  and  C_14 
REMARK    4  A    between atoms: C_15  and  O_16 
REMARK    5  A    between atoms: C_19  and  O_20 
ROOT
HETATM    1  C   UNL     1      23.172  46.768  48.901  1.00  0.00     0.046 A 
HETATM    2  C   UNL     1      22.575  45.756  48.116  1.00  0.00     0.008 A 
HETATM    3  C   UNL     1      22.943  44.433  48.428  1.00  0.00     0.068 A 
HETATM    4  C   UNL     1      22.387  43.392  47.698  1.00  0.00     0.032 A 
HETATM    5  C   UNL     1      21.473  43.615  46.666  1.00  0.00     0.002 A 
HETATM    6  C   UNL     1      21.097  44.912  46.353  1.00  0.00     0.001 A 
HETATM    7  C   UNL     1      21.640  45.976  47.072  1.00  0.00     0.015 A 
HETATM    8  N   UNL     1      23.807  44.124  49.410  1.00  0.00    -0.247 NA
HETATM    9  C   UNL     1      24.388  45.118  50.122  1.00  0.00     0.071 A 
HETATM   10  C   UNL     1      24.092  46.450  49.901  1.00  0.00     0.050 A 
ENDROOT
BRANCH   9  11
HETATM   11  C   UNL     1      25.322  44.700  51.174  1.00  0.00     0.026 A 
HETATM   12  C   UNL     1      26.560  44.099  50.888  1.00  0.00     0.083 A 
HETATM   13  C   UNL     1      27.461  43.748  51.904  1.00  0.00     0.074 A 
HETATM   14  C   UNL     1      27.122  43.957  53.238  1.00  0.00     0.070 A 
HETATM   15  C   UNL     1      25.886  44.532  53.543  1.00  0.00     0.038 A 
HETATM   16  C   UNL     1      24.999  44.902  52.527  1.00  0.00     0.019 A 
BRANCH  12  17
HETATM   17  O   UNL     1      26.956  43.933  49.581  1.00  0.00    -0.355 OA
HETATM   18  C   UNL     1      26.981  42.545  49.246  1.00  0.00     0.210 C 
ENDBRANCH  12  17
BRANCH  14  19
HETATM   19  O   UNL     1      27.897  43.659  54.324  1.00  0.00    -0.356 OA
HETATM   20  C   UNL     1      28.938  44.575  54.640  1.00  0.00     0.210 C 
ENDBRANCH  14  19
ENDBRANCH   9  11
BRANCH   1  21
HETATM   21  C   UNL     1      22.861  48.205  48.692  1.00  0.00     0.253 C 
HETATM   22  N   UNL     1      21.775  48.666  49.409  1.00  0.00    -0.349 N 
HETATM   23  H   UNL     1      21.196  47.974  49.867  1.00  0.00     0.163 HD
HETATM   24  O   UNL     1      23.541  48.882  47.932  1.00  0.00    -0.268 OA
BRANCH  22  25
HETATM   25  C   UNL     1      21.238  50.034  49.330  1.00  0.00     0.022 C 
HETATM   26  C   UNL     1      22.311  51.062  49.724  1.00  0.00     0.037 C 
HETATM   27  C   UNL     1      19.996  50.197  50.221  1.00  0.00     0.037 C 
HETATM   28  C   UNL     1      20.820  50.296  47.872  1.00  0.00     0.037 C 
ENDBRANCH  22  25
ENDBRANCH   1  21
TORSDOF 5
ENDMDL
