MODEL 1
REMARK VINA RESULT:      -9.5      0.000      0.000
REMARK  9 active torsions:
REMARK  status: ('A' for Active; 'I' for Inactive)
REMARK    1  A    between atoms: O_2  and  C_3 
REMARK    2  A    between atoms: C_5  and  C_15 
REMARK    3  A    between atoms: C_8  and  C_9 
REMARK       I    between atoms: C_15  and  N_17 
REMARK    4  A    between atoms: N_17  and  C_18 
REMARK    5  A    between atoms: C_18  and  C_19 
REMARK    6  A    between atoms: C_18  and  C_27 
REMARK    7  A    between atoms: C_19  and  N_20 
REMARK    8  A    between atoms: N_20  and  S_21 
REMARK    9  A    between atoms: S_21  and  C_24 
ROOT
HETATM    1  C   UNL     1      26.004  46.901  52.990  1.00  0.00     0.252 C 
HETATM    2  O   UNL     1      25.306  47.863  53.294  1.00  0.00    -0.268 OA
HETATM    3  N   UNL     1      25.867  46.248  51.785  1.00  0.00    -0.347 N 
HETATM    4  H   UNL     1      26.502  45.515  51.504  1.00  0.00     0.163 HD
ENDROOT
BRANCH   3   5
HETATM    5  C   UNL     1      24.918  46.737  50.776  1.00  0.00     0.132 C 
BRANCH   5   6
HETATM    6  C   UNL     1      24.279  45.539  50.014  1.00  0.00     0.134 C 
BRANCH   6   7
HETATM    7  N   UNL     1      25.297  44.852  49.167  1.00  0.00    -0.217 NA
HETATM    8  H   UNL     1      25.874  45.525  48.660  1.00  0.00     0.139 HD
BRANCH   7   9
HETATM    9  S   UNL     1      26.314  43.757  49.950  1.00  0.00     0.213 S 
HETATM   10  O   UNL     1      27.610  44.395  49.998  1.00  0.00    -0.211 OA
HETATM   11  O   UNL     1      25.638  43.336  51.156  1.00  0.00    -0.211 OA
BRANCH   9  12
HETATM   12  C   UNL     1      26.420  42.287  48.890  1.00  0.00     0.124 A 
HETATM   13  C   UNL     1      27.344  41.214  49.404  1.00  0.00     0.023 A 
HETATM   14  C   UNL     1      25.853  41.025  49.480  1.00  0.00     0.023 A 
ENDBRANCH   9  12
ENDBRANCH   7   9
ENDBRANCH   6   7
ENDBRANCH   5   6
BRANCH   5  15
HETATM   15  C   UNL     1      25.576  47.829  49.933  1.00  0.00    -0.034 A 
HETATM   16  C   UNL     1      24.851  48.765  49.180  1.00  0.00     0.009 A 
HETATM   17  C   UNL     1      25.504  49.760  48.444  1.00  0.00     0.001 A 
HETATM   18  C   UNL     1      26.893  49.839  48.450  1.00  0.00     0.000 A 
HETATM   19  C   UNL     1      27.632  48.931  49.199  1.00  0.00     0.001 A 
HETATM   20  C   UNL     1      26.981  47.943  49.940  1.00  0.00     0.009 A 
ENDBRANCH   5  15
ENDBRANCH   3   5
BRANCH   1  21
HETATM   21  C   UNL     1      27.073  46.432  53.919  1.00  0.00     0.034 A 
HETATM   22  C   UNL     1      27.442  45.078  53.852  1.00  0.00     0.054 A 
HETATM   23  C   UNL     1      28.431  44.553  54.693  1.00  0.00     0.080 A 
HETATM   24  C   UNL     1      29.074  45.402  55.618  1.00  0.00     0.010 A 
HETATM   25  C   UNL     1      28.708  46.760  55.668  1.00  0.00     0.016 A 
HETATM   26  C   UNL     1      27.718  47.275  54.826  1.00  0.00     0.018 A 
BRANCH  23  27
HETATM   27  O   UNL     1      28.816  43.236  54.684  1.00  0.00    -0.355 OA
HETATM   28  C   UNL     1      28.252  42.379  53.700  1.00  0.00     0.210 C 
ENDBRANCH  23  27
BRANCH  24  29
HETATM   29  C   UNL     1      30.121  44.918  56.509  1.00  0.00     0.013 A 
HETATM   30  C   UNL     1      31.076  43.887  56.346  1.00  0.00     0.152 A 
HETATM   31  N   UNL     1      31.878  43.750  57.407  1.00  0.00    -0.187 NA
HETATM   32  N   UNL     1      31.425  44.681  58.262  1.00  0.00    -0.289 N 
HETATM   33  H   UNL     1      31.877  44.761  59.165  1.00  0.00     0.188 HD
HETATM   34  C   UNL     1      30.381  45.412  57.770  1.00  0.00     0.123 A 
ENDBRANCH  24  29
ENDBRANCH   1  21
TORSDOF 9
ENDMDL
MODEL 2
REMARK VINA RESULT:      -8.9      2.052      2.453
REMARK  9 active torsions:
REMARK  status: ('A' for Active; 'I' for Inactive)
REMARK    1  A    between atoms: O_2  and  C_3 
REMARK    2  A    between atoms: C_5  and  C_15 
REMARK    3  A    between atoms: C_8  and  C_9 
REMARK       I    between atoms: C_15  and  N_17 
REMARK    4  A    between atoms: N_17  and  C_18 
REMARK    5  A    between atoms: C_18  and  C_19 
REMARK    6  A    between atoms: C_18  and  C_27 
REMARK    7  A    between atoms: C_19  and  N_20 
REMARK    8  A    between atoms: N_20  and  S_21 
REMARK    9  A    between atoms: S_21  and  C_24 
ROOT
HETATM    1  C   UNL     1      25.993  46.765  52.900  1.00  0.00     0.252 C 
HETATM    2  O   UNL     1      25.248  47.683  53.225  1.00  0.00    -0.268 OA
HETATM    3  N   UNL     1      25.907  46.151  51.669  1.00  0.00    -0.347 N 
HETATM    4  H   UNL     1      26.579  45.457  51.374  1.00  0.00     0.163 HD
ENDROOT
BRANCH   3   5
HETATM    5  C   UNL     1      24.954  46.634  50.661  1.00  0.00     0.132 C 
BRANCH   5   6
HETATM    6  C   UNL     1      24.371  45.436  49.855  1.00  0.00     0.134 C 
BRANCH   6   7
HETATM    7  N   UNL     1      22.915  45.632  49.600  1.00  0.00    -0.217 NA
HETATM    8  H   UNL     1      22.750  46.422  48.972  1.00  0.00     0.139 HD
BRANCH   7   9
HETATM    9  S   UNL     1      22.065  44.297  49.016  1.00  0.00     0.213 S 
HETATM   10  O   UNL     1      22.462  43.186  49.851  1.00  0.00    -0.211 OA
HETATM   11  O   UNL     1      20.680  44.693  48.900  1.00  0.00    -0.211 OA
BRANCH   9  12
HETATM   12  C   UNL     1      22.649  44.001  47.323  1.00  0.00     0.124 A 
HETATM   13  C   UNL     1      21.921  42.900  46.597  1.00  0.00     0.023 A 
HETATM   14  C   UNL     1      21.668  44.339  46.234  1.00  0.00     0.023 A 
ENDBRANCH   9  12
ENDBRANCH   7   9
ENDBRANCH   6   7
ENDBRANCH   5   6
BRANCH   5  15
HETATM   15  C   UNL     1      25.581  47.775  49.861  1.00  0.00    -0.034 A 
HETATM   16  C   UNL     1      24.830  48.748  49.184  1.00  0.00     0.009 A 
HETATM   17  C   UNL     1      25.456  49.787  48.486  1.00  0.00     0.001 A 
HETATM   18  C   UNL     1      26.844  49.871  48.453  1.00  0.00     0.000 A 
HETATM   19  C   UNL     1      27.610  48.926  49.126  1.00  0.00     0.001 A 
HETATM   20  C   UNL     1      26.985  47.895  49.831  1.00  0.00     0.009 A 
ENDBRANCH   5  15
ENDBRANCH   3   5
BRANCH   1  21
HETATM   21  C   UNL     1      27.066  46.310  53.831  1.00  0.00     0.034 A 
HETATM   22  C   UNL     1      27.540  44.995  53.681  1.00  0.00     0.054 A 
HETATM   23  C   UNL     1      28.541  44.485  54.518  1.00  0.00     0.080 A 
HETATM   24  C   UNL     1      29.088  45.310  55.523  1.00  0.00     0.010 A 
HETATM   25  C   UNL     1      28.617  46.629  55.657  1.00  0.00     0.016 A 
HETATM   26  C   UNL     1      27.617  47.129  54.817  1.00  0.00     0.018 A 
BRANCH  23  27
HETATM   27  O   UNL     1      29.026  43.205  54.431  1.00  0.00    -0.355 OA
HETATM   28  C   UNL     1      29.508  42.755  53.171  1.00  0.00     0.210 C 
ENDBRANCH  23  27
BRANCH  24  29
HETATM   29  C   UNL     1      30.142  44.842  56.415  1.00  0.00     0.013 A 
HETATM   30  C   UNL     1      31.113  43.826  56.252  1.00  0.00     0.152 A 
HETATM   31  N   UNL     1      31.916  43.700  57.314  1.00  0.00    -0.187 NA
HETATM   32  N   UNL     1      31.447  44.622  58.169  1.00  0.00    -0.289 N 
HETATM   33  H   UNL     1      31.897  44.708  59.073  1.00  0.00     0.188 HD
HETATM   34  C   UNL     1      30.393  45.337  57.677  1.00  0.00     0.123 A 
ENDBRANCH  24  29
ENDBRANCH   1  21
TORSDOF 9
ENDMDL
MODEL 3
REMARK VINA RESULT:      -8.7      2.921      7.794
REMARK  9 active torsions:
REMARK  status: ('A' for Active; 'I' for Inactive)
REMARK    1  A    between atoms: O_2  and  C_3 
REMARK    2  A    between atoms: C_5  and  C_15 
REMARK    3  A    between atoms: C_8  and  C_9 
REMARK       I    between atoms: C_15  and  N_17 
REMARK    4  A    between atoms: N_17  and  C_18 
REMARK    5  A    between atoms: C_18  and  C_19 
REMARK    6  A    between atoms: C_18  and  C_27 
REMARK    7  A    between atoms: C_19  and  N_20 
REMARK    8  A    between atoms: N_20  and  S_21 
REMARK    9  A    between atoms: S_21  and  C_24 
ROOT
HETATM    1  C   UNL     1      27.765  43.083  53.889  1.00  0.00     0.252 C 
HETATM    2  O   UNL     1      26.819  43.003  54.666  1.00  0.00    -0.268 OA
HETATM    3  N   UNL     1      28.711  44.081  53.986  1.00  0.00    -0.347 N 
HETATM    4  H   UNL     1      29.533  44.090  53.400  1.00  0.00     0.163 HD
ENDROOT
BRANCH   3   5
HETATM    5  C   UNL     1      28.658  45.054  55.086  1.00  0.00     0.132 C 
BRANCH   5   6
HETATM    6  C   UNL     1      28.596  46.502  54.519  1.00  0.00     0.134 C 
BRANCH   6   7
HETATM    7  N   UNL     1      27.376  47.206  55.009  1.00  0.00    -0.217 NA
HETATM    8  H   UNL     1      27.535  48.212  55.095  1.00  0.00     0.139 HD
BRANCH   7   9
HETATM    9  S   UNL     1      25.958  46.962  54.127  1.00  0.00     0.213 S 
HETATM   10  O   UNL     1      25.327  45.804  54.717  1.00  0.00    -0.211 OA
HETATM   11  O   UNL     1      25.278  48.235  54.056  1.00  0.00    -0.211 OA
BRANCH   9  12
HETATM   12  C   UNL     1      26.458  46.561  52.429  1.00  0.00     0.124 A 
HETATM   13  C   UNL     1      25.574  45.553  51.742  1.00  0.00     0.023 A 
HETATM   14  C   UNL     1      25.503  47.005  51.355  1.00  0.00     0.023 A 
ENDBRANCH   9  12
ENDBRANCH   7   9
ENDBRANCH   6   7
ENDBRANCH   5   6
BRANCH   5  15
HETATM   15  C   UNL     1      29.760  44.747  56.099  1.00  0.00    -0.034 A 
HETATM   16  C   UNL     1      30.704  43.724  55.929  1.00  0.00     0.009 A 
HETATM   17  C   UNL     1      31.708  43.501  56.878  1.00  0.00     0.001 A 
HETATM   18  C   UNL     1      31.787  44.300  58.014  1.00  0.00     0.000 A 
HETATM   19  C   UNL     1      30.871  45.330  58.199  1.00  0.00     0.001 A 
HETATM   20  C   UNL     1      29.874  45.557  57.248  1.00  0.00     0.009 A 
ENDBRANCH   5  15
ENDBRANCH   3   5
BRANCH   1  21
HETATM   21  C   UNL     1      27.947  42.053  52.826  1.00  0.00     0.034 A 
HETATM   22  C   UNL     1      27.032  42.054  51.759  1.00  0.00     0.054 A 
HETATM   23  C   UNL     1      27.124  41.117  50.723  1.00  0.00     0.080 A 
HETATM   24  C   UNL     1      28.160  40.160  50.747  1.00  0.00     0.010 A 
HETATM   25  C   UNL     1      29.080  40.175  51.812  1.00  0.00     0.016 A 
HETATM   26  C   UNL     1      28.979  41.114  52.843  1.00  0.00     0.018 A 
BRANCH  23  27
HETATM   27  O   UNL     1      26.247  41.059  49.669  1.00  0.00    -0.355 OA
HETATM   28  C   UNL     1      26.029  42.244  48.913  1.00  0.00     0.210 C 
ENDBRANCH  23  27
BRANCH  24  29
HETATM   29  C   UNL     1      28.318  39.168  49.690  1.00  0.00     0.013 A 
HETATM   30  C   UNL     1      28.893  39.268  48.401  1.00  0.00     0.152 A 
HETATM   31  N   UNL     1      28.847  38.118  47.722  1.00  0.00    -0.187 NA
HETATM   32  N   UNL     1      28.223  37.282  48.567  1.00  0.00    -0.289 N 
HETATM   33  H   UNL     1      28.055  36.330  48.261  1.00  0.00     0.188 HD
HETATM   34  C   UNL     1      27.893  37.858  49.760  1.00  0.00     0.123 A 
ENDBRANCH  24  29
ENDBRANCH   1  21
TORSDOF 9
ENDMDL
MODEL 4
REMARK VINA RESULT:      -8.7      3.012      7.963
REMARK  9 active torsions:
REMARK  status: ('A' for Active; 'I' for Inactive)
REMARK    1  A    between atoms: O_2  and  C_3 
REMARK    2  A    between atoms: C_5  and  C_15 
REMARK    3  A    between atoms: C_8  and  C_9 
REMARK       I    between atoms: C_15  and  N_17 
REMARK    4  A    between atoms: N_17  and  C_18 
REMARK    5  A    between atoms: C_18  and  C_19 
REMARK    6  A    between atoms: C_18  and  C_27 
REMARK    7  A    between atoms: C_19  and  N_20 
REMARK    8  A    between atoms: N_20  and  S_21 
REMARK    9  A    between atoms: S_21  and  C_24 
ROOT
HETATM    1  C   UNL     1      26.787  44.106  50.264  1.00  0.00     0.252 C 
HETATM    2  O   UNL     1      27.276  43.409  49.382  1.00  0.00    -0.268 OA
HETATM    3  N   UNL     1      27.184  44.013  51.580  1.00  0.00    -0.347 N 
HETATM    4  H   UNL     1      26.842  44.650  52.284  1.00  0.00     0.163 HD
ENDROOT
BRANCH   3   5
HETATM    5  C   UNL     1      28.280  43.112  51.964  1.00  0.00     0.132 C 
BRANCH   5   6
HETATM    6  C   UNL     1      27.799  41.631  51.915  1.00  0.00     0.134 C 
BRANCH   6   7
HETATM    7  N   UNL     1      28.718  40.809  51.075  1.00  0.00    -0.217 NA
HETATM    8  H   UNL     1      29.286  40.183  51.649  1.00  0.00     0.139 HD
BRANCH   7   9
HETATM    9  S   UNL     1      28.005  39.906  49.841  1.00  0.00     0.213 S 
HETATM   10  O   UNL     1      26.603  39.823  50.179  1.00  0.00    -0.211 OA
HETATM   11  O   UNL     1      28.445  40.476  48.589  1.00  0.00    -0.211 OA
BRANCH   9  12
HETATM   12  C   UNL     1      28.729  38.243  49.921  1.00  0.00     0.124 A 
HETATM   13  C   UNL     1      30.142  38.153  49.407  1.00  0.00     0.023 A 
HETATM   14  C   UNL     1      29.872  38.083  50.886  1.00  0.00     0.023 A 
ENDBRANCH   9  12
ENDBRANCH   7   9
ENDBRANCH   6   7
ENDBRANCH   5   6
BRANCH   5  15
HETATM   15  C   UNL     1      28.915  43.597  53.267  1.00  0.00    -0.034 A 
HETATM   16  C   UNL     1      28.387  44.642  54.041  1.00  0.00     0.009 A 
HETATM   17  C   UNL     1      28.996  45.030  55.239  1.00  0.00     0.001 A 
HETATM   18  C   UNL     1      30.141  44.380  55.687  1.00  0.00     0.000 A 
HETATM   19  C   UNL     1      30.675  43.333  54.944  1.00  0.00     0.001 A 
HETATM   20  C   UNL     1      30.063  42.939  53.752  1.00  0.00     0.009 A 
ENDBRANCH   5  15
ENDBRANCH   3   5
BRANCH   1  21
HETATM   21  C   UNL     1      25.758  45.130  49.919  1.00  0.00     0.034 A 
HETATM   22  C   UNL     1      26.159  46.477  49.915  1.00  0.00     0.054 A 
HETATM   23  C   UNL     1      25.256  47.503  49.611  1.00  0.00     0.080 A 
HETATM   24  C   UNL     1      23.920  47.176  49.293  1.00  0.00     0.010 A 
HETATM   25  C   UNL     1      23.531  45.824  49.286  1.00  0.00     0.016 A 
HETATM   26  C   UNL     1      24.440  44.807  49.593  1.00  0.00     0.018 A 
BRANCH  23  27
HETATM   27  O   UNL     1      25.588  48.834  49.612  1.00  0.00    -0.355 OA
HETATM   28  C   UNL     1      26.558  49.284  48.675  1.00  0.00     0.210 C 
ENDBRANCH  23  27
BRANCH  24  29
HETATM   29  C   UNL     1      22.938  48.197  48.953  1.00  0.00     0.013 A 
HETATM   30  C   UNL     1      22.631  49.433  49.568  1.00  0.00     0.152 A 
HETATM   31  N   UNL     1      21.652  50.095  48.944  1.00  0.00    -0.187 NA
HETATM   32  N   UNL     1      21.313  49.274  47.938  1.00  0.00    -0.289 N 
HETATM   33  H   UNL     1      20.563  49.560  47.319  1.00  0.00     0.188 HD
HETATM   34  C   UNL     1      22.057  48.130  47.893  1.00  0.00     0.123 A 
ENDBRANCH  24  29
ENDBRANCH   1  21
TORSDOF 9
ENDMDL
MODEL 5
REMARK VINA RESULT:      -8.5      2.053      5.596
REMARK  9 active torsions:
REMARK  status: ('A' for Active; 'I' for Inactive)
REMARK    1  A    between atoms: O_2  and  C_3 
REMARK    2  A    between atoms: C_5  and  C_15 
REMARK    3  A    between atoms: C_8  and  C_9 
REMARK       I    between atoms: C_15  and  N_17 
REMARK    4  A    between atoms: N_17  and  C_18 
REMARK    5  A    between atoms: C_18  and  C_19 
REMARK    6  A    between atoms: C_18  and  C_27 
REMARK    7  A    between atoms: C_19  and  N_20 
REMARK    8  A    between atoms: N_20  and  S_21 
REMARK    9  A    between atoms: S_21  and  C_24 
ROOT
HETATM    1  C   UNL     1      28.002  43.209  51.662  1.00  0.00     0.252 C 
HETATM    2  O   UNL     1      28.007  44.011  50.734  1.00  0.00    -0.268 OA
HETATM    3  N   UNL     1      27.428  41.961  51.551  1.00  0.00    -0.347 N 
HETATM    4  H   UNL     1      27.506  41.275  52.287  1.00  0.00     0.163 HD
ENDROOT
BRANCH   3   5
HETATM    5  C   UNL     1      26.860  41.514  50.272  1.00  0.00     0.132 C 
BRANCH   5   6
HETATM    6  C   UNL     1      25.334  41.821  50.226  1.00  0.00     0.134 C 
BRANCH   6   7
HETATM    7  N   UNL     1      25.097  43.255  49.894  1.00  0.00    -0.217 NA
HETATM    8  H   UNL     1      24.679  43.359  48.967  1.00  0.00     0.139 HD
BRANCH   7   9
HETATM    9  S   UNL     1      24.177  44.143  50.996  1.00  0.00     0.213 S 
HETATM   10  O   UNL     1      22.800  43.807  50.714  1.00  0.00    -0.211 OA
HETATM   11  O   UNL     1      24.752  43.923  52.303  1.00  0.00    -0.211 OA
BRANCH   9  12
HETATM   12  C   UNL     1      24.446  45.897  50.614  1.00  0.00     0.124 A 
HETATM   13  C   UNL     1      25.665  46.496  51.265  1.00  0.00     0.023 A 
HETATM   14  C   UNL     1      25.668  46.197  49.790  1.00  0.00     0.023 A 
ENDBRANCH   9  12
ENDBRANCH   7   9
ENDBRANCH   6   7
ENDBRANCH   5   6
BRANCH   5  15
HETATM   15  C   UNL     1      27.291  40.076  49.989  1.00  0.00    -0.034 A 
HETATM   16  C   UNL     1      26.401  39.065  49.596  1.00  0.00     0.009 A 
HETATM   17  C   UNL     1      26.853  37.769  49.326  1.00  0.00     0.001 A 
HETATM   18  C   UNL     1      28.204  37.460  49.443  1.00  0.00     0.000 A 
HETATM   19  C   UNL     1      29.109  38.447  49.818  1.00  0.00     0.001 A 
HETATM   20  C   UNL     1      28.658  39.743  50.079  1.00  0.00     0.009 A 
ENDBRANCH   5  15
ENDBRANCH   3   5
BRANCH   1  21
HETATM   21  C   UNL     1      28.674  43.554  52.948  1.00  0.00     0.034 A 
HETATM   22  C   UNL     1      28.064  44.528  53.758  1.00  0.00     0.054 A 
HETATM   23  C   UNL     1      28.632  44.917  54.978  1.00  0.00     0.080 A 
HETATM   24  C   UNL     1      29.834  44.313  55.404  1.00  0.00     0.010 A 
HETATM   25  C   UNL     1      30.430  43.329  54.594  1.00  0.00     0.016 A 
HETATM   26  C   UNL     1      29.856  42.948  53.377  1.00  0.00     0.018 A 
BRANCH  23  27
HETATM   27  O   UNL     1      28.091  45.875  55.797  1.00  0.00    -0.355 OA
HETATM   28  C   UNL     1      27.582  47.060  55.197  1.00  0.00     0.210 C 
ENDBRANCH  23  27
BRANCH  24  29
HETATM   29  C   UNL     1      30.465  44.664  56.670  1.00  0.00     0.013 A 
HETATM   30  C   UNL     1      31.383  43.955  57.479  1.00  0.00     0.152 A 
HETATM   31  N   UNL     1      31.733  44.627  58.580  1.00  0.00    -0.187 NA
HETATM   32  N   UNL     1      31.023  45.763  58.490  1.00  0.00    -0.289 N 
HETATM   33  H   UNL     1      31.112  46.443  59.236  1.00  0.00     0.188 HD
HETATM   34  C   UNL     1      30.255  45.838  57.363  1.00  0.00     0.123 A 
ENDBRANCH  24  29
ENDBRANCH   1  21
TORSDOF 9
ENDMDL
MODEL 6
REMARK VINA RESULT:      -8.3      4.445      9.105
REMARK  9 active torsions:
REMARK  status: ('A' for Active; 'I' for Inactive)
REMARK    1  A    between atoms: O_2  and  C_3 
REMARK    2  A    between atoms: C_5  and  C_15 
REMARK    3  A    between atoms: C_8  and  C_9 
REMARK       I    between atoms: C_15  and  N_17 
REMARK    4  A    between atoms: N_17  and  C_18 
REMARK    5  A    between atoms: C_18  and  C_19 
REMARK    6  A    between atoms: C_18  and  C_27 
REMARK    7  A    between atoms: C_19  and  N_20 
REMARK    8  A    between atoms: N_20  and  S_21 
REMARK    9  A    between atoms: S_21  and  C_24 
ROOT
HETATM    1  C   UNL     1      24.156  48.297  49.311  1.00  0.00     0.252 C 
HETATM    2  O   UNL     1      25.253  48.719  48.962  1.00  0.00    -0.268 OA
HETATM    3  N   UNL     1      23.992  47.042  49.857  1.00  0.00    -0.347 N 
HETATM    4  H   UNL     1      23.103  46.735  50.223  1.00  0.00     0.163 HD
ENDROOT
BRANCH   3   5
HETATM    5  C   UNL     1      25.156  46.183  50.112  1.00  0.00     0.132 C 
BRANCH   5   6
HETATM    6  C   UNL     1      25.028  44.853  49.314  1.00  0.00     0.134 C 
BRANCH   6   7
HETATM    7  N   UNL     1      26.360  44.200  49.162  1.00  0.00    -0.217 NA
HETATM    8  H   UNL     1      27.064  44.650  49.752  1.00  0.00     0.139 HD
BRANCH   7   9
HETATM    9  S   UNL     1      26.420  42.536  49.431  1.00  0.00     0.213 S 
HETATM   10  O   UNL     1      25.073  42.058  49.217  1.00  0.00    -0.211 OA
HETATM   11  O   UNL     1      27.532  42.021  48.665  1.00  0.00    -0.211 OA
BRANCH   9  12
HETATM   12  C   UNL     1      26.857  42.301  51.177  1.00  0.00     0.124 A 
HETATM   13  C   UNL     1      28.216  41.691  51.402  1.00  0.00     0.023 A 
HETATM   14  C   UNL     1      27.991  43.153  51.679  1.00  0.00     0.023 A 
ENDBRANCH   9  12
ENDBRANCH   7   9
ENDBRANCH   6   7
ENDBRANCH   5   6
BRANCH   5  15
HETATM   15  C   UNL     1      25.398  46.074  51.617  1.00  0.00    -0.034 A 
HETATM   16  C   UNL     1      24.948  44.997  52.396  1.00  0.00     0.009 A 
HETATM   17  C   UNL     1      25.218  44.935  53.767  1.00  0.00     0.001 A 
HETATM   18  C   UNL     1      25.943  45.948  54.385  1.00  0.00     0.000 A 
HETATM   19  C   UNL     1      26.411  47.020  53.633  1.00  0.00     0.001 A 
HETATM   20  C   UNL     1      26.150  47.078  52.262  1.00  0.00     0.009 A 
ENDBRANCH   5  15
ENDBRANCH   3   5
BRANCH   1  21
HETATM   21  C   UNL     1      22.950  49.168  49.194  1.00  0.00     0.034 A 
HETATM   22  C   UNL     1      21.694  48.539  49.185  1.00  0.00     0.054 A 
HETATM   23  C   UNL     1      20.511  49.280  49.070  1.00  0.00     0.080 A 
HETATM   24  C   UNL     1      20.584  50.686  48.972  1.00  0.00     0.010 A 
HETATM   25  C   UNL     1      21.846  51.309  48.997  1.00  0.00     0.016 A 
HETATM   26  C   UNL     1      23.021  50.559  49.110  1.00  0.00     0.018 A 
BRANCH  23  27
HETATM   27  O   UNL     1      19.261  48.717  49.035  1.00  0.00    -0.355 OA
HETATM   28  C   UNL     1      19.165  47.303  48.925  1.00  0.00     0.210 C 
ENDBRANCH  23  27
BRANCH  24  29
HETATM   29  C   UNL     1      19.389  51.513  48.867  1.00  0.00     0.013 A 
HETATM   30  C   UNL     1      18.547  52.061  49.863  1.00  0.00     0.152 A 
HETATM   31  N   UNL     1      17.538  52.776  49.355  1.00  0.00    -0.187 NA
HETATM   32  N   UNL     1      17.720  52.672  48.029  1.00  0.00    -0.289 N 
HETATM   33  H   UNL     1      17.054  53.131  47.418  1.00  0.00     0.188 HD
HETATM   34  C   UNL     1      18.816  51.935  47.684  1.00  0.00     0.123 A 
ENDBRANCH  24  29
ENDBRANCH   1  21
TORSDOF 9
ENDMDL
MODEL 7
REMARK VINA RESULT:      -8.3      3.199      7.949
REMARK  9 active torsions:
REMARK  status: ('A' for Active; 'I' for Inactive)
REMARK    1  A    between atoms: O_2  and  C_3 
REMARK    2  A    between atoms: C_5  and  C_15 
REMARK    3  A    between atoms: C_8  and  C_9 
REMARK       I    between atoms: C_15  and  N_17 
REMARK    4  A    between atoms: N_17  and  C_18 
REMARK    5  A    between atoms: C_18  and  C_19 
REMARK    6  A    between atoms: C_18  and  C_27 
REMARK    7  A    between atoms: C_19  and  N_20 
REMARK    8  A    between atoms: N_20  and  S_21 
REMARK    9  A    between atoms: S_21  and  C_24 
ROOT
HETATM    1  C   UNL     1      26.835  44.265  50.208  1.00  0.00     0.252 C 
HETATM    2  O   UNL     1      27.283  43.548  49.319  1.00  0.00    -0.268 OA
HETATM    3  N   UNL     1      27.231  44.139  51.521  1.00  0.00    -0.347 N 
HETATM    4  H   UNL     1      26.926  44.789  52.231  1.00  0.00     0.163 HD
ENDROOT
BRANCH   3   5
HETATM    5  C   UNL     1      28.276  43.177  51.895  1.00  0.00     0.132 C 
BRANCH   5   6
HETATM    6  C   UNL     1      27.724  41.723  51.809  1.00  0.00     0.134 C 
BRANCH   6   7
HETATM    7  N   UNL     1      28.574  40.891  50.910  1.00  0.00    -0.217 NA
HETATM    8  H   UNL     1      29.223  40.310  51.445  1.00  0.00     0.139 HD
BRANCH   7   9
HETATM    9  S   UNL     1      27.764  39.909  49.803  1.00  0.00     0.213 S 
HETATM   10  O   UNL     1      26.413  39.790  50.302  1.00  0.00    -0.211 OA
HETATM   11  O   UNL     1      28.036  40.439  48.486  1.00  0.00    -0.211 OA
BRANCH   9  12
HETATM   12  C   UNL     1      28.560  38.279  49.865  1.00  0.00     0.124 A 
HETATM   13  C   UNL     1      29.961  38.248  49.312  1.00  0.00     0.023 A 
HETATM   14  C   UNL     1      29.735  38.170  50.798  1.00  0.00     0.023 A 
ENDBRANCH   9  12
ENDBRANCH   7   9
ENDBRANCH   6   7
ENDBRANCH   5   6
BRANCH   5  15
HETATM   15  C   UNL     1      28.922  43.601  53.214  1.00  0.00    -0.034 A 
HETATM   16  C   UNL     1      28.419  44.630  54.024  1.00  0.00     0.009 A 
HETATM   17  C   UNL     1      29.036  44.963  55.235  1.00  0.00     0.001 A 
HETATM   18  C   UNL     1      30.166  44.271  55.658  1.00  0.00     0.000 A 
HETATM   19  C   UNL     1      30.676  43.239  54.880  1.00  0.00     0.001 A 
HETATM   20  C   UNL     1      30.055  42.901  53.675  1.00  0.00     0.009 A 
ENDBRANCH   5  15
ENDBRANCH   3   5
BRANCH   1  21
HETATM   21  C   UNL     1      25.863  45.346  49.874  1.00  0.00     0.034 A 
HETATM   22  C   UNL     1      24.643  44.964  49.291  1.00  0.00     0.054 A 
HETATM   23  C   UNL     1      23.677  45.916  48.939  1.00  0.00     0.080 A 
HETATM   24  C   UNL     1      23.932  47.282  49.183  1.00  0.00     0.010 A 
HETATM   25  C   UNL     1      25.151  47.654  49.781  1.00  0.00     0.016 A 
HETATM   26  C   UNL     1      26.109  46.697  50.127  1.00  0.00     0.018 A 
BRANCH  23  27
HETATM   27  O   UNL     1      22.479  45.601  48.349  1.00  0.00    -0.355 OA
HETATM   28  C   UNL     1      21.728  44.523  48.892  1.00  0.00     0.210 C 
ENDBRANCH  23  27
BRANCH  24  29
HETATM   29  C   UNL     1      22.960  48.317  48.854  1.00  0.00     0.013 A 
HETATM   30  C   UNL     1      21.593  48.449  49.191  1.00  0.00     0.152 A 
HETATM   31  N   UNL     1      21.040  49.559  48.692  1.00  0.00    -0.187 NA
HETATM   32  N   UNL     1      22.048  50.132  48.016  1.00  0.00    -0.289 N 
HETATM   33  H   UNL     1      21.863  51.001  47.527  1.00  0.00     0.188 HD
HETATM   34  C   UNL     1      23.220  49.434  48.087  1.00  0.00     0.123 A 
ENDBRANCH  24  29
ENDBRANCH   1  21
TORSDOF 9
ENDMDL
MODEL 8
REMARK VINA RESULT:      -8.1      5.530      9.861
REMARK  9 active torsions:
REMARK  status: ('A' for Active; 'I' for Inactive)
REMARK    1  A    between atoms: O_2  and  C_3 
REMARK    2  A    between atoms: C_5  and  C_15 
REMARK    3  A    between atoms: C_8  and  C_9 
REMARK       I    between atoms: C_15  and  N_17 
REMARK    4  A    between atoms: N_17  and  C_18 
REMARK    5  A    between atoms: C_18  and  C_19 
REMARK    6  A    between atoms: C_18  and  C_27 
REMARK    7  A    between atoms: C_19  and  N_20 
REMARK    8  A    between atoms: N_20  and  S_21 
REMARK    9  A    between atoms: S_21  and  C_24 
ROOT
HETATM    1  C   UNL     1      22.168  48.297  48.508  1.00  0.00     0.252 C 
HETATM    2  O   UNL     1      22.390  47.659  47.485  1.00  0.00    -0.268 OA
HETATM    3  N   UNL     1      22.985  48.218  49.614  1.00  0.00    -0.347 N 
HETATM    4  H   UNL     1      22.846  48.812  50.419  1.00  0.00     0.163 HD
ENDROOT
BRANCH   3   5
HETATM    5  C   UNL     1      24.212  47.412  49.578  1.00  0.00     0.132 C 
BRANCH   5   6
HETATM    6  C   UNL     1      24.314  46.531  50.858  1.00  0.00     0.134 C 
BRANCH   6   7
HETATM    7  N   UNL     1      23.668  45.205  50.635  1.00  0.00    -0.217 NA
HETATM    8  H   UNL     1      23.045  45.225  49.825  1.00  0.00     0.139 HD
BRANCH   7   9
HETATM    9  S   UNL     1      24.701  43.879  50.483  1.00  0.00     0.213 S 
HETATM   10  O   UNL     1      24.014  42.775  51.114  1.00  0.00    -0.211 OA
HETATM   11  O   UNL     1      25.111  43.817  49.099  1.00  0.00    -0.211 OA
BRANCH   9  12
HETATM   12  C   UNL     1      26.197  44.264  51.436  1.00  0.00     0.124 A 
HETATM   13  C   UNL     1      27.241  43.180  51.422  1.00  0.00     0.023 A 
HETATM   14  C   UNL     1      27.451  44.439  50.625  1.00  0.00     0.023 A 
ENDBRANCH   9  12
ENDBRANCH   7   9
ENDBRANCH   6   7
ENDBRANCH   5   6
BRANCH   5  15
HETATM   15  C   UNL     1      25.408  48.304  49.247  1.00  0.00    -0.034 A 
HETATM   16  C   UNL     1      25.297  49.519  48.555  1.00  0.00     0.009 A 
HETATM   17  C   UNL     1      26.422  50.311  48.299  1.00  0.00     0.001 A 
HETATM   18  C   UNL     1      27.679  49.902  48.733  1.00  0.00     0.000 A 
HETATM   19  C   UNL     1      27.813  48.708  49.433  1.00  0.00     0.001 A 
HETATM   20  C   UNL     1      26.689  47.923  49.696  1.00  0.00     0.009 A 
ENDBRANCH   5  15
ENDBRANCH   3   5
BRANCH   1  21
HETATM   21  C   UNL     1      21.006  49.232  48.566  1.00  0.00     0.034 A 
HETATM   22  C   UNL     1      19.741  48.678  48.825  1.00  0.00     0.054 A 
HETATM   23  C   UNL     1      18.596  49.483  48.888  1.00  0.00     0.080 A 
HETATM   24  C   UNL     1      18.718  50.875  48.697  1.00  0.00     0.010 A 
HETATM   25  C   UNL     1      19.991  51.422  48.453  1.00  0.00     0.016 A 
HETATM   26  C   UNL     1      21.128  50.611  48.389  1.00  0.00     0.018 A 
BRANCH  23  27
HETATM   27  O   UNL     1      17.334  48.994  49.117  1.00  0.00    -0.355 OA
HETATM   28  C   UNL     1      17.060  47.648  48.750  1.00  0.00     0.210 C 
ENDBRANCH  23  27
BRANCH  24  29
HETATM   29  C   UNL     1      17.567  51.766  48.767  1.00  0.00     0.013 A 
HETATM   30  C   UNL     1      16.469  51.935  47.891  1.00  0.00     0.152 A 
HETATM   31  N   UNL     1      15.607  52.866  48.313  1.00  0.00    -0.187 NA
HETATM   32  N   UNL     1      16.162  53.311  49.451  1.00  0.00    -0.289 N 
HETATM   33  H   UNL     1      15.686  54.049  49.958  1.00  0.00     0.188 HD
HETATM   34  C   UNL     1      17.330  52.681  49.771  1.00  0.00     0.123 A 
ENDBRANCH  24  29
ENDBRANCH   1  21
TORSDOF 9
ENDMDL
MODEL 9
REMARK VINA RESULT:      -8.0      2.973      8.039
REMARK  9 active torsions:
REMARK  status: ('A' for Active; 'I' for Inactive)
REMARK    1  A    between atoms: O_2  and  C_3 
REMARK    2  A    between atoms: C_5  and  C_15 
REMARK    3  A    between atoms: C_8  and  C_9 
REMARK       I    between atoms: C_15  and  N_17 
REMARK    4  A    between atoms: N_17  and  C_18 
REMARK    5  A    between atoms: C_18  and  C_19 
REMARK    6  A    between atoms: C_18  and  C_27 
REMARK    7  A    between atoms: C_19  and  N_20 
REMARK    8  A    between atoms: N_20  and  S_21 
REMARK    9  A    between atoms: S_21  and  C_24 
ROOT
HETATM    1  C   UNL     1      26.546  44.881  50.272  1.00  0.00     0.252 C 
HETATM    2  O   UNL     1      27.595  45.012  49.651  1.00  0.00    -0.268 OA
HETATM    3  N   UNL     1      26.462  44.122  51.419  1.00  0.00    -0.347 N 
HETATM    4  H   UNL     1      25.618  44.090  51.973  1.00  0.00     0.163 HD
ENDROOT
BRANCH   3   5
HETATM    5  C   UNL     1      27.663  43.494  51.986  1.00  0.00     0.132 C 
BRANCH   5   6
HETATM    6  C   UNL     1      27.489  41.947  52.033  1.00  0.00     0.134 C 
BRANCH   6   7
HETATM    7  N   UNL     1      28.032  41.320  50.793  1.00  0.00    -0.217 NA
HETATM    8  H   UNL     1      28.457  40.411  50.990  1.00  0.00     0.139 HD
BRANCH   7   9
HETATM    9  S   UNL     1      26.956  41.139  49.506  1.00  0.00     0.213 S 
HETATM   10  O   UNL     1      25.645  41.407  50.053  1.00  0.00    -0.211 OA
HETATM   11  O   UNL     1      27.481  41.909  48.401  1.00  0.00    -0.211 OA
BRANCH   9  12
HETATM   12  C   UNL     1      27.036  39.400  48.994  1.00  0.00     0.124 A 
HETATM   13  C   UNL     1      26.146  39.052  47.829  1.00  0.00     0.023 A 
HETATM   14  C   UNL     1      27.635  39.155  47.636  1.00  0.00     0.023 A 
ENDBRANCH   9  12
ENDBRANCH   7   9
ENDBRANCH   6   7
ENDBRANCH   5   6
BRANCH   5  15
HETATM   15  C   UNL     1      28.045  44.193  53.290  1.00  0.00    -0.034 A 
HETATM   16  C   UNL     1      29.174  43.849  54.049  1.00  0.00     0.009 A 
HETATM   17  C   UNL     1      29.491  44.539  55.224  1.00  0.00     0.001 A 
HETATM   18  C   UNL     1      28.686  45.586  55.661  1.00  0.00     0.000 A 
HETATM   19  C   UNL     1      27.569  45.954  54.919  1.00  0.00     0.001 A 
HETATM   20  C   UNL     1      27.258  45.272  53.741  1.00  0.00     0.009 A 
ENDBRANCH   5  15
ENDBRANCH   3   5
BRANCH   1  21
HETATM   21  C   UNL     1      25.317  45.595  49.819  1.00  0.00     0.034 A 
HETATM   22  C   UNL     1      25.328  47.000  49.868  1.00  0.00     0.054 A 
HETATM   23  C   UNL     1      24.213  47.748  49.468  1.00  0.00     0.080 A 
HETATM   24  C   UNL     1      23.063  47.079  49.000  1.00  0.00     0.010 A 
HETATM   25  C   UNL     1      23.066  45.673  48.942  1.00  0.00     0.016 A 
HETATM   26  C   UNL     1      24.183  44.934  49.344  1.00  0.00     0.018 A 
BRANCH  23  27
HETATM   27  O   UNL     1      24.162  49.119  49.514  1.00  0.00    -0.355 OA
HETATM   28  C   UNL     1      24.861  49.849  48.514  1.00  0.00     0.210 C 
ENDBRANCH  23  27
BRANCH  24  29
HETATM   29  C   UNL     1      21.878  47.803  48.556  1.00  0.00     0.013 A 
HETATM   30  C   UNL     1      21.060  48.744  49.223  1.00  0.00     0.152 A 
HETATM   31  N   UNL     1      20.054  49.189  48.464  1.00  0.00    -0.187 NA
HETATM   32  N   UNL     1      20.213  48.517  47.313  1.00  0.00    -0.289 N 
HETATM   33  H   UNL     1      19.544  48.679  46.568  1.00  0.00     0.188 HD
HETATM   34  C   UNL     1      21.293  47.681  47.313  1.00  0.00     0.123 A 
ENDBRANCH  24  29
ENDBRANCH   1  21
TORSDOF 9
ENDMDL
MODEL 10
REMARK VINA RESULT:      -8.0     10.671     13.975
REMARK  9 active torsions:
REMARK  status: ('A' for Active; 'I' for Inactive)
REMARK    1  A    between atoms: O_2  and  C_3 
REMARK    2  A    between atoms: C_5  and  C_15 
REMARK    3  A    between atoms: C_8  and  C_9 
REMARK       I    between atoms: C_15  and  N_17 
REMARK    4  A    between atoms: N_17  and  C_18 
REMARK    5  A    between atoms: C_18  and  C_19 
REMARK    6  A    between atoms: C_18  and  C_27 
REMARK    7  A    between atoms: C_19  and  N_20 
REMARK    8  A    between atoms: N_20  and  S_21 
REMARK    9  A    between atoms: S_21  and  C_24 
ROOT
HETATM    1  C   UNL     1      16.049  52.748  49.678  1.00  0.00     0.252 C 
HETATM    2  O   UNL     1      15.140  51.973  49.959  1.00  0.00    -0.268 OA
HETATM    3  N   UNL     1      15.872  54.114  49.670  1.00  0.00    -0.347 N 
HETATM    4  H   UNL     1      16.645  54.747  49.525  1.00  0.00     0.163 HD
ENDROOT
BRANCH   3   5
HETATM    5  C   UNL     1      14.588  54.701  50.075  1.00  0.00     0.132 C 
BRANCH   5   6
HETATM    6  C   UNL     1      13.712  54.995  48.822  1.00  0.00     0.134 C 
BRANCH   6   7
HETATM    7  N   UNL     1      14.565  55.147  47.609  1.00  0.00    -0.217 NA
HETATM    8  H   UNL     1      15.541  54.917  47.808  1.00  0.00     0.139 HD
BRANCH   7   9
HETATM    9  S   UNL     1      14.084  54.293  46.236  1.00  0.00     0.213 S 
HETATM   10  O   UNL     1      12.660  54.094  46.380  1.00  0.00    -0.211 OA
HETATM   11  O   UNL     1      14.635  54.982  45.092  1.00  0.00    -0.211 OA
BRANCH   9  12
HETATM   12  C   UNL     1      14.913  52.680  46.302  1.00  0.00     0.124 A 
HETATM   13  C   UNL     1      14.966  51.952  44.985  1.00  0.00     0.023 A 
HETATM   14  C   UNL     1      16.209  52.589  45.543  1.00  0.00     0.023 A 
ENDBRANCH   9  12
ENDBRANCH   7   9
ENDBRANCH   6   7
ENDBRANCH   5   6
BRANCH   5  15
HETATM   15  C   UNL     1      14.832  55.859  51.043  1.00  0.00    -0.034 A 
HETATM   16  C   UNL     1      14.983  55.689  52.428  1.00  0.00     0.009 A 
HETATM   17  C   UNL     1      15.229  56.781  53.267  1.00  0.00     0.001 A 
HETATM   18  C   UNL     1      15.330  58.063  52.736  1.00  0.00     0.000 A 
HETATM   19  C   UNL     1      15.198  58.255  51.366  1.00  0.00     0.001 A 
HETATM   20  C   UNL     1      14.961  57.164  50.527  1.00  0.00     0.009 A 
ENDBRANCH   5  15
ENDBRANCH   3   5
BRANCH   1  21
HETATM   21  C   UNL     1      17.412  52.220  49.379  1.00  0.00     0.034 A 
HETATM   22  C   UNL     1      17.769  50.986  49.948  1.00  0.00     0.054 A 
HETATM   23  C   UNL     1      19.032  50.422  49.725  1.00  0.00     0.080 A 
HETATM   24  C   UNL     1      19.957  51.103  48.906  1.00  0.00     0.010 A 
HETATM   25  C   UNL     1      19.586  52.331  48.329  1.00  0.00     0.016 A 
HETATM   26  C   UNL     1      18.324  52.887  48.559  1.00  0.00     0.018 A 
BRANCH  23  27
HETATM   27  O   UNL     1      19.440  49.231  50.270  1.00  0.00    -0.355 OA
HETATM   28  C   UNL     1      18.608  48.623  51.250  1.00  0.00     0.210 C 
ENDBRANCH  23  27
BRANCH  24  29
HETATM   29  C   UNL     1      21.281  50.560  48.624  1.00  0.00     0.013 A 
HETATM   30  C   UNL     1      21.715  49.632  47.650  1.00  0.00     0.152 A 
HETATM   31  N   UNL     1      23.028  49.389  47.713  1.00  0.00    -0.187 NA
HETATM   32  N   UNL     1      23.435  50.146  48.743  1.00  0.00    -0.289 N 
HETATM   33  H   UNL     1      24.416  50.118  49.000  1.00  0.00     0.188 HD
HETATM   34  C   UNL     1      22.431  50.872  49.317  1.00  0.00     0.123 A 
ENDBRANCH  24  29
ENDBRANCH   1  21
TORSDOF 9
ENDMDL
