MODEL 1
REMARK VINA RESULT:      -9.6      0.000      0.000
REMARK  2 active torsions:
REMARK  status: ('A' for Active; 'I' for Inactive)
REMARK    1  A    between atoms: C_9  and  C_10 
REMARK       I    between atoms: C_10  and  N_11 
REMARK    2  A    between atoms: N_11  and  C_12 
ROOT
HETATM    1  C   UNL     1      26.386  45.653  52.318  1.00  0.00     0.277 C 
HETATM    2  N   UNL     1      26.491  46.034  50.992  1.00  0.00    -0.322 N 
HETATM    3  O   UNL     1      25.630  46.138  53.152  1.00  0.00    -0.266 OA
HETATM    4  H   UNL     1      27.164  45.476  50.470  1.00  0.00     0.169 HD
ENDROOT
BRANCH   2   5
HETATM    5  C   UNL     1      25.780  47.032  50.308  1.00  0.00     0.037 A 
HETATM    6  C   UNL     1      24.387  47.061  50.204  1.00  0.00     0.062 A 
HETATM    7  C   UNL     1      23.758  48.088  49.494  1.00  0.00     0.070 A 
HETATM    8  C   UNL     1      24.511  49.093  48.884  1.00  0.00     0.096 A 
HETATM    9  N   UNL     1      22.365  48.118  49.425  1.00  0.00    -0.323 N 
HETATM   10  O   UNL     1      23.967  50.145  48.202  1.00  0.00    -0.340 OA
HETATM   11  C   UNL     1      25.897  49.077  48.998  1.00  0.00     0.041 A 
HETATM   12  C   UNL     1      22.593  49.997  47.877  1.00  0.00     0.278 C 
HETATM   13  C   UNL     1      21.702  49.065  48.696  1.00  0.00     0.246 C 
HETATM   14  O   UNL     1      20.475  49.107  48.662  1.00  0.00    -0.271 OA
HETATM   15  C   UNL     1      26.529  48.052  49.707  1.00  0.00     0.032 A 
HETATM   16  H   UNL     1      21.803  47.443  49.927  1.00  0.00     0.169 HD
ENDBRANCH   2   5
BRANCH   1  17
HETATM   17  C   UNL     1      27.304  44.542  52.637  1.00  0.00     0.157 A 
HETATM   18  C   UNL     1      28.262  44.484  53.692  1.00  0.00     0.029 A 
HETATM   19  C   UNL     1      28.679  45.338  54.734  1.00  0.00     0.023 A 
HETATM   20  C   UNL     1      28.862  43.238  53.568  1.00  0.00     0.063 A 
HETATM   21  C   UNL     1      29.681  44.909  55.621  1.00  0.00    -0.061 A 
HETATM   22  C   UNL     1      30.133  45.798  56.744  1.00  0.00     0.048 C 
HETATM   23  C   UNL     1      30.264  43.647  55.456  1.00  0.00     0.009 A 
HETATM   24  C   UNL     1      29.868  42.786  54.426  1.00  0.00     0.032 A 
HETATM   25  N   UNL     1      28.256  42.651  52.493  1.00  0.00    -0.277 N 
HETATM   26  H   UNL     1      28.448  41.733  52.108  1.00  0.00     0.189 HD
HETATM   27  N   UNL     1      27.298  43.400  51.914  1.00  0.00    -0.168 NA
ENDBRANCH   1  17
TORSDOF 2
ENDMDL
MODEL 2
REMARK VINA RESULT:      -9.3      1.429      2.273
REMARK  2 active torsions:
REMARK  status: ('A' for Active; 'I' for Inactive)
REMARK    1  A    between atoms: C_9  and  C_10 
REMARK       I    between atoms: C_10  and  N_11 
REMARK    2  A    between atoms: N_11  and  C_12 
ROOT
HETATM    1  C   UNL     1      27.165  45.092  53.222  1.00  0.00     0.277 C 
HETATM    2  N   UNL     1      27.011  45.058  51.847  1.00  0.00    -0.322 N 
HETATM    3  O   UNL     1      26.463  45.713  54.012  1.00  0.00    -0.266 OA
HETATM    4  H   UNL     1      27.689  44.454  51.386  1.00  0.00     0.169 HD
ENDROOT
BRANCH   2   5
HETATM    5  C   UNL     1      26.047  45.703  51.057  1.00  0.00     0.037 A 
HETATM    6  C   UNL     1      26.240  46.952  50.461  1.00  0.00     0.062 A 
HETATM    7  C   UNL     1      25.222  47.530  49.696  1.00  0.00     0.070 A 
HETATM    8  C   UNL     1      24.005  46.868  49.521  1.00  0.00     0.096 A 
HETATM    9  N   UNL     1      25.443  48.763  49.084  1.00  0.00    -0.323 N 
HETATM   10  O   UNL     1      22.978  47.353  48.762  1.00  0.00    -0.340 OA
HETATM   11  C   UNL     1      23.814  45.617  50.098  1.00  0.00     0.041 A 
HETATM   12  C   UNL     1      23.092  48.724  48.411  1.00  0.00     0.278 C 
HETATM   13  C   UNL     1      24.462  49.400  48.376  1.00  0.00     0.246 C 
HETATM   14  O   UNL     1      24.668  50.471  47.813  1.00  0.00    -0.271 OA
HETATM   15  C   UNL     1      24.830  45.038  50.863  1.00  0.00     0.032 A 
HETATM   16  H   UNL     1      26.345  49.218  49.137  1.00  0.00     0.169 HD
ENDBRANCH   2   5
BRANCH   1  17
HETATM   17  C   UNL     1      28.296  44.255  53.662  1.00  0.00     0.157 A 
HETATM   18  C   UNL     1      29.119  44.442  54.812  1.00  0.00     0.029 A 
HETATM   19  C   UNL     1      29.189  45.371  55.870  1.00  0.00     0.023 A 
HETATM   20  C   UNL     1      30.028  43.393  54.782  1.00  0.00     0.063 A 
HETATM   21  C   UNL     1      30.166  45.212  56.868  1.00  0.00    -0.061 A 
HETATM   22  C   UNL     1      30.253  46.184  58.010  1.00  0.00     0.048 C 
HETATM   23  C   UNL     1      31.068  44.143  56.795  1.00  0.00     0.009 A 
HETATM   24  C   UNL     1      31.019  43.212  55.751  1.00  0.00     0.032 A 
HETATM   25  N   UNL     1      29.711  42.673  53.664  1.00  0.00    -0.277 N 
HETATM   26  H   UNL     1      30.172  41.837  53.325  1.00  0.00     0.189 HD
HETATM   27  N   UNL     1      28.662  43.152  52.970  1.00  0.00    -0.168 NA
ENDBRANCH   1  17
TORSDOF 2
ENDMDL
MODEL 3
REMARK VINA RESULT:      -9.2      2.510      3.137
REMARK  2 active torsions:
REMARK  status: ('A' for Active; 'I' for Inactive)
REMARK    1  A    between atoms: C_9  and  C_10 
REMARK       I    between atoms: C_10  and  N_11 
REMARK    2  A    between atoms: N_11  and  C_12 
ROOT
HETATM    1  C   UNL     1      26.531  46.595  54.026  1.00  0.00     0.277 C 
HETATM    2  N   UNL     1      26.641  46.162  52.715  1.00  0.00    -0.322 N 
HETATM    3  O   UNL     1      25.591  47.222  54.503  1.00  0.00    -0.266 OA
HETATM    4  H   UNL     1      27.494  45.634  52.542  1.00  0.00     0.169 HD
ENDROOT
BRANCH   2   5
HETATM    5  C   UNL     1      25.734  46.330  51.658  1.00  0.00     0.037 A 
HETATM    6  C   UNL     1      24.766  45.386  51.306  1.00  0.00     0.062 A 
HETATM    7  C   UNL     1      23.908  45.629  50.230  1.00  0.00     0.070 A 
HETATM    8  C   UNL     1      24.007  46.812  49.496  1.00  0.00     0.096 A 
HETATM    9  N   UNL     1      22.928  44.688  49.911  1.00  0.00    -0.323 N 
HETATM   10  O   UNL     1      23.184  47.134  48.455  1.00  0.00    -0.340 OA
HETATM   11  C   UNL     1      24.958  47.763  49.853  1.00  0.00     0.041 A 
HETATM   12  C   UNL     1      22.413  46.054  47.949  1.00  0.00     0.278 C 
HETATM   13  C   UNL     1      22.103  44.847  48.833  1.00  0.00     0.246 C 
HETATM   14  O   UNL     1      21.221  44.033  48.573  1.00  0.00    -0.271 OA
HETATM   15  C   UNL     1      25.817  47.523  50.928  1.00  0.00     0.032 A 
HETATM   16  H   UNL     1      22.792  43.863  50.480  1.00  0.00     0.169 HD
ENDBRANCH   2   5
BRANCH   1  17
HETATM   17  C   UNL     1      27.700  46.194  54.830  1.00  0.00     0.157 A 
HETATM   18  C   UNL     1      28.537  45.055  54.636  1.00  0.00     0.029 A 
HETATM   19  C   UNL     1      28.598  43.983  53.723  1.00  0.00     0.023 A 
HETATM   20  C   UNL     1      29.489  45.130  55.645  1.00  0.00     0.063 A 
HETATM   21  C   UNL     1      29.618  43.024  53.848  1.00  0.00    -0.061 A 
HETATM   22  C   UNL     1      29.708  41.879  52.880  1.00  0.00     0.048 C 
HETATM   23  C   UNL     1      30.553  43.134  54.884  1.00  0.00     0.009 A 
HETATM   24  C   UNL     1      30.508  44.188  55.804  1.00  0.00     0.032 A 
HETATM   25  N   UNL     1      29.177  46.258  56.352  1.00  0.00    -0.277 N 
HETATM   26  H   UNL     1      29.661  46.622  57.164  1.00  0.00     0.189 HD
HETATM   27  N   UNL     1      28.115  46.937  55.881  1.00  0.00    -0.168 NA
ENDBRANCH   1  17
TORSDOF 2
ENDMDL
MODEL 4
REMARK VINA RESULT:      -9.1      4.354      7.638
REMARK  2 active torsions:
REMARK  status: ('A' for Active; 'I' for Inactive)
REMARK    1  A    between atoms: C_9  and  C_10 
REMARK       I    between atoms: C_10  and  N_11 
REMARK    2  A    between atoms: N_11  and  C_12 
ROOT
HETATM    1  C   UNL     1      25.879  43.852  51.780  1.00  0.00     0.277 C 
HETATM    2  N   UNL     1      27.113  43.458  51.292  1.00  0.00    -0.322 N 
HETATM    3  O   UNL     1      24.835  43.215  51.705  1.00  0.00    -0.266 OA
HETATM    4  H   UNL     1      27.852  44.130  51.490  1.00  0.00     0.169 HD
ENDROOT
BRANCH   2   5
HETATM    5  C   UNL     1      27.452  42.273  50.619  1.00  0.00     0.037 A 
HETATM    6  C   UNL     1      28.189  41.236  51.196  1.00  0.00     0.062 A 
HETATM    7  C   UNL     1      28.492  40.093  50.450  1.00  0.00     0.070 A 
HETATM    8  C   UNL     1      28.064  39.976  49.126  1.00  0.00     0.096 A 
HETATM    9  N   UNL     1      29.202  39.054  51.050  1.00  0.00    -0.323 N 
HETATM   10  O   UNL     1      28.293  38.878  48.346  1.00  0.00    -0.340 OA
HETATM   11  C   UNL     1      27.316  40.999  48.553  1.00  0.00     0.041 A 
HETATM   12  C   UNL     1      29.268  37.979  48.854  1.00  0.00     0.278 C 
HETATM   13  C   UNL     1      29.577  37.941  50.350  1.00  0.00     0.246 C 
HETATM   14  O   UNL     1      30.175  37.014  50.889  1.00  0.00    -0.271 OA
HETATM   15  C   UNL     1      27.012  42.143  49.296  1.00  0.00     0.032 A 
HETATM   16  H   UNL     1      29.451  39.089  52.030  1.00  0.00     0.169 HD
ENDBRANCH   2   5
BRANCH   1  17
HETATM   17  C   UNL     1      25.954  45.167  52.444  1.00  0.00     0.157 A 
HETATM   18  C   UNL     1      26.857  45.570  53.472  1.00  0.00     0.029 A 
HETATM   19  C   UNL     1      27.916  44.973  54.185  1.00  0.00     0.023 A 
HETATM   20  C   UNL     1      26.524  46.890  53.750  1.00  0.00     0.063 A 
HETATM   21  C   UNL     1      28.611  45.722  55.151  1.00  0.00    -0.061 A 
HETATM   22  C   UNL     1      29.748  45.109  55.915  1.00  0.00     0.048 C 
HETATM   23  C   UNL     1      28.237  47.047  55.405  1.00  0.00     0.009 A 
HETATM   24  C   UNL     1      27.185  47.658  54.711  1.00  0.00     0.032 A 
HETATM   25  N   UNL     1      25.485  47.183  52.912  1.00  0.00    -0.277 N 
HETATM   26  H   UNL     1      24.985  48.062  52.843  1.00  0.00     0.189 HD
HETATM   27  N   UNL     1      25.122  46.176  52.097  1.00  0.00    -0.168 NA
ENDBRANCH   1  17
TORSDOF 2
ENDMDL
MODEL 5
REMARK VINA RESULT:      -9.1      5.102      6.862
REMARK  2 active torsions:
REMARK  status: ('A' for Active; 'I' for Inactive)
REMARK    1  A    between atoms: C_9  and  C_10 
REMARK       I    between atoms: C_10  and  N_11 
REMARK    2  A    between atoms: N_11  and  C_12 
ROOT
HETATM    1  C   UNL     1      28.454  43.591  52.779  1.00  0.00     0.277 C 
HETATM    2  N   UNL     1      27.188  43.170  52.411  1.00  0.00    -0.322 N 
HETATM    3  O   UNL     1      29.508  43.262  52.247  1.00  0.00    -0.266 OA
HETATM    4  H   UNL     1      26.450  43.592  52.973  1.00  0.00     0.169 HD
ENDROOT
BRANCH   2   5
HETATM    5  C   UNL     1      26.821  42.296  51.377  1.00  0.00     0.037 A 
HETATM    6  C   UNL     1      27.214  40.957  51.315  1.00  0.00     0.062 A 
HETATM    7  C   UNL     1      26.813  40.157  50.241  1.00  0.00     0.070 A 
HETATM    8  C   UNL     1      26.017  40.684  49.222  1.00  0.00     0.096 A 
HETATM    9  N   UNL     1      27.190  38.814  50.210  1.00  0.00    -0.323 N 
HETATM   10  O   UNL     1      25.559  39.958  48.160  1.00  0.00    -0.340 OA
HETATM   11  C   UNL     1      25.609  42.013  49.288  1.00  0.00     0.041 A 
HETATM   12  C   UNL     1      26.196  38.702  47.978  1.00  0.00     0.278 C 
HETATM   13  C   UNL     1      26.875  38.003  49.156  1.00  0.00     0.246 C 
HETATM   14  O   UNL     1      27.182  36.814  49.145  1.00  0.00    -0.271 OA
HETATM   15  C   UNL     1      26.009  42.815  50.360  1.00  0.00     0.032 A 
HETATM   16  H   UNL     1      27.699  38.398  50.978  1.00  0.00     0.169 HD
ENDBRANCH   2   5
BRANCH   1  17
HETATM   17  C   UNL     1      28.405  44.532  53.914  1.00  0.00     0.157 A 
HETATM   18  C   UNL     1      29.252  44.554  55.061  1.00  0.00     0.029 A 
HETATM   19  C   UNL     1      30.345  43.798  55.531  1.00  0.00     0.023 A 
HETATM   20  C   UNL     1      28.803  45.625  55.823  1.00  0.00     0.063 A 
HETATM   21  C   UNL     1      30.956  44.145  56.748  1.00  0.00    -0.061 A 
HETATM   22  C   UNL     1      32.127  43.360  57.263  1.00  0.00     0.048 C 
HETATM   23  C   UNL     1      30.466  45.229  57.488  1.00  0.00     0.009 A 
HETATM   24  C   UNL     1      29.379  45.990  57.042  1.00  0.00     0.032 A 
HETATM   25  N   UNL     1      27.758  46.155  55.118  1.00  0.00    -0.277 N 
HETATM   26  H   UNL     1      27.186  46.950  55.380  1.00  0.00     0.189 HD
HETATM   27  N   UNL     1      27.497  45.534  53.953  1.00  0.00    -0.168 NA
ENDBRANCH   1  17
TORSDOF 2
ENDMDL
MODEL 6
REMARK VINA RESULT:      -8.8      1.615      2.169
REMARK  2 active torsions:
REMARK  status: ('A' for Active; 'I' for Inactive)
REMARK    1  A    between atoms: C_9  and  C_10 
REMARK       I    between atoms: C_10  and  N_11 
REMARK    2  A    between atoms: N_11  and  C_12 
ROOT
HETATM    1  C   UNL     1      25.519  44.069  51.469  1.00  0.00     0.277 C 
HETATM    2  N   UNL     1      25.527  44.714  50.244  1.00  0.00    -0.322 N 
HETATM    3  O   UNL     1      24.610  44.089  52.291  1.00  0.00    -0.266 OA
HETATM    4  H   UNL     1      26.373  44.538  49.707  1.00  0.00     0.169 HD
ENDROOT
BRANCH   2   5
HETATM    5  C   UNL     1      24.528  45.518  49.671  1.00  0.00     0.037 A 
HETATM    6  C   UNL     1      24.321  46.858  50.007  1.00  0.00     0.062 A 
HETATM    7  C   UNL     1      23.295  47.584  49.395  1.00  0.00     0.070 A 
HETATM    8  C   UNL     1      22.469  46.981  48.445  1.00  0.00     0.096 A 
HETATM    9  N   UNL     1      23.122  48.929  49.720  1.00  0.00    -0.323 N 
HETATM   10  O   UNL     1      21.469  47.633  47.781  1.00  0.00    -0.340 OA
HETATM   11  C   UNL     1      22.682  45.651  48.095  1.00  0.00     0.041 A 
HETATM   12  C   UNL     1      21.105  48.887  48.338  1.00  0.00     0.278 C 
HETATM   13  C   UNL     1      22.098  49.668  49.197  1.00  0.00     0.246 C 
HETATM   14  O   UNL     1      21.966  50.860  49.461  1.00  0.00    -0.271 OA
HETATM   15  C   UNL     1      23.706  44.923  48.705  1.00  0.00     0.032 A 
HETATM   16  H   UNL     1      23.760  49.401  50.347  1.00  0.00     0.169 HD
ENDBRANCH   2   5
BRANCH   1  17
HETATM   17  C   UNL     1      26.763  43.306  51.687  1.00  0.00     0.157 A 
HETATM   18  C   UNL     1      27.756  43.532  52.685  1.00  0.00     0.029 A 
HETATM   19  C   UNL     1      27.945  44.446  53.741  1.00  0.00     0.023 A 
HETATM   20  C   UNL     1      28.714  42.549  52.472  1.00  0.00     0.063 A 
HETATM   21  C   UNL     1      29.087  44.340  54.554  1.00  0.00    -0.061 A 
HETATM   22  C   UNL     1      29.303  45.297  55.690  1.00  0.00     0.048 C 
HETATM   23  C   UNL     1      30.032  43.338  54.299  1.00  0.00     0.009 A 
HETATM   24  C   UNL     1      29.865  42.423  53.253  1.00  0.00     0.032 A 
HETATM   25  N   UNL     1      28.258  41.827  51.404  1.00  0.00    -0.277 N 
HETATM   26  H   UNL     1      28.709  41.031  50.969  1.00  0.00     0.189 HD
HETATM   27  N   UNL     1      27.076  42.242  50.913  1.00  0.00    -0.168 NA
ENDBRANCH   1  17
TORSDOF 2
ENDMDL
MODEL 7
REMARK VINA RESULT:      -8.7      3.294      8.698
REMARK  2 active torsions:
REMARK  status: ('A' for Active; 'I' for Inactive)
REMARK    1  A    between atoms: C_9  and  C_10 
REMARK       I    between atoms: C_10  and  N_11 
REMARK    2  A    between atoms: N_11  and  C_12 
ROOT
HETATM    1  C   UNL     1      25.479  44.700  52.518  1.00  0.00     0.277 C 
HETATM    2  N   UNL     1      26.847  44.893  52.437  1.00  0.00    -0.322 N 
HETATM    3  O   UNL     1      24.879  44.152  53.436  1.00  0.00    -0.266 OA
HETATM    4  H   UNL     1      27.129  45.398  51.599  1.00  0.00     0.169 HD
ENDROOT
BRANCH   2   5
HETATM    5  C   UNL     1      27.841  44.519  53.356  1.00  0.00     0.037 A 
HETATM    6  C   UNL     1      28.188  45.278  54.477  1.00  0.00     0.062 A 
HETATM    7  C   UNL     1      29.198  44.836  55.336  1.00  0.00     0.070 A 
HETATM    8  C   UNL     1      29.869  43.638  55.086  1.00  0.00     0.096 A 
HETATM    9  N   UNL     1      29.512  45.591  56.467  1.00  0.00    -0.323 N 
HETATM   10  O   UNL     1      30.843  43.127  55.897  1.00  0.00    -0.340 OA
HETATM   11  C   UNL     1      29.516  42.871  53.981  1.00  0.00     0.041 A 
HETATM   12  C   UNL     1      31.362  44.040  56.852  1.00  0.00     0.278 C 
HETATM   13  C   UNL     1      30.530  45.238  57.307  1.00  0.00     0.246 C 
HETATM   14  O   UNL     1      30.784  45.887  58.318  1.00  0.00    -0.271 OA
HETATM   15  C   UNL     1      28.506  43.310  53.120  1.00  0.00     0.032 A 
HETATM   16  H   UNL     1      28.982  46.420  56.704  1.00  0.00     0.169 HD
ENDBRANCH   2   5
BRANCH   1  17
HETATM   17  C   UNL     1      24.782  45.263  51.346  1.00  0.00     0.157 A 
HETATM   18  C   UNL     1      24.139  44.548  50.293  1.00  0.00     0.029 A 
HETATM   19  C   UNL     1      23.922  43.193  49.970  1.00  0.00     0.023 A 
HETATM   20  C   UNL     1      23.637  45.526  49.444  1.00  0.00     0.063 A 
HETATM   21  C   UNL     1      23.201  42.864  48.810  1.00  0.00    -0.061 A 
HETATM   22  C   UNL     1      22.948  41.428  48.452  1.00  0.00     0.048 C 
HETATM   23  C   UNL     1      22.718  43.883  47.978  1.00  0.00     0.009 A 
HETATM   24  C   UNL     1      22.927  45.234  48.277  1.00  0.00     0.032 A 
HETATM   25  N   UNL     1      23.996  46.716  50.014  1.00  0.00    -0.277 N 
HETATM   26  H   UNL     1      23.799  47.646  49.662  1.00  0.00     0.189 HD
HETATM   27  N   UNL     1      24.674  46.600  51.171  1.00  0.00    -0.168 NA
ENDBRANCH   1  17
TORSDOF 2
ENDMDL
MODEL 8
REMARK VINA RESULT:      -8.7      2.437      8.508
REMARK  2 active torsions:
REMARK  status: ('A' for Active; 'I' for Inactive)
REMARK    1  A    between atoms: C_9  and  C_10 
REMARK       I    between atoms: C_10  and  N_11 
REMARK    2  A    between atoms: N_11  and  C_12 
ROOT
HETATM    1  C   UNL     1      25.739  46.327  51.334  1.00  0.00     0.277 C 
HETATM    2  N   UNL     1      26.042  45.149  51.994  1.00  0.00    -0.322 N 
HETATM    3  O   UNL     1      26.357  47.382  51.419  1.00  0.00    -0.266 OA
HETATM    4  H   UNL     1      25.412  44.386  51.754  1.00  0.00     0.169 HD
ENDROOT
BRANCH   2   5
HETATM    5  C   UNL     1      27.093  44.890  52.888  1.00  0.00     0.037 A 
HETATM    6  C   UNL     1      27.268  45.567  54.098  1.00  0.00     0.062 A 
HETATM    7  C   UNL     1      28.350  45.254  54.926  1.00  0.00     0.070 A 
HETATM    8  C   UNL     1      29.264  44.267  54.556  1.00  0.00     0.096 A 
HETATM    9  N   UNL     1      28.493  45.919  56.144  1.00  0.00    -0.323 N 
HETATM   10  O   UNL     1      30.325  43.883  55.326  1.00  0.00    -0.340 OA
HETATM   11  C   UNL     1      29.085  43.578  53.360  1.00  0.00     0.041 A 
HETATM   12  C   UNL     1      30.635  44.766  56.394  1.00  0.00     0.278 C 
HETATM   13  C   UNL     1      29.563  45.695  56.963  1.00  0.00     0.246 C 
HETATM   14  O   UNL     1      29.672  46.259  58.049  1.00  0.00    -0.271 OA
HETATM   15  C   UNL     1      28.004  43.889  52.530  1.00  0.00     0.032 A 
HETATM   16  H   UNL     1      27.797  46.580  56.462  1.00  0.00     0.169 HD
ENDBRANCH   2   5
BRANCH   1  17
HETATM   17  C   UNL     1      24.558  46.173  50.464  1.00  0.00     0.157 A 
HETATM   18  C   UNL     1      23.957  47.165  49.633  1.00  0.00     0.029 A 
HETATM   19  C   UNL     1      24.202  48.519  49.328  1.00  0.00     0.023 A 
HETATM   20  C   UNL     1      22.887  46.524  49.021  1.00  0.00     0.063 A 
HETATM   21  C   UNL     1      23.369  49.185  48.413  1.00  0.00    -0.061 A 
HETATM   22  C   UNL     1      23.618  50.624  48.065  1.00  0.00     0.048 C 
HETATM   23  C   UNL     1      22.296  48.503  47.824  1.00  0.00     0.009 A 
HETATM   24  C   UNL     1      22.033  47.159  48.116  1.00  0.00     0.032 A 
HETATM   25  N   UNL     1      22.909  45.245  49.503  1.00  0.00    -0.277 N 
HETATM   26  H   UNL     1      22.267  44.495  49.274  1.00  0.00     0.189 HD
HETATM   27  N   UNL     1      23.912  44.989  50.363  1.00  0.00    -0.168 NA
ENDBRANCH   1  17
TORSDOF 2
ENDMDL
MODEL 9
REMARK VINA RESULT:      -8.6      4.926      8.473
REMARK  2 active torsions:
REMARK  status: ('A' for Active; 'I' for Inactive)
REMARK    1  A    between atoms: C_9  and  C_10 
REMARK       I    between atoms: C_10  and  N_11 
REMARK    2  A    between atoms: N_11  and  C_12 
ROOT
HETATM    1  C   UNL     1      27.402  43.051  51.051  1.00  0.00     0.277 C 
HETATM    2  N   UNL     1      27.641  42.660  52.357  1.00  0.00    -0.322 N 
HETATM    3  O   UNL     1      27.664  44.146  50.564  1.00  0.00    -0.266 OA
HETATM    4  H   UNL     1      27.370  41.696  52.539  1.00  0.00     0.169 HD
ENDROOT
BRANCH   2   5
HETATM    5  C   UNL     1      28.221  43.399  53.400  1.00  0.00     0.037 A 
HETATM    6  C   UNL     1      29.270  42.928  54.195  1.00  0.00     0.062 A 
HETATM    7  C   UNL     1      29.783  43.726  55.222  1.00  0.00     0.070 A 
HETATM    8  C   UNL     1      29.256  44.995  55.465  1.00  0.00     0.096 A 
HETATM    9  N   UNL     1      30.849  43.253  55.987  1.00  0.00    -0.323 N 
HETATM   10  O   UNL     1      29.725  45.844  56.427  1.00  0.00    -0.340 OA
HETATM   11  C   UNL     1      28.222  45.475  54.666  1.00  0.00     0.041 A 
HETATM   12  C   UNL     1      30.583  45.241  57.385  1.00  0.00     0.278 C 
HETATM   13  C   UNL     1      31.350  43.965  57.040  1.00  0.00     0.246 C 
HETATM   14  O   UNL     1      32.308  43.561  57.693  1.00  0.00    -0.271 OA
HETATM   15  C   UNL     1      27.707  44.679  53.639  1.00  0.00     0.032 A 
HETATM   16  H   UNL     1      31.293  42.370  55.773  1.00  0.00     0.169 HD
ENDBRANCH   2   5
BRANCH   1  17
HETATM   17  C   UNL     1      26.790  41.965  50.263  1.00  0.00     0.157 A 
HETATM   18  C   UNL     1      27.332  40.672  50.001  1.00  0.00     0.029 A 
HETATM   19  C   UNL     1      28.511  39.977  50.338  1.00  0.00     0.023 A 
HETATM   20  C   UNL     1      26.376  40.029  49.224  1.00  0.00     0.063 A 
HETATM   21  C   UNL     1      28.689  38.657  49.890  1.00  0.00    -0.061 A 
HETATM   22  C   UNL     1      29.933  37.895  50.246  1.00  0.00     0.048 C 
HETATM   23  C   UNL     1      27.703  38.049  49.103  1.00  0.00     0.009 A 
HETATM   24  C   UNL     1      26.527  38.723  48.753  1.00  0.00     0.032 A 
HETATM   25  N   UNL     1      25.365  40.937  49.073  1.00  0.00    -0.277 N 
HETATM   26  H   UNL     1      24.501  40.810  48.558  1.00  0.00     0.189 HD
HETATM   27  N   UNL     1      25.570  42.111  49.698  1.00  0.00    -0.168 NA
ENDBRANCH   1  17
TORSDOF 2
ENDMDL
MODEL 10
REMARK VINA RESULT:      -8.2      4.012      6.416
REMARK  2 active torsions:
REMARK  status: ('A' for Active; 'I' for Inactive)
REMARK    1  A    between atoms: C_9  and  C_10 
REMARK       I    between atoms: C_10  and  N_11 
REMARK    2  A    between atoms: N_11  and  C_12 
ROOT
HETATM    1  C   UNL     1      23.337  49.169  48.489  1.00  0.00     0.277 C 
HETATM    2  N   UNL     1      22.238  49.156  49.331  1.00  0.00    -0.322 N 
HETATM    3  O   UNL     1      23.385  49.672  47.372  1.00  0.00    -0.266 OA
HETATM    4  H   UNL     1      22.429  48.708  50.226  1.00  0.00     0.169 HD
ENDROOT
BRANCH   2   5
HETATM    5  C   UNL     1      20.962  49.699  49.115  1.00  0.00     0.037 A 
HETATM    6  C   UNL     1      19.817  48.928  48.899  1.00  0.00     0.062 A 
HETATM    7  C   UNL     1      18.584  49.550  48.681  1.00  0.00     0.070 A 
HETATM    8  C   UNL     1      18.483  50.943  48.675  1.00  0.00     0.096 A 
HETATM    9  N   UNL     1      17.445  48.766  48.497  1.00  0.00    -0.323 N 
HETATM   10  O   UNL     1      17.310  51.621  48.502  1.00  0.00    -0.340 OA
HETATM   11  C   UNL     1      19.618  51.714  48.906  1.00  0.00     0.041 A 
HETATM   12  C   UNL     1      16.235  50.834  48.012  1.00  0.00     0.278 C 
HETATM   13  C   UNL     1      16.227  49.320  48.221  1.00  0.00     0.246 C 
HETATM   14  O   UNL     1      15.221  48.630  48.090  1.00  0.00    -0.271 OA
HETATM   15  C   UNL     1      20.851  51.095  49.124  1.00  0.00     0.032 A 
HETATM   16  H   UNL     1      17.488  47.758  48.576  1.00  0.00     0.169 HD
ENDBRANCH   2   5
BRANCH   1  17
HETATM   17  C   UNL     1      24.500  48.503  49.105  1.00  0.00     0.157 A 
HETATM   18  C   UNL     1      24.588  47.154  49.559  1.00  0.00     0.029 A 
HETATM   19  C   UNL     1      23.727  46.039  49.603  1.00  0.00     0.023 A 
HETATM   20  C   UNL     1      25.881  47.020  50.048  1.00  0.00     0.063 A 
HETATM   21  C   UNL     1      24.194  44.823  50.131  1.00  0.00    -0.061 A 
HETATM   22  C   UNL     1      23.297  43.620  50.178  1.00  0.00     0.048 C 
HETATM   23  C   UNL     1      25.503  44.734  50.620  1.00  0.00     0.009 A 
HETATM   24  C   UNL     1      26.373  45.830  50.589  1.00  0.00     0.032 A 
HETATM   25  N   UNL     1      26.463  48.244  49.867  1.00  0.00    -0.277 N 
HETATM   26  H   UNL     1      27.409  48.513  50.115  1.00  0.00     0.189 HD
HETATM   27  N   UNL     1      25.668  49.161  49.286  1.00  0.00    -0.168 NA
ENDBRANCH   1  17
TORSDOF 2
ENDMDL
