MODEL 1
REMARK VINA RESULT:      -8.9      0.000      0.000
REMARK  6 active torsions:
REMARK  status: ('A' for Active; 'I' for Inactive)
REMARK    1  A    between atoms: C_4  and  C_5 
REMARK    2  A    between atoms: C_7  and  N_8 
REMARK       I    between atoms: N_8  and  C_9 
REMARK    3  A    between atoms: C_9  and  C_10 
REMARK    4  A    between atoms: C_10  and  N_11 
REMARK    5  A    between atoms: N_11  and  C_14 
REMARK    6  A    between atoms: C_20  and  C_21 
REMARK       I    between atoms: C_21  and  N_22 
ROOT
HETATM    1  C   UNL     1      28.784  45.409  55.338  1.00  0.00     0.018 A 
HETATM    2  S   UNL     1      28.309  44.664  53.873  1.00  0.00    -0.071 SA
HETATM    3  C   UNL     1      27.121  45.830  53.567  1.00  0.00     0.093 A 
HETATM    4  C   UNL     1      27.056  46.807  54.553  1.00  0.00     0.067 A 
HETATM    5  C   UNL     1      28.038  46.550  55.571  1.00  0.00     0.039 A 
ENDROOT
BRANCH   3   6
HETATM    6  N   UNL     1      26.318  45.781  52.434  1.00  0.00    -0.319 N 
HETATM    7  C   UNL     1      25.186  45.024  52.248  1.00  0.00     0.248 C 
HETATM    8  O   UNL     1      24.643  44.241  53.025  1.00  0.00    -0.271 OA
HETATM    9  H   UNL     1      26.634  46.417  51.696  1.00  0.00     0.169 HD
BRANCH   7  10
HETATM   10  C   UNL     1      24.529  45.227  50.883  1.00  0.00     0.335 C 
BRANCH  10  11
HETATM   11  N   UNL     1      24.092  46.670  50.754  1.00  0.00    -0.063 N 
HETATM   12  H   UNL     1      23.056  46.645  50.755  1.00  0.00     0.278 HD
HETATM   13  H   UNL     1      24.305  47.151  51.640  1.00  0.00     0.278 HD
BRANCH  11  14
HETATM   14  C   UNL     1      24.597  47.420  49.587  1.00  0.00     0.186 C 
HETATM   15  C   UNL     1      23.771  48.677  49.367  1.00  0.00     0.033 C 
HETATM   16  C   UNL     1      24.673  49.519  48.475  1.00  0.00     0.002 C 
HETATM   17  C   UNL     1      26.101  49.182  48.906  1.00  0.00     0.002 C 
HETATM   18  C   UNL     1      26.000  47.960  49.821  1.00  0.00     0.033 C 
ENDBRANCH  11  14
ENDBRANCH  10  11
ENDBRANCH   7  10
ENDBRANCH   3   6
BRANCH   4  19
HETATM   19  C   UNL     1      26.089  47.902  54.483  1.00  0.00     0.252 C 
HETATM   20  N   UNL     1      26.077  48.787  55.516  1.00  0.00    -0.366 N 
HETATM   21  H   UNL     1      26.668  48.718  56.331  1.00  0.00     0.159 HD
HETATM   22  H   UNL     1      25.402  49.540  55.489  1.00  0.00     0.159 HD
HETATM   23  O   UNL     1      25.310  48.021  53.537  1.00  0.00    -0.268 OA
ENDBRANCH   4  19
BRANCH   1  24
HETATM   24  C   UNL     1      29.873  44.844  56.145  1.00  0.00    -0.019 A 
HETATM   25  C   UNL     1      30.200  45.417  57.383  1.00  0.00     0.013 A 
HETATM   26  C   UNL     1      31.225  44.884  58.169  1.00  0.00     0.001 A 
HETATM   27  C   UNL     1      31.933  43.768  57.730  1.00  0.00     0.000 A 
HETATM   28  C   UNL     1      31.617  43.184  56.506  1.00  0.00     0.001 A 
HETATM   29  C   UNL     1      30.593  43.718  55.718  1.00  0.00     0.013 A 
ENDBRANCH   1  24
TORSDOF 6
ENDMDL
MODEL 2
REMARK VINA RESULT:      -8.8      1.985      3.081
REMARK  6 active torsions:
REMARK  status: ('A' for Active; 'I' for Inactive)
REMARK    1  A    between atoms: C_4  and  C_5 
REMARK    2  A    between atoms: C_7  and  N_8 
REMARK       I    between atoms: N_8  and  C_9 
REMARK    3  A    between atoms: C_9  and  C_10 
REMARK    4  A    between atoms: C_10  and  N_11 
REMARK    5  A    between atoms: N_11  and  C_14 
REMARK    6  A    between atoms: C_20  and  C_21 
REMARK       I    between atoms: C_21  and  N_22 
ROOT
HETATM    1  C   UNL     1      29.124  43.949  54.575  1.00  0.00     0.018 A 
HETATM    2  S   UNL     1      28.160  45.212  53.943  1.00  0.00    -0.071 SA
HETATM    3  C   UNL     1      27.559  44.242  52.693  1.00  0.00     0.093 A 
HETATM    4  C   UNL     1      28.063  42.949  52.723  1.00  0.00     0.067 A 
HETATM    5  C   UNL     1      28.966  42.794  53.831  1.00  0.00     0.039 A 
ENDROOT
BRANCH   3   6
HETATM    6  N   UNL     1      26.653  44.728  51.757  1.00  0.00    -0.319 N 
HETATM    7  C   UNL     1      25.296  44.880  51.914  1.00  0.00     0.248 C 
HETATM    8  O   UNL     1      24.597  44.629  52.895  1.00  0.00    -0.271 OA
HETATM    9  H   UNL     1      27.101  45.013  50.882  1.00  0.00     0.169 HD
BRANCH   7  10
HETATM   10  C   UNL     1      24.598  45.465  50.687  1.00  0.00     0.335 C 
BRANCH  10  11
HETATM   11  N   UNL     1      24.728  46.973  50.714  1.00  0.00    -0.063 N 
HETATM   12  H   UNL     1      23.760  47.331  50.802  1.00  0.00     0.278 HD
HETATM   13  H   UNL     1      25.149  47.242  51.616  1.00  0.00     0.278 HD
BRANCH  11  14
HETATM   14  C   UNL     1      25.419  47.604  49.574  1.00  0.00     0.186 C 
HETATM   15  C   UNL     1      24.725  48.900  49.186  1.00  0.00     0.033 C 
HETATM   16  C   UNL     1      25.785  49.614  48.359  1.00  0.00     0.002 C 
HETATM   17  C   UNL     1      27.124  49.205  48.974  1.00  0.00     0.002 C 
HETATM   18  C   UNL     1      26.824  48.058  49.941  1.00  0.00     0.033 C 
ENDBRANCH  11  14
ENDBRANCH  10  11
ENDBRANCH   7  10
ENDBRANCH   3   6
BRANCH   4  19
HETATM   19  C   UNL     1      27.676  41.953  51.724  1.00  0.00     0.252 C 
HETATM   20  N   UNL     1      27.159  40.781  52.183  1.00  0.00    -0.366 N 
HETATM   21  H   UNL     1      27.053  40.549  53.159  1.00  0.00     0.159 HD
HETATM   22  H   UNL     1      26.902  40.076  51.503  1.00  0.00     0.159 HD
HETATM   23  O   UNL     1      27.818  42.154  50.518  1.00  0.00    -0.268 OA
ENDBRANCH   4  19
BRANCH   1  24
HETATM   24  C   UNL     1      29.947  44.164  55.772  1.00  0.00    -0.019 A 
HETATM   25  C   UNL     1      29.737  45.296  56.574  1.00  0.00     0.013 A 
HETATM   26  C   UNL     1      30.502  45.509  57.724  1.00  0.00     0.001 A 
HETATM   27  C   UNL     1      31.483  44.591  58.090  1.00  0.00     0.000 A 
HETATM   28  C   UNL     1      31.700  43.459  57.307  1.00  0.00     0.001 A 
HETATM   29  C   UNL     1      30.936  43.247  56.156  1.00  0.00     0.013 A 
ENDBRANCH   1  24
TORSDOF 6
ENDMDL
MODEL 3
REMARK VINA RESULT:      -8.4      2.308      3.709
REMARK  6 active torsions:
REMARK  status: ('A' for Active; 'I' for Inactive)
REMARK    1  A    between atoms: C_4  and  C_5 
REMARK    2  A    between atoms: C_7  and  N_8 
REMARK       I    between atoms: N_8  and  C_9 
REMARK    3  A    between atoms: C_9  and  C_10 
REMARK    4  A    between atoms: C_10  and  N_11 
REMARK    5  A    between atoms: N_11  and  C_14 
REMARK    6  A    between atoms: C_20  and  C_21 
REMARK       I    between atoms: C_21  and  N_22 
ROOT
HETATM    1  C   UNL     1      28.035  44.097  53.528  1.00  0.00     0.018 A 
HETATM    2  S   UNL     1      26.947  45.366  53.169  1.00  0.00    -0.071 SA
HETATM    3  C   UNL     1      26.212  44.495  51.917  1.00  0.00     0.093 A 
HETATM    4  C   UNL     1      26.762  43.232  51.743  1.00  0.00     0.067 A 
HETATM    5  C   UNL     1      27.816  43.014  52.695  1.00  0.00     0.039 A 
ENDROOT
BRANCH   3   6
HETATM    6  N   UNL     1      25.166  45.024  51.169  1.00  0.00    -0.319 N 
HETATM    7  C   UNL     1      25.252  45.955  50.162  1.00  0.00     0.248 C 
HETATM    8  O   UNL     1      26.250  46.514  49.707  1.00  0.00    -0.271 OA
HETATM    9  H   UNL     1      24.258  44.623  51.418  1.00  0.00     0.169 HD
BRANCH   7  10
HETATM   10  C   UNL     1      23.905  46.303  49.531  1.00  0.00     0.335 C 
BRANCH  10  11
HETATM   11  N   UNL     1      23.511  47.705  49.945  1.00  0.00    -0.063 N 
HETATM   12  H   UNL     1      22.742  47.584  50.629  1.00  0.00     0.278 HD
HETATM   13  H   UNL     1      24.269  48.093  50.526  1.00  0.00     0.278 HD
BRANCH  11  14
HETATM   14  C   UNL     1      23.115  48.633  48.868  1.00  0.00     0.186 C 
HETATM   15  C   UNL     1      22.071  49.616  49.374  1.00  0.00     0.033 C 
HETATM   16  C   UNL     1      22.127  50.729  48.338  1.00  0.00     0.002 C 
HETATM   17  C   UNL     1      23.586  50.786  47.881  1.00  0.00     0.002 C 
HETATM   18  C   UNL     1      24.264  49.534  48.442  1.00  0.00     0.033 C 
ENDBRANCH  11  14
ENDBRANCH  10  11
ENDBRANCH   7  10
ENDBRANCH   3   6
BRANCH   4  19
HETATM   19  C   UNL     1      26.276  42.322  50.707  1.00  0.00     0.252 C 
HETATM   20  N   UNL     1      25.979  41.049  51.086  1.00  0.00    -0.366 N 
HETATM   21  H   UNL     1      26.101  40.692  52.022  1.00  0.00     0.159 HD
HETATM   22  H   UNL     1      25.658  40.403  50.376  1.00  0.00     0.159 HD
HETATM   23  O   UNL     1      26.144  42.680  49.536  1.00  0.00    -0.268 OA
ENDBRANCH   4  19
BRANCH   1  24
HETATM   24  C   UNL     1      29.010  44.234  54.618  1.00  0.00    -0.019 A 
HETATM   25  C   UNL     1      29.954  43.221  54.846  1.00  0.00     0.013 A 
HETATM   26  C   UNL     1      30.897  43.342  55.871  1.00  0.00     0.001 A 
HETATM   27  C   UNL     1      30.911  44.478  56.677  1.00  0.00     0.000 A 
HETATM   28  C   UNL     1      29.983  45.494  56.459  1.00  0.00     0.001 A 
HETATM   29  C   UNL     1      29.039  45.373  55.436  1.00  0.00     0.013 A 
ENDBRANCH   1  24
TORSDOF 6
ENDMDL
MODEL 4
REMARK VINA RESULT:      -8.2      4.646      6.062
REMARK  6 active torsions:
REMARK  status: ('A' for Active; 'I' for Inactive)
REMARK    1  A    between atoms: C_4  and  C_5 
REMARK    2  A    between atoms: C_7  and  N_8 
REMARK       I    between atoms: N_8  and  C_9 
REMARK    3  A    between atoms: C_9  and  C_10 
REMARK    4  A    between atoms: C_10  and  N_11 
REMARK    5  A    between atoms: N_11  and  C_14 
REMARK    6  A    between atoms: C_20  and  C_21 
REMARK       I    between atoms: C_21  and  N_22 
ROOT
HETATM    1  C   UNL     1      28.436  43.715  53.997  1.00  0.00     0.018 A 
HETATM    2  S   UNL     1      28.380  42.142  53.327  1.00  0.00    -0.071 SA
HETATM    3  C   UNL     1      27.118  42.544  52.274  1.00  0.00     0.093 A 
HETATM    4  C   UNL     1      26.713  43.866  52.396  1.00  0.00     0.067 A 
HETATM    5  C   UNL     1      27.498  44.536  53.398  1.00  0.00     0.039 A 
ENDROOT
BRANCH   3   6
HETATM    6  N   UNL     1      26.576  41.618  51.391  1.00  0.00    -0.319 N 
HETATM    7  C   UNL     1      26.701  41.601  50.022  1.00  0.00     0.248 C 
HETATM    8  O   UNL     1      27.307  42.382  49.290  1.00  0.00    -0.271 OA
HETATM    9  H   UNL     1      26.058  40.873  51.865  1.00  0.00     0.169 HD
BRANCH   7  10
HETATM   10  C   UNL     1      25.992  40.423  49.355  1.00  0.00     0.335 C 
BRANCH  10  11
HETATM   11  N   UNL     1      26.327  39.153  50.109  1.00  0.00    -0.063 N 
HETATM   12  H   UNL     1      26.639  39.464  51.046  1.00  0.00     0.278 HD
HETATM   13  H   UNL     1      25.445  38.661  50.318  1.00  0.00     0.278 HD
BRANCH  11  14
HETATM   14  C   UNL     1      27.324  38.255  49.494  1.00  0.00     0.186 C 
HETATM   15  C   UNL     1      27.445  38.538  48.005  1.00  0.00     0.033 C 
HETATM   16  C   UNL     1      28.776  37.892  47.648  1.00  0.00     0.002 C 
HETATM   17  C   UNL     1      29.653  38.054  48.890  1.00  0.00     0.002 C 
HETATM   18  C   UNL     1      28.728  38.523  50.015  1.00  0.00     0.033 C 
ENDBRANCH  11  14
ENDBRANCH  10  11
ENDBRANCH   7  10
ENDBRANCH   3   6
BRANCH   4  19
HETATM   19  C   UNL     1      25.628  44.413  51.581  1.00  0.00     0.252 C 
HETATM   20  N   UNL     1      25.979  45.151  50.493  1.00  0.00    -0.366 N 
HETATM   21  H   UNL     1      26.930  45.364  50.234  1.00  0.00     0.159 HD
HETATM   22  H   UNL     1      25.239  45.549  49.930  1.00  0.00     0.159 HD
HETATM   23  O   UNL     1      24.445  44.225  51.865  1.00  0.00    -0.268 OA
ENDBRANCH   4  19
BRANCH   1  24
HETATM   24  C   UNL     1      29.413  44.049  55.042  1.00  0.00    -0.019 A 
HETATM   25  C   UNL     1      29.348  45.290  55.693  1.00  0.00     0.013 A 
HETATM   26  C   UNL     1      30.262  45.618  56.698  1.00  0.00     0.001 A 
HETATM   27  C   UNL     1      31.248  44.707  57.069  1.00  0.00     0.000 A 
HETATM   28  C   UNL     1      31.323  43.470  56.436  1.00  0.00     0.001 A 
HETATM   29  C   UNL     1      30.411  43.141  55.429  1.00  0.00     0.013 A 
ENDBRANCH   1  24
TORSDOF 6
ENDMDL
MODEL 5
REMARK VINA RESULT:      -8.1      2.729      7.861
REMARK  6 active torsions:
REMARK  status: ('A' for Active; 'I' for Inactive)
REMARK    1  A    between atoms: C_4  and  C_5 
REMARK    2  A    between atoms: C_7  and  N_8 
REMARK       I    between atoms: N_8  and  C_9 
REMARK    3  A    between atoms: C_9  and  C_10 
REMARK    4  A    between atoms: C_10  and  N_11 
REMARK    5  A    between atoms: N_11  and  C_14 
REMARK    6  A    between atoms: C_20  and  C_21 
REMARK       I    between atoms: C_21  and  N_22 
ROOT
HETATM    1  C   UNL     1      25.085  47.036  50.292  1.00  0.00     0.018 A 
HETATM    2  S   UNL     1      25.911  45.695  49.626  1.00  0.00    -0.071 SA
HETATM    3  C   UNL     1      26.064  44.934  51.129  1.00  0.00     0.093 A 
HETATM    4  C   UNL     1      25.495  45.664  52.165  1.00  0.00     0.067 A 
HETATM    5  C   UNL     1      24.922  46.881  51.657  1.00  0.00     0.039 A 
ENDROOT
BRANCH   3   6
HETATM    6  N   UNL     1      26.696  43.704  51.270  1.00  0.00    -0.319 N 
HETATM    7  C   UNL     1      26.145  42.459  51.077  1.00  0.00     0.248 C 
HETATM    8  O   UNL     1      24.999  42.163  50.744  1.00  0.00    -0.271 OA
HETATM    9  H   UNL     1      27.685  43.792  51.519  1.00  0.00     0.169 HD
BRANCH   7  10
HETATM   10  C   UNL     1      27.131  41.312  51.296  1.00  0.00     0.335 C 
BRANCH  10  11
HETATM   11  N   UNL     1      27.196  40.991  52.774  1.00  0.00    -0.063 N 
HETATM   12  H   UNL     1      26.331  41.390  53.181  1.00  0.00     0.278 HD
HETATM   13  H   UNL     1      27.052  39.977  52.890  1.00  0.00     0.278 HD
BRANCH  11  14
HETATM   14  C   UNL     1      28.386  41.464  53.508  1.00  0.00     0.186 C 
HETATM   15  C   UNL     1      29.463  41.916  52.535  1.00  0.00     0.033 C 
HETATM   16  C   UNL     1      30.372  42.765  53.411  1.00  0.00     0.002 C 
HETATM   17  C   UNL     1      29.450  43.421  54.440  1.00  0.00     0.002 C 
HETATM   18  C   UNL     1      28.096  42.720  54.315  1.00  0.00     0.033 C 
ENDBRANCH  11  14
ENDBRANCH  10  11
ENDBRANCH   7  10
ENDBRANCH   3   6
BRANCH   4  19
HETATM   19  C   UNL     1      25.527  45.187  53.546  1.00  0.00     0.252 C 
HETATM   20  N   UNL     1      26.301  45.878  54.426  1.00  0.00    -0.366 N 
HETATM   21  H   UNL     1      26.870  46.674  54.178  1.00  0.00     0.159 HD
HETATM   22  H   UNL     1      26.346  45.549  55.382  1.00  0.00     0.159 HD
HETATM   23  O   UNL     1      24.890  44.196  53.906  1.00  0.00    -0.268 OA
ENDBRANCH   4  19
BRANCH   1  24
HETATM   24  C   UNL     1      24.626  48.134  49.432  1.00  0.00    -0.019 A 
HETATM   25  C   UNL     1      23.258  48.286  49.157  1.00  0.00     0.013 A 
HETATM   26  C   UNL     1      22.803  49.333  48.351  1.00  0.00     0.001 A 
HETATM   27  C   UNL     1      23.708  50.245  47.815  1.00  0.00     0.000 A 
HETATM   28  C   UNL     1      25.068  50.111  48.082  1.00  0.00     0.001 A 
HETATM   29  C   UNL     1      25.525  49.063  48.887  1.00  0.00     0.013 A 
ENDBRANCH   1  24
TORSDOF 6
ENDMDL
MODEL 6
REMARK VINA RESULT:      -8.1      4.203      6.613
REMARK  6 active torsions:
REMARK  status: ('A' for Active; 'I' for Inactive)
REMARK    1  A    between atoms: C_4  and  C_5 
REMARK    2  A    between atoms: C_7  and  N_8 
REMARK       I    between atoms: N_8  and  C_9 
REMARK    3  A    between atoms: C_9  and  C_10 
REMARK    4  A    between atoms: C_10  and  N_11 
REMARK    5  A    between atoms: N_11  and  C_14 
REMARK    6  A    between atoms: C_20  and  C_21 
REMARK       I    between atoms: C_21  and  N_22 
ROOT
HETATM    1  C   UNL     1      25.953  46.936  50.736  1.00  0.00     0.018 A 
HETATM    2  S   UNL     1      24.304  47.086  50.307  1.00  0.00    -0.071 SA
HETATM    3  C   UNL     1      24.609  48.369  49.246  1.00  0.00     0.093 A 
HETATM    4  C   UNL     1      25.953  48.711  49.184  1.00  0.00     0.067 A 
HETATM    5  C   UNL     1      26.722  47.861  50.052  1.00  0.00     0.039 A 
ENDROOT
BRANCH   3   6
HETATM    6  N   UNL     1      23.591  48.984  48.527  1.00  0.00    -0.319 N 
HETATM    7  C   UNL     1      22.741  49.971  48.966  1.00  0.00     0.248 C 
HETATM    8  O   UNL     1      22.693  50.518  50.067  1.00  0.00    -0.271 OA
HETATM    9  H   UNL     1      23.527  48.648  47.562  1.00  0.00     0.169 HD
BRANCH   7  10
HETATM   10  C   UNL     1      21.746  50.442  47.905  1.00  0.00     0.335 C 
BRANCH  10  11
HETATM   11  N   UNL     1      20.882  51.538  48.489  1.00  0.00    -0.063 N 
HETATM   12  H   UNL     1      21.316  51.776  49.400  1.00  0.00     0.278 HD
HETATM   13  H   UNL     1      21.033  52.396  47.938  1.00  0.00     0.278 HD
BRANCH  11  14
HETATM   14  C   UNL     1      19.446  51.239  48.656  1.00  0.00     0.186 C 
HETATM   15  C   UNL     1      18.935  51.811  49.968  1.00  0.00     0.033 C 
HETATM   16  C   UNL     1      17.427  51.824  49.764  1.00  0.00     0.002 C 
HETATM   17  C   UNL     1      17.221  52.095  48.272  1.00  0.00     0.002 C 
HETATM   18  C   UNL     1      18.593  51.945  47.612  1.00  0.00     0.033 C 
ENDBRANCH  11  14
ENDBRANCH  10  11
ENDBRANCH   7  10
ENDBRANCH   3   6
BRANCH   4  19
HETATM   19  C   UNL     1      26.427  49.801  48.332  1.00  0.00     0.252 C 
HETATM   20  N   UNL     1      27.586  50.414  48.694  1.00  0.00    -0.366 N 
HETATM   21  H   UNL     1      28.118  50.183  49.520  1.00  0.00     0.159 HD
HETATM   22  H   UNL     1      27.918  51.181  48.123  1.00  0.00     0.159 HD
HETATM   23  O   UNL     1      25.805  50.162  47.332  1.00  0.00    -0.268 OA
ENDBRANCH   4  19
BRANCH   1  24
HETATM   24  C   UNL     1      26.388  45.907  51.688  1.00  0.00    -0.019 A 
HETATM   25  C   UNL     1      26.853  44.669  51.220  1.00  0.00     0.013 A 
HETATM   26  C   UNL     1      27.282  43.683  52.113  1.00  0.00     0.001 A 
HETATM   27  C   UNL     1      27.259  43.925  53.484  1.00  0.00     0.000 A 
HETATM   28  C   UNL     1      26.805  45.151  53.964  1.00  0.00     0.001 A 
HETATM   29  C   UNL     1      26.374  46.137  53.072  1.00  0.00     0.013 A 
ENDBRANCH   1  24
TORSDOF 6
ENDMDL
MODEL 7
REMARK VINA RESULT:      -7.8      4.194      5.711
REMARK  6 active torsions:
REMARK  status: ('A' for Active; 'I' for Inactive)
REMARK    1  A    between atoms: C_4  and  C_5 
REMARK    2  A    between atoms: C_7  and  N_8 
REMARK       I    between atoms: N_8  and  C_9 
REMARK    3  A    between atoms: C_9  and  C_10 
REMARK    4  A    between atoms: C_10  and  N_11 
REMARK    5  A    between atoms: N_11  and  C_14 
REMARK    6  A    between atoms: C_20  and  C_21 
REMARK       I    between atoms: C_21  and  N_22 
ROOT
HETATM    1  C   UNL     1      29.002  44.459  54.657  1.00  0.00     0.018 A 
HETATM    2  S   UNL     1      29.320  43.312  53.429  1.00  0.00    -0.071 SA
HETATM    3  C   UNL     1      28.016  43.835  52.485  1.00  0.00     0.093 A 
HETATM    4  C   UNL     1      27.315  44.884  53.066  1.00  0.00     0.067 A 
HETATM    5  C   UNL     1      27.909  45.240  54.326  1.00  0.00     0.039 A 
ENDROOT
BRANCH   3   6
HETATM    6  N   UNL     1      27.715  43.251  51.260  1.00  0.00    -0.319 N 
HETATM    7  C   UNL     1      27.330  41.951  51.030  1.00  0.00     0.248 C 
HETATM    8  O   UNL     1      27.168  41.038  51.838  1.00  0.00    -0.271 OA
HETATM    9  H   UNL     1      27.777  43.911  50.480  1.00  0.00     0.169 HD
BRANCH   7  10
HETATM   10  C   UNL     1      27.054  41.644  49.559  1.00  0.00     0.335 C 
BRANCH  10  11
HETATM   11  N   UNL     1      28.249  40.924  48.971  1.00  0.00    -0.063 N 
HETATM   12  H   UNL     1      28.434  41.391  48.065  1.00  0.00     0.278 HD
HETATM   13  H   UNL     1      29.081  41.176  49.526  1.00  0.00     0.278 HD
BRANCH  11  14
HETATM   14  C   UNL     1      28.129  39.464  48.794  1.00  0.00     0.186 C 
HETATM   15  C   UNL     1      28.929  38.734  49.861  1.00  0.00     0.033 C 
HETATM   16  C   UNL     1      28.340  37.331  49.820  1.00  0.00     0.002 C 
HETATM   17  C   UNL     1      26.865  37.519  49.464  1.00  0.00     0.002 C 
HETATM   18  C   UNL     1      26.707  38.978  49.031  1.00  0.00     0.033 C 
ENDBRANCH  11  14
ENDBRANCH  10  11
ENDBRANCH   7  10
ENDBRANCH   3   6
BRANCH   4  19
HETATM   19  C   UNL     1      26.147  45.476  52.416  1.00  0.00     0.252 C 
HETATM   20  N   UNL     1      26.021  46.829  52.476  1.00  0.00    -0.366 N 
HETATM   21  H   UNL     1      26.663  47.439  52.961  1.00  0.00     0.159 HD
HETATM   22  H   UNL     1      25.209  47.252  52.045  1.00  0.00     0.159 HD
HETATM   23  O   UNL     1      25.303  44.786  51.843  1.00  0.00    -0.268 OA
ENDBRANCH   4  19
BRANCH   1  24
HETATM   24  C   UNL     1      29.859  44.539  55.846  1.00  0.00    -0.019 A 
HETATM   25  C   UNL     1      30.844  43.564  56.069  1.00  0.00     0.013 A 
HETATM   26  C   UNL     1      31.677  43.632  57.189  1.00  0.00     0.001 A 
HETATM   27  C   UNL     1      31.541  44.678  58.097  1.00  0.00     0.000 A 
HETATM   28  C   UNL     1      30.572  45.657  57.888  1.00  0.00     0.001 A 
HETATM   29  C   UNL     1      29.737  45.588  56.769  1.00  0.00     0.013 A 
ENDBRANCH   1  24
TORSDOF 6
ENDMDL
MODEL 8
REMARK VINA RESULT:      -7.8      3.067      4.341
REMARK  6 active torsions:
REMARK  status: ('A' for Active; 'I' for Inactive)
REMARK    1  A    between atoms: C_4  and  C_5 
REMARK    2  A    between atoms: C_7  and  N_8 
REMARK       I    between atoms: N_8  and  C_9 
REMARK    3  A    between atoms: C_9  and  C_10 
REMARK    4  A    between atoms: C_10  and  N_11 
REMARK    5  A    between atoms: N_11  and  C_14 
REMARK    6  A    between atoms: C_20  and  C_21 
REMARK       I    between atoms: C_21  and  N_22 
ROOT
HETATM    1  C   UNL     1      28.703  44.976  54.828  1.00  0.00     0.018 A 
HETATM    2  S   UNL     1      28.221  43.818  53.666  1.00  0.00    -0.071 SA
HETATM    3  C   UNL     1      27.120  44.878  52.940  1.00  0.00     0.093 A 
HETATM    4  C   UNL     1      27.092  46.127  53.548  1.00  0.00     0.067 A 
HETATM    5  C   UNL     1      28.027  46.168  54.640  1.00  0.00     0.039 A 
ENDROOT
BRANCH   3   6
HETATM    6  N   UNL     1      26.348  44.502  51.848  1.00  0.00    -0.319 N 
HETATM    7  C   UNL     1      26.701  44.556  50.520  1.00  0.00     0.248 C 
HETATM    8  O   UNL     1      27.755  44.939  50.015  1.00  0.00    -0.271 OA
HETATM    9  H   UNL     1      25.435  44.125  52.118  1.00  0.00     0.169 HD
BRANCH   7  10
HETATM   10  C   UNL     1      25.616  44.041  49.575  1.00  0.00     0.335 C 
BRANCH  10  11
HETATM   11  N   UNL     1      26.160  42.865  48.792  1.00  0.00    -0.063 N 
HETATM   12  H   UNL     1      25.469  42.691  48.040  1.00  0.00     0.278 HD
HETATM   13  H   UNL     1      26.988  43.184  48.266  1.00  0.00     0.278 HD
BRANCH  11  14
HETATM   14  C   UNL     1      26.434  41.628  49.549  1.00  0.00     0.186 C 
HETATM   15  C   UNL     1      25.778  40.436  48.870  1.00  0.00     0.033 C 
HETATM   16  C   UNL     1      26.517  39.254  49.480  1.00  0.00     0.002 C 
HETATM   17  C   UNL     1      27.942  39.750  49.733  1.00  0.00     0.002 C 
HETATM   18  C   UNL     1      27.912  41.267  49.534  1.00  0.00     0.033 C 
ENDBRANCH  11  14
ENDBRANCH  10  11
ENDBRANCH   7  10
ENDBRANCH   3   6
BRANCH   4  19
HETATM   19  C   UNL     1      26.201  47.187  53.079  1.00  0.00     0.252 C 
HETATM   20  N   UNL     1      25.487  47.861  54.021  1.00  0.00    -0.366 N 
HETATM   21  H   UNL     1      25.514  47.657  55.009  1.00  0.00     0.159 HD
HETATM   22  H   UNL     1      24.853  48.586  53.709  1.00  0.00     0.159 HD
HETATM   23  O   UNL     1      26.088  47.459  51.883  1.00  0.00    -0.268 OA
ENDBRANCH   4  19
BRANCH   1  24
HETATM   24  C   UNL     1      29.731  44.652  55.825  1.00  0.00    -0.019 A 
HETATM   25  C   UNL     1      30.563  43.538  55.639  1.00  0.00     0.013 A 
HETATM   26  C   UNL     1      31.555  43.223  56.572  1.00  0.00     0.001 A 
HETATM   27  C   UNL     1      31.731  44.021  57.700  1.00  0.00     0.000 A 
HETATM   28  C   UNL     1      30.917  45.133  57.896  1.00  0.00     0.001 A 
HETATM   29  C   UNL     1      29.924  45.448  56.964  1.00  0.00     0.013 A 
ENDBRANCH   1  24
TORSDOF 6
ENDMDL
MODEL 9
REMARK VINA RESULT:      -7.7      2.793      3.959
REMARK  6 active torsions:
REMARK  status: ('A' for Active; 'I' for Inactive)
REMARK    1  A    between atoms: C_4  and  C_5 
REMARK    2  A    between atoms: C_7  and  N_8 
REMARK       I    between atoms: N_8  and  C_9 
REMARK    3  A    between atoms: C_9  and  C_10 
REMARK    4  A    between atoms: C_10  and  N_11 
REMARK    5  A    between atoms: N_11  and  C_14 
REMARK    6  A    between atoms: C_20  and  C_21 
REMARK       I    between atoms: C_21  and  N_22 
ROOT
HETATM    1  C   UNL     1      28.958  44.312  54.733  1.00  0.00     0.018 A 
HETATM    2  S   UNL     1      29.320  43.380  53.345  1.00  0.00    -0.071 SA
HETATM    3  C   UNL     1      27.881  43.817  52.571  1.00  0.00     0.093 A 
HETATM    4  C   UNL     1      27.098  44.676  53.331  1.00  0.00     0.067 A 
HETATM    5  C   UNL     1      27.745  44.960  54.583  1.00  0.00     0.039 A 
ENDROOT
BRANCH   3   6
HETATM    6  N   UNL     1      27.557  43.348  51.303  1.00  0.00    -0.319 N 
HETATM    7  C   UNL     1      27.508  42.038  50.888  1.00  0.00     0.248 C 
HETATM    8  O   UNL     1      27.733  41.014  51.531  1.00  0.00    -0.271 OA
HETATM    9  H   UNL     1      27.310  44.099  50.653  1.00  0.00     0.169 HD
BRANCH   7  10
HETATM   10  C   UNL     1      27.092  41.873  49.427  1.00  0.00     0.335 C 
BRANCH  10  11
HETATM   11  N   UNL     1      26.402  43.137  48.962  1.00  0.00    -0.063 N 
HETATM   12  H   UNL     1      26.536  43.821  49.728  1.00  0.00     0.278 HD
HETATM   13  H   UNL     1      26.960  43.545  48.197  1.00  0.00     0.278 HD
BRANCH  11  14
HETATM   14  C   UNL     1      24.975  43.025  48.602  1.00  0.00     0.186 C 
HETATM   15  C   UNL     1      24.509  41.584  48.728  1.00  0.00     0.033 C 
HETATM   16  C   UNL     1      22.995  41.724  48.780  1.00  0.00     0.002 C 
HETATM   17  C   UNL     1      22.733  43.049  49.499  1.00  0.00     0.002 C 
HETATM   18  C   UNL     1      24.081  43.767  49.585  1.00  0.00     0.033 C 
ENDBRANCH  11  14
ENDBRANCH  10  11
ENDBRANCH   7  10
ENDBRANCH   3   6
BRANCH   4  19
HETATM   19  C   UNL     1      25.808  45.167  52.846  1.00  0.00     0.252 C 
HETATM   20  N   UNL     1      25.758  46.453  52.405  1.00  0.00    -0.366 N 
HETATM   21  H   UNL     1      26.541  47.090  52.419  1.00  0.00     0.159 HD
HETATM   22  H   UNL     1      24.868  46.811  52.083  1.00  0.00     0.159 HD
HETATM   23  O   UNL     1      24.803  44.456  52.842  1.00  0.00    -0.268 OA
ENDBRANCH   4  19
BRANCH   1  24
HETATM   24  C   UNL     1      29.896  44.371  55.860  1.00  0.00    -0.019 A 
HETATM   25  C   UNL     1      30.854  43.359  56.030  1.00  0.00     0.013 A 
HETATM   26  C   UNL     1      31.763  43.407  57.091  1.00  0.00     0.001 A 
HETATM   27  C   UNL     1      31.730  44.468  57.991  1.00  0.00     0.000 A 
HETATM   28  C   UNL     1      30.790  45.483  57.833  1.00  0.00     0.001 A 
HETATM   29  C   UNL     1      29.879  45.435  56.773  1.00  0.00     0.013 A 
ENDBRANCH   1  24
TORSDOF 6
ENDMDL
MODEL 10
REMARK VINA RESULT:      -7.7      3.701      5.613
REMARK  6 active torsions:
REMARK  status: ('A' for Active; 'I' for Inactive)
REMARK    1  A    between atoms: C_4  and  C_5 
REMARK    2  A    between atoms: C_7  and  N_8 
REMARK       I    between atoms: N_8  and  C_9 
REMARK    3  A    between atoms: C_9  and  C_10 
REMARK    4  A    between atoms: C_10  and  N_11 
REMARK    5  A    between atoms: N_11  and  C_14 
REMARK    6  A    between atoms: C_20  and  C_21 
REMARK       I    between atoms: C_21  and  N_22 
ROOT
HETATM    1  C   UNL     1      26.274  45.966  51.087  1.00  0.00     0.018 A 
HETATM    2  S   UNL     1      24.569  46.095  51.117  1.00  0.00    -0.071 SA
HETATM    3  C   UNL     1      24.572  47.485  50.151  1.00  0.00     0.093 A 
HETATM    4  C   UNL     1      25.850  47.881  49.779  1.00  0.00     0.067 A 
HETATM    5  C   UNL     1      26.828  46.980  50.326  1.00  0.00     0.039 A 
ENDROOT
BRANCH   3   6
HETATM    6  N   UNL     1      23.395  48.129  49.787  1.00  0.00    -0.319 N 
HETATM    7  C   UNL     1      22.514  47.757  48.800  1.00  0.00     0.248 C 
HETATM    8  O   UNL     1      22.568  46.793  48.037  1.00  0.00    -0.271 OA
HETATM    9  H   UNL     1      23.196  48.949  50.366  1.00  0.00     0.169 HD
BRANCH   7  10
HETATM   10  C   UNL     1      21.303  48.681  48.677  1.00  0.00     0.335 C 
BRANCH  10  11
HETATM   11  N   UNL     1      21.158  49.479  49.955  1.00  0.00    -0.063 N 
HETATM   12  H   UNL     1      20.626  48.868  50.602  1.00  0.00     0.278 HD
HETATM   13  H   UNL     1      22.083  49.532  50.408  1.00  0.00     0.278 HD
BRANCH  11  14
HETATM   14  C   UNL     1      20.523  50.806  49.846  1.00  0.00     0.186 C 
HETATM   15  C   UNL     1      20.480  51.254  48.394  1.00  0.00     0.033 C 
HETATM   16  C   UNL     1      19.429  52.355  48.413  1.00  0.00     0.002 C 
HETATM   17  C   UNL     1      18.419  51.935  49.482  1.00  0.00     0.002 C 
HETATM   18  C   UNL     1      19.054  50.769  50.243  1.00  0.00     0.033 C 
ENDBRANCH  11  14
ENDBRANCH  10  11
ENDBRANCH   7  10
ENDBRANCH   3   6
BRANCH   4  19
HETATM   19  C   UNL     1      26.073  49.065  48.951  1.00  0.00     0.252 C 
HETATM   20  N   UNL     1      27.333  49.263  48.475  1.00  0.00    -0.366 N 
HETATM   21  H   UNL     1      28.118  48.663  48.680  1.00  0.00     0.159 HD
HETATM   22  H   UNL     1      27.506  50.087  47.914  1.00  0.00     0.159 HD
HETATM   23  O   UNL     1      25.168  49.860  48.696  1.00  0.00    -0.268 OA
ENDBRANCH   4  19
BRANCH   1  24
HETATM   24  C   UNL     1      26.953  44.866  51.783  1.00  0.00    -0.019 A 
HETATM   25  C   UNL     1      27.074  44.888  53.181  1.00  0.00     0.013 A 
HETATM   26  C   UNL     1      27.705  43.843  53.860  1.00  0.00     0.001 A 
HETATM   27  C   UNL     1      28.219  42.760  53.152  1.00  0.00     0.000 A 
HETATM   28  C   UNL     1      28.102  42.720  51.765  1.00  0.00     0.001 A 
HETATM   29  C   UNL     1      27.472  43.766  51.084  1.00  0.00     0.013 A 
ENDBRANCH   1  24
TORSDOF 6
ENDMDL
