MODEL 1
REMARK VINA RESULT:      -8.9      0.000      0.000
REMARK  10 active torsions:
REMARK  status: ('A' for Active; 'I' for Inactive)
REMARK    1  A    between atoms: O_2  and  C_3 
REMARK    2  A    between atoms: C_6  and  N_7 
REMARK       I    between atoms: N_7  and  C_8 
REMARK    3  A    between atoms: C_8  and  C_9 
REMARK    4  A    between atoms: C_9  and  C_10 
REMARK    5  A    between atoms: N_11  and  C_12 
REMARK    6  A    between atoms: C_12  and  C_13 
REMARK    7  A    between atoms: C_13  and  C_14 
REMARK    8  A    between atoms: C_16  and  O_17 
REMARK    9  A    between atoms: C_19  and  O_20 
REMARK   10  A    between atoms: N_26  and  C_27 
ROOT
HETATM    1  C   UNL     1      23.625  44.902  49.937  1.00  0.00     0.190 C 
HETATM    2  N   UNL     1      24.544  45.545  50.858  1.00  0.00    -0.319 N 
HETATM    3  C   UNL     1      24.694  46.898  50.562  1.00  0.00     0.332 C 
HETATM    4  O   UNL     1      25.600  47.571  51.033  1.00  0.00    -0.246 OA
HETATM    5  N   UNL     1      23.719  47.264  49.654  1.00  0.00    -0.232 N 
HETATM    6  C   UNL     1      23.046  46.133  49.235  1.00  0.00     0.256 C 
HETATM    7  O   UNL     1      22.161  46.037  48.392  1.00  0.00    -0.270 OA
ENDROOT
BRANCH   1   8
HETATM    8  C   UNL     1      24.329  44.017  48.908  1.00  0.00     0.138 C 
BRANCH   8   9
HETATM    9  C   UNL     1      23.549  42.755  48.635  1.00  0.00     0.224 C 
HETATM   10  N   UNL     1      24.143  41.530  48.737  1.00  0.00    -0.327 N 
HETATM   11  H   UNL     1      23.530  40.810  48.370  1.00  0.00     0.169 HD
HETATM   12  O   UNL     1      22.357  42.793  48.320  1.00  0.00    -0.273 OA
BRANCH  10  13
HETATM   13  C   UNL     1      25.362  41.079  49.276  1.00  0.00     0.034 A 
HETATM   14  C   UNL     1      25.823  41.337  50.565  1.00  0.00     0.032 A 
HETATM   15  C   UNL     1      27.026  40.778  51.016  1.00  0.00     0.039 A 
HETATM   16  C   UNL     1      27.782  39.943  50.197  1.00  0.00     0.068 A 
HETATM   17  C   UNL     1      27.339  39.688  48.905  1.00  0.00     0.039 A 
HETATM   18  C   UNL     1      26.134  40.245  48.454  1.00  0.00     0.032 A 
BRANCH  16  19
HETATM   19  O   UNL     1      28.918  39.448  50.774  1.00  0.00    -0.356 OA
HETATM   20  C   UNL     1      29.455  38.259  50.205  1.00  0.00     0.210 C 
ENDBRANCH  16  19
ENDBRANCH  10  13
ENDBRANCH   8   9
ENDBRANCH   1   8
BRANCH   2  21
HETATM   21  C   UNL     1      25.526  44.795  51.631  1.00  0.00     0.133 C 
BRANCH  21  22
HETATM   22  C   UNL     1      25.249  44.761  53.139  1.00  0.00     0.058 C 
BRANCH  22  23
HETATM   23  C   UNL     1      26.525  45.001  53.912  1.00  0.00    -0.054 A 
HETATM   24  C   UNL     1      27.565  44.061  53.898  1.00  0.00     0.046 A 
HETATM   25  C   UNL     1      28.771  44.321  54.564  1.00  0.00     0.102 A 
HETATM   26  C   UNL     1      28.944  45.543  55.246  1.00  0.00     0.101 A 
HETATM   27  C   UNL     1      27.901  46.474  55.263  1.00  0.00     0.040 A 
HETATM   28  C   UNL     1      26.703  46.206  54.599  1.00  0.00     0.010 A 
BRANCH  25  29
HETATM   29  O   UNL     1      29.843  43.462  54.590  1.00  0.00    -0.353 OA
HETATM   30  C   UNL     1      30.216  42.833  53.373  1.00  0.00     0.210 C 
ENDBRANCH  25  29
BRANCH  26  31
HETATM   31  O   UNL     1      30.158  45.727  55.860  1.00  0.00    -0.353 OA
HETATM   32  C   UNL     1      30.167  45.841  57.276  1.00  0.00     0.210 C 
ENDBRANCH  26  31
ENDBRANCH  22  23
ENDBRANCH  21  22
ENDBRANCH   2  21
BRANCH   5  33
HETATM   33  C   UNL     1      23.495  48.596  49.173  1.00  0.00     0.047 A 
HETATM   34  C   UNL     1      24.433  49.252  48.356  1.00  0.00     0.030 A 
HETATM   35  C   UNL     1      24.220  50.555  47.885  1.00  0.00     0.002 A 
HETATM   36  C   UNL     1      23.064  51.242  48.225  1.00  0.00     0.000 A 
HETATM   37  C   UNL     1      22.122  50.625  49.037  1.00  0.00     0.002 A 
HETATM   38  C   UNL     1      22.338  49.322  49.504  1.00  0.00     0.030 A 
ENDBRANCH   5  33
TORSDOF 10
ENDMDL
MODEL 2
REMARK VINA RESULT:      -8.7      2.297      8.162
REMARK  10 active torsions:
REMARK  status: ('A' for Active; 'I' for Inactive)
REMARK    1  A    between atoms: O_2  and  C_3 
REMARK    2  A    between atoms: C_6  and  N_7 
REMARK       I    between atoms: N_7  and  C_8 
REMARK    3  A    between atoms: C_8  and  C_9 
REMARK    4  A    between atoms: C_9  and  C_10 
REMARK    5  A    between atoms: N_11  and  C_12 
REMARK    6  A    between atoms: C_12  and  C_13 
REMARK    7  A    between atoms: C_13  and  C_14 
REMARK    8  A    between atoms: C_16  and  O_17 
REMARK    9  A    between atoms: C_19  and  O_20 
REMARK   10  A    between atoms: N_26  and  C_27 
ROOT
HETATM    1  C   UNL     1      25.681  46.948  52.078  1.00  0.00     0.190 C 
HETATM    2  N   UNL     1      26.048  47.043  50.677  1.00  0.00    -0.319 N 
HETATM    3  C   UNL     1      26.341  45.790  50.145  1.00  0.00     0.332 C 
HETATM    4  O   UNL     1      26.914  45.657  49.072  1.00  0.00    -0.246 OA
HETATM    5  N   UNL     1      25.934  44.820  51.040  1.00  0.00    -0.232 N 
HETATM    6  C   UNL     1      25.532  45.430  52.212  1.00  0.00     0.256 C 
HETATM    7  O   UNL     1      25.165  44.909  53.260  1.00  0.00    -0.270 OA
ENDROOT
BRANCH   1   8
HETATM    8  C   UNL     1      26.783  47.434  53.020  1.00  0.00     0.138 C 
BRANCH   8   9
HETATM    9  C   UNL     1      26.286  47.557  54.439  1.00  0.00     0.224 C 
HETATM   10  N   UNL     1      26.840  46.814  55.441  1.00  0.00    -0.327 N 
HETATM   11  H   UNL     1      26.288  46.900  56.289  1.00  0.00     0.169 HD
HETATM   12  O   UNL     1      25.374  48.333  54.734  1.00  0.00    -0.273 OA
BRANCH  10  13
HETATM   13  C   UNL     1      28.002  46.027  55.545  1.00  0.00     0.034 A 
HETATM   14  C   UNL     1      29.022  46.209  56.476  1.00  0.00     0.032 A 
HETATM   15  C   UNL     1      30.104  45.321  56.530  1.00  0.00     0.039 A 
HETATM   16  C   UNL     1      30.181  44.230  55.667  1.00  0.00     0.068 A 
HETATM   17  C   UNL     1      29.175  44.045  54.725  1.00  0.00     0.039 A 
HETATM   18  C   UNL     1      28.092  44.933  54.673  1.00  0.00     0.032 A 
BRANCH  16  19
HETATM   19  O   UNL     1      31.276  43.432  55.846  1.00  0.00    -0.356 OA
HETATM   20  C   UNL     1      31.822  43.385  57.159  1.00  0.00     0.210 C 
ENDBRANCH  16  19
ENDBRANCH  10  13
ENDBRANCH   8   9
ENDBRANCH   1   8
BRANCH   2  21
HETATM   21  C   UNL     1      26.521  48.285  50.077  1.00  0.00     0.133 C 
BRANCH  21  22
HETATM   22  C   UNL     1      25.982  48.548  48.666  1.00  0.00     0.058 C 
BRANCH  22  23
HETATM   23  C   UNL     1      24.562  49.057  48.733  1.00  0.00    -0.054 A 
HETATM   24  C   UNL     1      23.484  48.173  48.883  1.00  0.00     0.046 A 
HETATM   25  C   UNL     1      22.175  48.658  49.012  1.00  0.00     0.102 A 
HETATM   26  C   UNL     1      21.941  50.049  48.999  1.00  0.00     0.101 A 
HETATM   27  C   UNL     1      23.018  50.927  48.842  1.00  0.00     0.040 A 
HETATM   28  C   UNL     1      24.317  50.434  48.713  1.00  0.00     0.010 A 
BRANCH  25  29
HETATM   29  O   UNL     1      21.066  47.864  49.174  1.00  0.00    -0.353 OA
HETATM   30  C   UNL     1      20.758  46.940  48.142  1.00  0.00     0.210 C 
ENDBRANCH  25  29
BRANCH  26  31
HETATM   31  O   UNL     1      20.634  50.444  49.144  1.00  0.00    -0.353 OA
HETATM   32  C   UNL     1      20.271  51.717  48.629  1.00  0.00     0.210 C 
ENDBRANCH  26  31
ENDBRANCH  22  23
ENDBRANCH  21  22
ENDBRANCH   2  21
BRANCH   5  33
HETATM   33  C   UNL     1      25.989  43.406  50.810  1.00  0.00     0.047 A 
HETATM   34  C   UNL     1      25.073  42.762  49.960  1.00  0.00     0.030 A 
HETATM   35  C   UNL     1      25.120  41.379  49.733  1.00  0.00     0.002 A 
HETATM   36  C   UNL     1      26.084  40.600  50.357  1.00  0.00     0.000 A 
HETATM   37  C   UNL     1      26.998  41.205  51.209  1.00  0.00     0.002 A 
HETATM   38  C   UNL     1      26.948  42.588  51.432  1.00  0.00     0.030 A 
ENDBRANCH   5  33
TORSDOF 10
ENDMDL
MODEL 3
REMARK VINA RESULT:      -8.7      1.366      2.254
REMARK  10 active torsions:
REMARK  status: ('A' for Active; 'I' for Inactive)
REMARK    1  A    between atoms: O_2  and  C_3 
REMARK    2  A    between atoms: C_6  and  N_7 
REMARK       I    between atoms: N_7  and  C_8 
REMARK    3  A    between atoms: C_8  and  C_9 
REMARK    4  A    between atoms: C_9  and  C_10 
REMARK    5  A    between atoms: N_11  and  C_12 
REMARK    6  A    between atoms: C_12  and  C_13 
REMARK    7  A    between atoms: C_13  and  C_14 
REMARK    8  A    between atoms: C_16  and  O_17 
REMARK    9  A    between atoms: C_19  and  O_20 
REMARK   10  A    between atoms: N_26  and  C_27 
ROOT
HETATM    1  C   UNL     1      24.213  44.519  50.840  1.00  0.00     0.190 C 
HETATM    2  N   UNL     1      24.974  45.159  51.897  1.00  0.00    -0.319 N 
HETATM    3  C   UNL     1      25.521  46.366  51.468  1.00  0.00     0.332 C 
HETATM    4  O   UNL     1      26.399  46.942  52.095  1.00  0.00    -0.246 OA
HETATM    5  N   UNL     1      24.949  46.707  50.257  1.00  0.00    -0.232 N 
HETATM    6  C   UNL     1      24.163  45.659  49.820  1.00  0.00     0.256 C 
HETATM    7  O   UNL     1      23.544  45.555  48.766  1.00  0.00    -0.270 OA
ENDROOT
BRANCH   1   8
HETATM    8  C   UNL     1      24.934  43.320  50.224  1.00  0.00     0.138 C 
BRANCH   8   9
HETATM    9  C   UNL     1      23.960  42.291  49.709  1.00  0.00     0.224 C 
HETATM   10  N   UNL     1      24.401  41.164  49.078  1.00  0.00    -0.327 N 
HETATM   11  H   UNL     1      23.622  40.666  48.660  1.00  0.00     0.169 HD
HETATM   12  O   UNL     1      22.742  42.434  49.849  1.00  0.00    -0.273 OA
BRANCH  10  13
HETATM   13  C   UNL     1      25.661  40.552  48.940  1.00  0.00     0.034 A 
HETATM   14  C   UNL     1      26.368  40.414  47.748  1.00  0.00     0.032 A 
HETATM   15  C   UNL     1      27.648  39.846  47.741  1.00  0.00     0.039 A 
HETATM   16  C   UNL     1      28.251  39.417  48.922  1.00  0.00     0.068 A 
HETATM   17  C   UNL     1      27.550  39.538  50.116  1.00  0.00     0.039 A 
HETATM   18  C   UNL     1      26.270  40.109  50.123  1.00  0.00     0.032 A 
BRANCH  16  19
HETATM   19  O   UNL     1      29.509  38.907  48.772  1.00  0.00    -0.356 OA
HETATM   20  C   UNL     1      29.939  37.974  49.757  1.00  0.00     0.210 C 
ENDBRANCH  16  19
ENDBRANCH  10  13
ENDBRANCH   8   9
ENDBRANCH   1   8
BRANCH   2  21
HETATM   21  C   UNL     1      25.496  44.420  53.040  1.00  0.00     0.133 C 
BRANCH  21  22
HETATM   22  C   UNL     1      26.577  43.392  52.686  1.00  0.00     0.058 C 
BRANCH  22  23
HETATM   23  C   UNL     1      27.825  43.642  53.500  1.00  0.00    -0.054 A 
HETATM   24  C   UNL     1      27.923  44.754  54.348  1.00  0.00     0.046 A 
HETATM   25  C   UNL     1      29.058  44.942  55.151  1.00  0.00     0.102 A 
HETATM   26  C   UNL     1      30.105  44.000  55.111  1.00  0.00     0.101 A 
HETATM   27  C   UNL     1      30.007  42.896  54.258  1.00  0.00     0.040 A 
HETATM   28  C   UNL     1      28.874  42.718  53.462  1.00  0.00     0.010 A 
BRANCH  25  29
HETATM   29  O   UNL     1      29.229  45.995  56.016  1.00  0.00    -0.353 OA
HETATM   30  C   UNL     1      28.092  46.785  56.329  1.00  0.00     0.210 C 
ENDBRANCH  25  29
BRANCH  26  31
HETATM   31  O   UNL     1      31.175  44.248  55.936  1.00  0.00    -0.353 OA
HETATM   32  C   UNL     1      31.392  43.353  57.017  1.00  0.00     0.210 C 
ENDBRANCH  26  31
ENDBRANCH  22  23
ENDBRANCH  21  22
ENDBRANCH   2  21
BRANCH   5  33
HETATM   33  C   UNL     1      25.193  47.925  49.541  1.00  0.00     0.047 A 
HETATM   34  C   UNL     1      26.499  48.360  49.252  1.00  0.00     0.030 A 
HETATM   35  C   UNL     1      26.744  49.551  48.554  1.00  0.00     0.002 A 
HETATM   36  C   UNL     1      25.688  50.344  48.130  1.00  0.00     0.000 A 
HETATM   37  C   UNL     1      24.387  49.946  48.408  1.00  0.00     0.002 A 
HETATM   38  C   UNL     1      24.146  48.754  49.104  1.00  0.00     0.030 A 
ENDBRANCH   5  33
TORSDOF 10
ENDMDL
MODEL 4
REMARK VINA RESULT:      -8.6      2.254      6.694
REMARK  10 active torsions:
REMARK  status: ('A' for Active; 'I' for Inactive)
REMARK    1  A    between atoms: O_2  and  C_3 
REMARK    2  A    between atoms: C_6  and  N_7 
REMARK       I    between atoms: N_7  and  C_8 
REMARK    3  A    between atoms: C_8  and  C_9 
REMARK    4  A    between atoms: C_9  and  C_10 
REMARK    5  A    between atoms: N_11  and  C_12 
REMARK    6  A    between atoms: C_12  and  C_13 
REMARK    7  A    between atoms: C_13  and  C_14 
REMARK    8  A    between atoms: C_16  and  O_17 
REMARK    9  A    between atoms: C_19  and  O_20 
REMARK   10  A    between atoms: N_26  and  C_27 
ROOT
HETATM    1  C   UNL     1      26.541  43.347  50.925  1.00  0.00     0.190 C 
HETATM    2  N   UNL     1      27.439  42.249  51.230  1.00  0.00    -0.319 N 
HETATM    3  C   UNL     1      27.462  41.312  50.200  1.00  0.00     0.332 C 
HETATM    4  O   UNL     1      27.941  40.196  50.346  1.00  0.00    -0.246 OA
HETATM    5  N   UNL     1      26.830  41.850  49.096  1.00  0.00    -0.232 N 
HETATM    6  C   UNL     1      26.255  43.056  49.450  1.00  0.00     0.256 C 
HETATM    7  O   UNL     1      25.559  43.801  48.768  1.00  0.00    -0.270 OA
ENDROOT
BRANCH   1   8
HETATM    8  C   UNL     1      25.232  43.287  51.714  1.00  0.00     0.138 C 
BRANCH   8   9
HETATM    9  C   UNL     1      25.237  44.255  52.871  1.00  0.00     0.224 C 
HETATM   10  N   UNL     1      25.391  45.595  52.662  1.00  0.00    -0.327 N 
HETATM   11  H   UNL     1      25.531  46.075  53.545  1.00  0.00     0.169 HD
HETATM   12  O   UNL     1      25.096  43.865  54.034  1.00  0.00    -0.273 OA
BRANCH  10  13
HETATM   13  C   UNL     1      25.346  46.415  51.520  1.00  0.00     0.034 A 
HETATM   14  C   UNL     1      24.262  46.538  50.654  1.00  0.00     0.032 A 
HETATM   15  C   UNL     1      24.304  47.439  49.582  1.00  0.00     0.039 A 
HETATM   16  C   UNL     1      25.422  48.242  49.363  1.00  0.00     0.068 A 
HETATM   17  C   UNL     1      26.515  48.120  50.213  1.00  0.00     0.039 A 
HETATM   18  C   UNL     1      26.471  47.220  51.287  1.00  0.00     0.032 A 
BRANCH  16  19
HETATM   19  O   UNL     1      25.318  49.093  48.298  1.00  0.00    -0.356 OA
HETATM   20  C   UNL     1      26.405  49.987  48.090  1.00  0.00     0.210 C 
ENDBRANCH  16  19
ENDBRANCH  10  13
ENDBRANCH   8   9
ENDBRANCH   1   8
BRANCH   2  21
HETATM   21  C   UNL     1      27.849  41.932  52.593  1.00  0.00     0.133 C 
BRANCH  21  22
HETATM   22  C   UNL     1      29.307  42.284  52.911  1.00  0.00     0.058 C 
BRANCH  22  23
HETATM   23  C   UNL     1      29.369  43.309  54.019  1.00  0.00    -0.054 A 
HETATM   24  C   UNL     1      30.320  43.207  55.045  1.00  0.00     0.046 A 
HETATM   25  C   UNL     1      30.415  44.198  56.032  1.00  0.00     0.102 A 
HETATM   26  C   UNL     1      29.552  45.313  55.988  1.00  0.00     0.101 A 
HETATM   27  C   UNL     1      28.600  45.407  54.968  1.00  0.00     0.040 A 
HETATM   28  C   UNL     1      28.512  44.414  53.991  1.00  0.00     0.010 A 
BRANCH  25  29
HETATM   29  O   UNL     1      31.324  44.182  57.062  1.00  0.00    -0.353 OA
HETATM   30  C   UNL     1      32.147  43.034  57.199  1.00  0.00     0.210 C 
ENDBRANCH  25  29
BRANCH  26  31
HETATM   31  O   UNL     1      29.717  46.245  56.982  1.00  0.00    -0.353 OA
HETATM   32  C   UNL     1      28.696  46.347  57.964  1.00  0.00     0.210 C 
ENDBRANCH  26  31
ENDBRANCH  22  23
ENDBRANCH  21  22
ENDBRANCH   2  21
BRANCH   5  33
HETATM   33  C   UNL     1      26.728  41.221  47.812  1.00  0.00     0.047 A 
HETATM   34  C   UNL     1      25.523  40.648  47.367  1.00  0.00     0.030 A 
HETATM   35  C   UNL     1      25.418  40.028  46.113  1.00  0.00     0.002 A 
HETATM   36  C   UNL     1      26.519  39.960  45.272  1.00  0.00     0.000 A 
HETATM   37  C   UNL     1      27.725  40.509  45.686  1.00  0.00     0.002 A 
HETATM   38  C   UNL     1      27.825  41.128  46.939  1.00  0.00     0.030 A 
ENDBRANCH   5  33
TORSDOF 10
ENDMDL
MODEL 5
REMARK VINA RESULT:      -8.5      6.035     12.163
REMARK  10 active torsions:
REMARK  status: ('A' for Active; 'I' for Inactive)
REMARK    1  A    between atoms: O_2  and  C_3 
REMARK    2  A    between atoms: C_6  and  N_7 
REMARK       I    between atoms: N_7  and  C_8 
REMARK    3  A    between atoms: C_8  and  C_9 
REMARK    4  A    between atoms: C_9  and  C_10 
REMARK    5  A    between atoms: N_11  and  C_12 
REMARK    6  A    between atoms: C_12  and  C_13 
REMARK    7  A    between atoms: C_13  and  C_14 
REMARK    8  A    between atoms: C_16  and  O_17 
REMARK    9  A    between atoms: C_19  and  O_20 
REMARK   10  A    between atoms: N_26  and  C_27 
ROOT
HETATM    1  C   UNL     1      20.909  49.974  49.194  1.00  0.00     0.190 C 
HETATM    2  N   UNL     1      20.957  48.706  48.490  1.00  0.00    -0.319 N 
HETATM    3  C   UNL     1      22.270  48.326  48.220  1.00  0.00     0.332 C 
HETATM    4  O   UNL     1      22.540  47.439  47.423  1.00  0.00    -0.246 OA
HETATM    5  N   UNL     1      23.124  49.139  48.940  1.00  0.00    -0.232 N 
HETATM    6  C   UNL     1      22.390  50.142  49.542  1.00  0.00     0.256 C 
HETATM    7  O   UNL     1      22.792  51.089  50.210  1.00  0.00    -0.270 OA
ENDROOT
BRANCH   1   8
HETATM    8  C   UNL     1      20.463  51.136  48.306  1.00  0.00     0.138 C 
BRANCH   8   9
HETATM    9  C   UNL     1      19.185  51.759  48.809  1.00  0.00     0.224 C 
HETATM   10  N   UNL     1      18.158  52.037  47.953  1.00  0.00    -0.327 N 
HETATM   11  H   UNL     1      17.450  52.592  48.421  1.00  0.00     0.169 HD
HETATM   12  O   UNL     1      19.028  52.028  50.003  1.00  0.00    -0.273 OA
BRANCH  10  13
HETATM   13  C   UNL     1      17.873  51.679  46.622  1.00  0.00     0.034 A 
HETATM   14  C   UNL     1      18.714  50.952  45.782  1.00  0.00     0.032 A 
HETATM   15  C   UNL     1      18.296  50.594  44.494  1.00  0.00     0.039 A 
HETATM   16  C   UNL     1      17.031  50.944  44.025  1.00  0.00     0.068 A 
HETATM   17  C   UNL     1      16.189  51.681  44.850  1.00  0.00     0.039 A 
HETATM   18  C   UNL     1      16.606  52.036  46.140  1.00  0.00     0.032 A 
BRANCH  16  19
HETATM   19  O   UNL     1      16.747  50.510  42.761  1.00  0.00    -0.356 OA
HETATM   20  C   UNL     1      17.855  50.309  41.892  1.00  0.00     0.210 C 
ENDBRANCH  16  19
ENDBRANCH  10  13
ENDBRANCH   8   9
ENDBRANCH   1   8
BRANCH   2  21
HETATM   21  C   UNL     1      19.817  48.182  47.747  1.00  0.00     0.133 C 
BRANCH  21  22
HETATM   22  C   UNL     1      18.530  48.059  48.572  1.00  0.00     0.058 C 
BRANCH  22  23
HETATM   23  C   UNL     1      17.320  48.176  47.675  1.00  0.00    -0.054 A 
HETATM   24  C   UNL     1      17.305  47.589  46.402  1.00  0.00     0.046 A 
HETATM   25  C   UNL     1      16.154  47.644  45.603  1.00  0.00     0.102 A 
HETATM   26  C   UNL     1      14.998  48.290  46.089  1.00  0.00     0.101 A 
HETATM   27  C   UNL     1      15.020  48.880  47.356  1.00  0.00     0.040 A 
HETATM   28  C   UNL     1      16.171  48.821  48.143  1.00  0.00     0.010 A 
BRANCH  25  29
HETATM   29  O   UNL     1      16.050  47.087  44.353  1.00  0.00    -0.353 OA
HETATM   30  C   UNL     1      17.230  46.997  43.569  1.00  0.00     0.210 C 
ENDBRANCH  25  29
BRANCH  26  31
HETATM   31  O   UNL     1      13.909  48.289  45.252  1.00  0.00    -0.353 OA
HETATM   32  C   UNL     1      13.329  49.545  44.928  1.00  0.00     0.210 C 
ENDBRANCH  26  31
ENDBRANCH  22  23
ENDBRANCH  21  22
ENDBRANCH   2  21
BRANCH   5  33
HETATM   33  C   UNL     1      24.551  49.001  48.991  1.00  0.00     0.047 A 
HETATM   34  C   UNL     1      25.164  47.973  49.728  1.00  0.00     0.030 A 
HETATM   35  C   UNL     1      26.559  47.834  49.785  1.00  0.00     0.002 A 
HETATM   36  C   UNL     1      27.379  48.726  49.108  1.00  0.00     0.000 A 
HETATM   37  C   UNL     1      26.803  49.757  48.378  1.00  0.00     0.002 A 
HETATM   38  C   UNL     1      25.409  49.891  48.323  1.00  0.00     0.030 A 
ENDBRANCH   5  33
TORSDOF 10
ENDMDL
MODEL 6
REMARK VINA RESULT:      -8.4      5.939     10.213
REMARK  10 active torsions:
REMARK  status: ('A' for Active; 'I' for Inactive)
REMARK    1  A    between atoms: O_2  and  C_3 
REMARK    2  A    between atoms: C_6  and  N_7 
REMARK       I    between atoms: N_7  and  C_8 
REMARK    3  A    between atoms: C_8  and  C_9 
REMARK    4  A    between atoms: C_9  and  C_10 
REMARK    5  A    between atoms: N_11  and  C_12 
REMARK    6  A    between atoms: C_12  and  C_13 
REMARK    7  A    between atoms: C_13  and  C_14 
REMARK    8  A    between atoms: C_16  and  O_17 
REMARK    9  A    between atoms: C_19  and  O_20 
REMARK   10  A    between atoms: N_26  and  C_27 
ROOT
HETATM    1  C   UNL     1      20.790  49.023  48.378  1.00  0.00     0.190 C 
HETATM    2  N   UNL     1      21.058  50.255  49.096  1.00  0.00    -0.319 N 
HETATM    3  C   UNL     1      22.385  50.318  49.515  1.00  0.00     0.332 C 
HETATM    4  O   UNL     1      22.768  51.130  50.346  1.00  0.00    -0.246 OA
HETATM    5  N   UNL     1      23.097  49.315  48.887  1.00  0.00    -0.232 N 
HETATM    6  C   UNL     1      22.218  48.504  48.197  1.00  0.00     0.256 C 
HETATM    7  O   UNL     1      22.455  47.477  47.569  1.00  0.00    -0.270 OA
ENDROOT
BRANCH   1   8
HETATM    8  C   UNL     1      19.985  48.015  49.200  1.00  0.00     0.138 C 
BRANCH   8   9
HETATM    9  C   UNL     1      18.600  47.819  48.636  1.00  0.00     0.224 C 
HETATM   10  N   UNL     1      18.412  47.154  47.459  1.00  0.00    -0.327 N 
HETATM   11  H   UNL     1      17.451  47.251  47.149  1.00  0.00     0.169 HD
HETATM   12  O   UNL     1      17.602  48.245  49.222  1.00  0.00    -0.273 OA
BRANCH  10  13
HETATM   13  C   UNL     1      19.236  46.350  46.649  1.00  0.00     0.034 A 
HETATM   14  C   UNL     1      19.856  46.757  45.469  1.00  0.00     0.032 A 
HETATM   15  C   UNL     1      20.712  45.890  44.779  1.00  0.00     0.039 A 
HETATM   16  C   UNL     1      20.975  44.608  45.257  1.00  0.00     0.068 A 
HETATM   17  C   UNL     1      20.352  44.186  46.427  1.00  0.00     0.039 A 
HETATM   18  C   UNL     1      19.498  45.056  47.119  1.00  0.00     0.032 A 
BRANCH  16  19
HETATM   19  O   UNL     1      21.847  43.879  44.498  1.00  0.00    -0.356 OA
HETATM   20  C   UNL     1      23.075  44.510  44.157  1.00  0.00     0.210 C 
ENDBRANCH  16  19
ENDBRANCH  10  13
ENDBRANCH   8   9
ENDBRANCH   1   8
BRANCH   2  21
HETATM   21  C   UNL     1      20.000  51.047  49.712  1.00  0.00     0.133 C 
BRANCH  21  22
HETATM   22  C   UNL     1      19.417  52.136  48.803  1.00  0.00     0.058 C 
BRANCH  22  23
HETATM   23  C   UNL     1      18.200  51.616  48.076  1.00  0.00    -0.054 A 
HETATM   24  C   UNL     1      18.304  51.086  46.782  1.00  0.00     0.046 A 
HETATM   25  C   UNL     1      17.181  50.544  46.140  1.00  0.00     0.102 A 
HETATM   26  C   UNL     1      15.938  50.523  46.805  1.00  0.00     0.101 A 
HETATM   27  C   UNL     1      15.837  51.059  48.093  1.00  0.00     0.040 A 
HETATM   28  C   UNL     1      16.960  51.598  48.723  1.00  0.00     0.010 A 
BRANCH  25  29
HETATM   29  O   UNL     1      17.198  49.995  44.881  1.00  0.00    -0.353 OA
HETATM   30  C   UNL     1      17.366  50.874  43.779  1.00  0.00     0.210 C 
ENDBRANCH  25  29
BRANCH  26  31
HETATM   31  O   UNL     1      14.891  49.963  46.115  1.00  0.00    -0.353 OA
HETATM   32  C   UNL     1      14.518  48.635  46.451  1.00  0.00     0.210 C 
ENDBRANCH  26  31
ENDBRANCH  22  23
ENDBRANCH  21  22
ENDBRANCH   2  21
BRANCH   5  33
HETATM   33  C   UNL     1      24.512  49.111  48.996  1.00  0.00     0.047 A 
HETATM   34  C   UNL     1      25.430  49.956  48.348  1.00  0.00     0.030 A 
HETATM   35  C   UNL     1      26.815  49.760  48.449  1.00  0.00     0.002 A 
HETATM   36  C   UNL     1      27.320  48.707  49.199  1.00  0.00     0.000 A 
HETATM   37  C   UNL     1      26.439  47.850  49.844  1.00  0.00     0.002 A 
HETATM   38  C   UNL     1      25.056  48.050  49.742  1.00  0.00     0.030 A 
ENDBRANCH   5  33
TORSDOF 10
ENDMDL
MODEL 7
REMARK VINA RESULT:      -8.3      2.708      6.234
REMARK  10 active torsions:
REMARK  status: ('A' for Active; 'I' for Inactive)
REMARK    1  A    between atoms: O_2  and  C_3 
REMARK    2  A    between atoms: C_6  and  N_7 
REMARK       I    between atoms: N_7  and  C_8 
REMARK    3  A    between atoms: C_8  and  C_9 
REMARK    4  A    between atoms: C_9  and  C_10 
REMARK    5  A    between atoms: N_11  and  C_12 
REMARK    6  A    between atoms: C_12  and  C_13 
REMARK    7  A    between atoms: C_13  and  C_14 
REMARK    8  A    between atoms: C_16  and  O_17 
REMARK    9  A    between atoms: C_19  and  O_20 
REMARK   10  A    between atoms: N_26  and  C_27 
ROOT
HETATM    1  C   UNL     1      23.502  48.729  48.033  1.00  0.00     0.190 C 
HETATM    2  N   UNL     1      22.487  47.766  48.417  1.00  0.00    -0.319 N 
HETATM    3  C   UNL     1      21.240  48.372  48.552  1.00  0.00     0.332 C 
HETATM    4  O   UNL     1      20.303  47.817  49.109  1.00  0.00    -0.246 OA
HETATM    5  N   UNL     1      21.305  49.646  48.019  1.00  0.00    -0.232 N 
HETATM    6  C   UNL     1      22.616  49.930  47.692  1.00  0.00     0.256 C 
HETATM    7  O   UNL     1      23.087  50.975  47.256  1.00  0.00    -0.270 OA
ENDROOT
BRANCH   1   8
HETATM    8  C   UNL     1      24.439  49.102  49.183  1.00  0.00     0.138 C 
BRANCH   8   9
HETATM    9  C   UNL     1      25.882  49.105  48.744  1.00  0.00     0.224 C 
HETATM   10  N   UNL     1      26.784  48.245  49.300  1.00  0.00    -0.327 N 
HETATM   11  H   UNL     1      27.726  48.487  49.011  1.00  0.00     0.169 HD
HETATM   12  O   UNL     1      26.285  49.877  47.870  1.00  0.00    -0.273 OA
BRANCH  10  13
HETATM   13  C   UNL     1      26.670  47.106  50.119  1.00  0.00     0.034 A 
HETATM   14  C   UNL     1      27.011  45.806  49.750  1.00  0.00     0.032 A 
HETATM   15  C   UNL     1      26.918  44.756  50.672  1.00  0.00     0.039 A 
HETATM   16  C   UNL     1      26.497  44.985  51.981  1.00  0.00     0.068 A 
HETATM   17  C   UNL     1      26.142  46.275  52.357  1.00  0.00     0.039 A 
HETATM   18  C   UNL     1      26.237  47.326  51.434  1.00  0.00     0.032 A 
BRANCH  16  19
HETATM   19  O   UNL     1      26.477  43.876  52.780  1.00  0.00    -0.356 OA
HETATM   20  C   UNL     1      26.835  44.068  54.143  1.00  0.00     0.210 C 
ENDBRANCH  16  19
ENDBRANCH  10  13
ENDBRANCH   8   9
ENDBRANCH   1   8
BRANCH   2  21
HETATM   21  C   UNL     1      22.816  46.494  49.047  1.00  0.00     0.133 C 
BRANCH  21  22
HETATM   22  C   UNL     1      22.489  45.263  48.193  1.00  0.00     0.058 C 
BRANCH  22  23
HETATM   23  C   UNL     1      23.230  44.053  48.711  1.00  0.00    -0.054 A 
HETATM   24  C   UNL     1      23.962  43.230  47.843  1.00  0.00     0.046 A 
HETATM   25  C   UNL     1      24.702  42.147  48.341  1.00  0.00     0.102 A 
HETATM   26  C   UNL     1      24.717  41.890  49.727  1.00  0.00     0.101 A 
HETATM   27  C   UNL     1      23.980  42.710  50.587  1.00  0.00     0.040 A 
HETATM   28  C   UNL     1      23.245  43.783  50.083  1.00  0.00     0.010 A 
BRANCH  25  29
HETATM   29  O   UNL     1      25.454  41.300  47.564  1.00  0.00    -0.353 OA
HETATM   30  C   UNL     1      24.765  40.374  46.738  1.00  0.00     0.210 C 
ENDBRANCH  25  29
BRANCH  26  31
HETATM   31  O   UNL     1      25.476  40.821  50.135  1.00  0.00    -0.353 OA
HETATM   32  C   UNL     1      26.661  41.098  50.867  1.00  0.00     0.210 C 
ENDBRANCH  26  31
ENDBRANCH  22  23
ENDBRANCH  21  22
ENDBRANCH   2  21
BRANCH   5  33
HETATM   33  C   UNL     1      20.198  50.548  47.896  1.00  0.00     0.047 A 
HETATM   34  C   UNL     1      19.952  51.547  48.855  1.00  0.00     0.030 A 
HETATM   35  C   UNL     1      18.870  52.431  48.741  1.00  0.00     0.002 A 
HETATM   36  C   UNL     1      17.999  52.337  47.665  1.00  0.00     0.000 A 
HETATM   37  C   UNL     1      18.210  51.356  46.705  1.00  0.00     0.002 A 
HETATM   38  C   UNL     1      19.294  50.475  46.822  1.00  0.00     0.030 A 
ENDBRANCH   5  33
TORSDOF 10
ENDMDL
MODEL 8
REMARK VINA RESULT:      -8.1      2.755      7.292
REMARK  10 active torsions:
REMARK  status: ('A' for Active; 'I' for Inactive)
REMARK    1  A    between atoms: O_2  and  C_3 
REMARK    2  A    between atoms: C_6  and  N_7 
REMARK       I    between atoms: N_7  and  C_8 
REMARK    3  A    between atoms: C_8  and  C_9 
REMARK    4  A    between atoms: C_9  and  C_10 
REMARK    5  A    between atoms: N_11  and  C_12 
REMARK    6  A    between atoms: C_12  and  C_13 
REMARK    7  A    between atoms: C_13  and  C_14 
REMARK    8  A    between atoms: C_16  and  O_17 
REMARK    9  A    between atoms: C_19  and  O_20 
REMARK   10  A    between atoms: N_26  and  C_27 
ROOT
HETATM    1  C   UNL     1      23.746  46.433  48.777  1.00  0.00     0.190 C 
HETATM    2  N   UNL     1      23.521  45.175  49.466  1.00  0.00    -0.319 N 
HETATM    3  C   UNL     1      22.232  44.698  49.241  1.00  0.00     0.332 C 
HETATM    4  O   UNL     1      21.742  43.804  49.917  1.00  0.00    -0.246 OA
HETATM    5  N   UNL     1      21.659  45.431  48.219  1.00  0.00    -0.232 N 
HETATM    6  C   UNL     1      22.497  46.479  47.893  1.00  0.00     0.256 C 
HETATM    7  O   UNL     1      22.313  47.382  47.083  1.00  0.00    -0.270 OA
ENDROOT
BRANCH   1   8
HETATM    8  C   UNL     1      23.746  47.639  49.716  1.00  0.00     0.138 C 
BRANCH   8   9
HETATM    9  C   UNL     1      24.540  48.787  49.145  1.00  0.00     0.224 C 
HETATM   10  N   UNL     1      23.917  49.920  48.709  1.00  0.00    -0.327 N 
HETATM   11  H   UNL     1      24.574  50.516  48.216  1.00  0.00     0.169 HD
HETATM   12  O   UNL     1      25.770  48.738  49.063  1.00  0.00    -0.273 OA
BRANCH  10  13
HETATM   13  C   UNL     1      22.613  50.431  48.846  1.00  0.00     0.034 A 
HETATM   14  C   UNL     1      21.702  50.614  47.808  1.00  0.00     0.032 A 
HETATM   15  C   UNL     1      20.404  51.069  48.071  1.00  0.00     0.039 A 
HETATM   16  C   UNL     1      19.986  51.336  49.373  1.00  0.00     0.068 A 
HETATM   17  C   UNL     1      20.890  51.169  50.416  1.00  0.00     0.039 A 
HETATM   18  C   UNL     1      22.188  50.712  50.153  1.00  0.00     0.032 A 
BRANCH  16  19
HETATM   19  O   UNL     1      18.688  51.748  49.488  1.00  0.00    -0.356 OA
HETATM   20  C   UNL     1      17.706  50.728  49.629  1.00  0.00     0.210 C 
ENDBRANCH  16  19
ENDBRANCH  10  13
ENDBRANCH   8   9
ENDBRANCH   1   8
BRANCH   2  21
HETATM   21  C   UNL     1      24.330  44.753  50.603  1.00  0.00     0.133 C 
BRANCH  21  22
HETATM   22  C   UNL     1      25.819  45.099  50.481  1.00  0.00     0.058 C 
BRANCH  22  23
HETATM   23  C   UNL     1      26.471  45.097  51.844  1.00  0.00    -0.054 A 
HETATM   24  C   UNL     1      27.400  44.108  52.198  1.00  0.00     0.046 A 
HETATM   25  C   UNL     1      28.051  44.151  53.439  1.00  0.00     0.102 A 
HETATM   26  C   UNL     1      27.776  45.204  54.335  1.00  0.00     0.101 A 
HETATM   27  C   UNL     1      26.844  46.185  53.981  1.00  0.00     0.040 A 
HETATM   28  C   UNL     1      26.200  46.132  52.744  1.00  0.00     0.010 A 
BRANCH  25  29
HETATM   29  O   UNL     1      28.980  43.231  53.860  1.00  0.00    -0.353 OA
HETATM   30  C   UNL     1      30.054  42.928  52.982  1.00  0.00     0.210 C 
ENDBRANCH  25  29
BRANCH  26  31
HETATM   31  O   UNL     1      28.464  45.183  55.524  1.00  0.00    -0.353 OA
HETATM   32  C   UNL     1      29.483  46.154  55.710  1.00  0.00     0.210 C 
ENDBRANCH  26  31
ENDBRANCH  22  23
ENDBRANCH  21  22
ENDBRANCH   2  21
BRANCH   5  33
HETATM   33  C   UNL     1      20.370  45.180  47.644  1.00  0.00     0.047 A 
HETATM   34  C   UNL     1      20.206  44.295  46.564  1.00  0.00     0.030 A 
HETATM   35  C   UNL     1      18.948  44.048  45.995  1.00  0.00     0.002 A 
HETATM   36  C   UNL     1      17.819  44.686  46.488  1.00  0.00     0.000 A 
HETATM   37  C   UNL     1      17.950  45.572  47.549  1.00  0.00     0.002 A 
HETATM   38  C   UNL     1      19.209  45.815  48.116  1.00  0.00     0.030 A 
ENDBRANCH   5  33
TORSDOF 10
ENDMDL
MODEL 9
REMARK VINA RESULT:      -8.0     11.440     14.490
REMARK  10 active torsions:
REMARK  status: ('A' for Active; 'I' for Inactive)
REMARK    1  A    between atoms: O_2  and  C_3 
REMARK    2  A    between atoms: C_6  and  N_7 
REMARK       I    between atoms: N_7  and  C_8 
REMARK    3  A    between atoms: C_8  and  C_9 
REMARK    4  A    between atoms: C_9  and  C_10 
REMARK    5  A    between atoms: N_11  and  C_12 
REMARK    6  A    between atoms: C_12  and  C_13 
REMARK    7  A    between atoms: C_13  and  C_14 
REMARK    8  A    between atoms: C_16  and  O_17 
REMARK    9  A    between atoms: C_19  and  O_20 
REMARK   10  A    between atoms: N_26  and  C_27 
ROOT
HETATM    1  C   UNL     1      27.607  47.413  38.952  1.00  0.00     0.190 C 
HETATM    2  N   UNL     1      29.043  47.421  39.160  1.00  0.00    -0.319 N 
HETATM    3  C   UNL     1      29.547  46.127  39.272  1.00  0.00     0.332 C 
HETATM    4  O   UNL     1      30.669  45.901  39.702  1.00  0.00    -0.246 OA
HETATM    5  N   UNL     1      28.567  45.235  38.884  1.00  0.00    -0.232 N 
HETATM    6  C   UNL     1      27.386  45.923  38.680  1.00  0.00     0.256 C 
HETATM    7  O   UNL     1      26.281  45.477  38.390  1.00  0.00    -0.270 OA
ENDROOT
BRANCH   1   8
HETATM    8  C   UNL     1      26.819  47.822  40.197  1.00  0.00     0.138 C 
BRANCH   8   9
HETATM    9  C   UNL     1      25.666  48.730  39.849  1.00  0.00     0.224 C 
HETATM   10  N   UNL     1      25.839  50.082  39.773  1.00  0.00    -0.327 N 
HETATM   11  H   UNL     1      24.942  50.548  39.689  1.00  0.00     0.169 HD
HETATM   12  O   UNL     1      24.541  48.280  39.619  1.00  0.00    -0.273 OA
BRANCH  10  13
HETATM   13  C   UNL     1      26.969  50.921  39.737  1.00  0.00     0.034 A 
HETATM   14  C   UNL     1      27.571  51.417  38.583  1.00  0.00     0.032 A 
HETATM   15  C   UNL     1      28.654  52.301  38.670  1.00  0.00     0.039 A 
HETATM   16  C   UNL     1      29.147  52.716  39.906  1.00  0.00     0.068 A 
HETATM   17  C   UNL     1      28.562  52.217  41.064  1.00  0.00     0.039 A 
HETATM   18  C   UNL     1      27.477  51.334  40.977  1.00  0.00     0.032 A 
BRANCH  16  19
HETATM   19  O   UNL     1      30.189  53.598  39.842  1.00  0.00    -0.356 OA
HETATM   20  C   UNL     1      30.877  53.858  41.060  1.00  0.00     0.210 C 
ENDBRANCH  16  19
ENDBRANCH  10  13
ENDBRANCH   8   9
ENDBRANCH   1   8
BRANCH   2  21
HETATM   21  C   UNL     1      29.751  48.589  39.673  1.00  0.00     0.133 C 
BRANCH  21  22
HETATM   22  C   UNL     1      30.579  49.337  38.622  1.00  0.00     0.058 C 
BRANCH  22  23
HETATM   23  C   UNL     1      31.632  50.187  39.292  1.00  0.00    -0.054 A 
HETATM   24  C   UNL     1      31.913  50.045  40.659  1.00  0.00     0.046 A 
HETATM   25  C   UNL     1      32.938  50.791  41.258  1.00  0.00     0.102 A 
HETATM   26  C   UNL     1      33.701  51.684  40.478  1.00  0.00     0.101 A 
HETATM   27  C   UNL     1      33.413  51.827  39.117  1.00  0.00     0.040 A 
HETATM   28  C   UNL     1      32.389  51.082  38.529  1.00  0.00     0.010 A 
BRANCH  25  29
HETATM   29  O   UNL     1      33.285  50.704  42.584  1.00  0.00    -0.353 OA
HETATM   30  C   UNL     1      32.256  50.865  43.549  1.00  0.00     0.210 C 
ENDBRANCH  25  29
BRANCH  26  31
HETATM   31  O   UNL     1      34.694  52.365  41.136  1.00  0.00    -0.353 OA
HETATM   32  C   UNL     1      36.037  51.983  40.875  1.00  0.00     0.210 C 
ENDBRANCH  26  31
ENDBRANCH  22  23
ENDBRANCH  21  22
ENDBRANCH   2  21
BRANCH   5  33
HETATM   33  C   UNL     1      28.735  43.814  38.780  1.00  0.00     0.047 A 
HETATM   34  C   UNL     1      29.451  43.233  37.719  1.00  0.00     0.030 A 
HETATM   35  C   UNL     1      29.616  41.845  37.610  1.00  0.00     0.002 A 
HETATM   36  C   UNL     1      29.065  40.998  38.561  1.00  0.00     0.000 A 
HETATM   37  C   UNL     1      28.346  41.541  39.617  1.00  0.00     0.002 A 
HETATM   38  C   UNL     1      28.183  42.929  39.722  1.00  0.00     0.030 A 
ENDBRANCH   5  33
TORSDOF 10
ENDMDL
MODEL 10
REMARK VINA RESULT:      -7.9      4.607      9.642
REMARK  10 active torsions:
REMARK  status: ('A' for Active; 'I' for Inactive)
REMARK    1  A    between atoms: O_2  and  C_3 
REMARK    2  A    between atoms: C_6  and  N_7 
REMARK       I    between atoms: N_7  and  C_8 
REMARK    3  A    between atoms: C_8  and  C_9 
REMARK    4  A    between atoms: C_9  and  C_10 
REMARK    5  A    between atoms: N_11  and  C_12 
REMARK    6  A    between atoms: C_12  and  C_13 
REMARK    7  A    between atoms: C_13  and  C_14 
REMARK    8  A    between atoms: C_16  and  O_17 
REMARK    9  A    between atoms: C_19  and  O_20 
REMARK   10  A    between atoms: N_26  and  C_27 
ROOT
HETATM    1  C   UNL     1      20.630  48.669  48.342  1.00  0.00     0.190 C 
HETATM    2  N   UNL     1      20.780  49.815  49.219  1.00  0.00    -0.319 N 
HETATM    3  C   UNL     1      22.110  49.993  49.595  1.00  0.00     0.332 C 
HETATM    4  O   UNL     1      22.431  50.725  50.520  1.00  0.00    -0.246 OA
HETATM    5  N   UNL     1      22.907  49.187  48.805  1.00  0.00    -0.232 N 
HETATM    6  C   UNL     1      22.100  48.371  48.037  1.00  0.00     0.256 C 
HETATM    7  O   UNL     1      22.430  47.480  47.261  1.00  0.00    -0.270 OA
ENDROOT
BRANCH   1   8
HETATM    8  C   UNL     1      20.002  47.460  49.037  1.00  0.00     0.138 C 
BRANCH   8   9
HETATM    9  C   UNL     1      19.195  46.624  48.076  1.00  0.00     0.224 C 
HETATM   10  N   UNL     1      19.738  45.523  47.481  1.00  0.00    -0.327 N 
HETATM   11  H   UNL     1      19.121  45.176  46.754  1.00  0.00     0.169 HD
HETATM   12  O   UNL     1      18.024  46.906  47.808  1.00  0.00    -0.273 OA
BRANCH  10  13
HETATM   13  C   UNL     1      20.908  44.773  47.698  1.00  0.00     0.034 A 
HETATM   14  C   UNL     1      21.508  44.549  48.936  1.00  0.00     0.032 A 
HETATM   15  C   UNL     1      22.638  43.728  49.042  1.00  0.00     0.039 A 
HETATM   16  C   UNL     1      23.181  43.105  47.920  1.00  0.00     0.068 A 
HETATM   17  C   UNL     1      22.598  43.330  46.678  1.00  0.00     0.039 A 
HETATM   18  C   UNL     1      21.467  44.150  46.573  1.00  0.00     0.032 A 
BRANCH  16  19
HETATM   19  O   UNL     1      24.266  42.313  48.171  1.00  0.00    -0.356 OA
HETATM   20  C   UNL     1      25.100  42.701  49.256  1.00  0.00     0.210 C 
ENDBRANCH  16  19
ENDBRANCH  10  13
ENDBRANCH   8   9
ENDBRANCH   1   8
BRANCH   2  21
HETATM   21  C   UNL     1      19.666  50.368  49.978  1.00  0.00     0.133 C 
BRANCH  21  22
HETATM   22  C   UNL     1      19.400  51.855  49.715  1.00  0.00     0.058 C 
BRANCH  22  23
HETATM   23  C   UNL     1      18.223  52.020  48.782  1.00  0.00    -0.054 A 
HETATM   24  C   UNL     1      18.392  51.969  47.391  1.00  0.00     0.046 A 
HETATM   25  C   UNL     1      17.285  52.056  46.534  1.00  0.00     0.102 A 
HETATM   26  C   UNL     1      15.990  52.187  47.076  1.00  0.00     0.101 A 
HETATM   27  C   UNL     1      15.828  52.245  48.464  1.00  0.00     0.040 A 
HETATM   28  C   UNL     1      16.935  52.160  49.309  1.00  0.00     0.010 A 
BRANCH  25  29
HETATM   29  O   UNL     1      17.360  52.002  45.164  1.00  0.00    -0.353 OA
HETATM   30  C   UNL     1      17.949  50.851  44.579  1.00  0.00     0.210 C 
ENDBRANCH  25  29
BRANCH  26  31
HETATM   31  O   UNL     1      14.959  52.252  46.172  1.00  0.00    -0.353 OA
HETATM   32  C   UNL     1      14.230  53.469  46.093  1.00  0.00     0.210 C 
ENDBRANCH  26  31
ENDBRANCH  22  23
ENDBRANCH  21  22
ENDBRANCH   2  21
BRANCH   5  33
HETATM   33  C   UNL     1      24.340  49.157  48.835  1.00  0.00     0.047 A 
HETATM   34  C   UNL     1      25.111  50.058  48.079  1.00  0.00     0.030 A 
HETATM   35  C   UNL     1      26.512  50.032  48.101  1.00  0.00     0.002 A 
HETATM   36  C   UNL     1      27.183  49.098  48.878  1.00  0.00     0.000 A 
HETATM   37  C   UNL     1      26.450  48.190  49.629  1.00  0.00     0.002 A 
HETATM   38  C   UNL     1      25.049  48.220  49.605  1.00  0.00     0.030 A 
ENDBRANCH   5  33
TORSDOF 10
ENDMDL
