MODEL 1
REMARK VINA RESULT:      -9.8      0.000      0.000
REMARK  6 active torsions:
REMARK  status: ('A' for Active; 'I' for Inactive)
REMARK    1  A    between atoms: C_2  and  N_3 
REMARK       I    between atoms: N_3  and  C_4 
REMARK    2  A    between atoms: C_4  and  C_5 
REMARK    3  A    between atoms: C_13  and  N_14 
REMARK       I    between atoms: N_14  and  C_15 
REMARK    4  A    between atoms: C_15  and  C_16 
REMARK    5  A    between atoms: C_24  and  C_25 
REMARK       I    between atoms: C_25  and  N_26 
REMARK    6  A    between atoms: N_26  and  C_27 
ROOT
HETATM    1  C   UNL     1      27.324  43.887  52.425  1.00  0.00     0.046 A 
HETATM    2  C   UNL     1      28.508  43.227  52.768  1.00  0.00     0.037 A 
HETATM    3  C   UNL     1      28.738  41.930  52.285  1.00  0.00     0.059 A 
HETATM    4  C   UNL     1      27.809  41.291  51.466  1.00  0.00     0.037 A 
HETATM    5  C   UNL     1      26.635  41.970  51.123  1.00  0.00     0.046 A 
HETATM    6  C   UNL     1      26.381  43.270  51.593  1.00  0.00     0.036 A 
ENDROOT
BRANCH   6   7
HETATM    7  C   UNL     1      25.101  43.919  51.150  1.00  0.00     0.256 C 
HETATM    8  N   UNL     1      25.190  45.090  50.421  1.00  0.00    -0.317 N 
HETATM    9  H   UNL     1      26.099  45.499  50.223  1.00  0.00     0.169 HD
HETATM   10  O   UNL     1      24.041  43.373  51.446  1.00  0.00    -0.267 OA
BRANCH   8  11
HETATM   11  C   UNL     1      24.152  45.826  49.879  1.00  0.00     0.119 A 
HETATM   12  C   UNL     1      24.170  47.298  50.173  1.00  0.00     0.277 A 
HETATM   13  O   UNL     1      25.064  47.786  50.861  1.00  0.00    -0.266 OA
HETATM   14  N   UNL     1      23.160  48.050  49.643  1.00  0.00    -0.274 N 
HETATM   15  C   UNL     1      22.149  47.566  48.865  1.00  0.00     0.327 A 
HETATM   16  H   UNL     1      23.165  49.039  49.832  1.00  0.00     0.173 HD
HETATM   17  O   UNL     1      21.273  48.288  48.405  1.00  0.00    -0.247 OA
HETATM   18  N   UNL     1      22.180  46.220  48.628  1.00  0.00    -0.316 N 
HETATM   19  C   UNL     1      23.145  45.378  49.118  1.00  0.00     0.128 A 
HETATM   20  H   UNL     1      21.432  45.853  48.050  1.00  0.00     0.170 HD
ENDBRANCH   8  11
ENDBRANCH   6   7
BRANCH   2  21
HETATM   21  N   UNL     1      29.519  43.788  53.579  1.00  0.00    -0.327 N 
HETATM   22  C   UNL     1      29.389  44.331  54.847  1.00  0.00     0.226 C 
HETATM   23  O   UNL     1      28.340  44.418  55.476  1.00  0.00    -0.273 OA
HETATM   24  H   UNL     1      30.444  43.816  53.165  1.00  0.00     0.169 HD
BRANCH  22  25
HETATM   25  C   UNL     1      30.721  44.868  55.399  1.00  0.00     0.078 C 
HETATM   26  C   UNL     1      30.518  46.065  56.344  1.00  0.00     0.014 C 
HETATM   27  C   UNL     1      30.024  45.667  57.735  1.00  0.00     0.001 C 
HETATM   28  C   UNL     1      30.890  44.582  58.361  1.00  0.00     0.000 C 
HETATM   29  C   UNL     1      31.021  43.373  57.441  1.00  0.00     0.001 C 
HETATM   30  C   UNL     1      31.562  43.772  56.071  1.00  0.00     0.014 C 
ENDBRANCH  22  25
ENDBRANCH   2  21
BRANCH   4  31
HETATM   31  N   UNL     1      27.981  39.994  50.937  1.00  0.00    -0.327 N 
HETATM   32  C   UNL     1      28.419  39.648  49.667  1.00  0.00     0.226 C 
HETATM   33  O   UNL     1      28.796  40.437  48.806  1.00  0.00    -0.273 OA
HETATM   34  H   UNL     1      27.787  39.228  51.574  1.00  0.00     0.169 HD
BRANCH  32  35
HETATM   35  C   UNL     1      28.404  38.129  49.435  1.00  0.00     0.078 C 
HETATM   36  C   UNL     1      26.973  37.571  49.411  1.00  0.00     0.014 C 
HETATM   37  C   UNL     1      26.237  37.903  48.115  1.00  0.00     0.001 C 
HETATM   38  C   UNL     1      27.014  37.424  46.895  1.00  0.00     0.000 C 
HETATM   39  C   UNL     1      28.427  37.996  46.871  1.00  0.00     0.001 C 
HETATM   40  C   UNL     1      29.180  37.720  48.172  1.00  0.00     0.014 C 
ENDBRANCH  32  35
ENDBRANCH   4  31
TORSDOF 6
ENDMDL
MODEL 2
REMARK VINA RESULT:      -9.6      2.342      8.161
REMARK  6 active torsions:
REMARK  status: ('A' for Active; 'I' for Inactive)
REMARK    1  A    between atoms: C_2  and  N_3 
REMARK       I    between atoms: N_3  and  C_4 
REMARK    2  A    between atoms: C_4  and  C_5 
REMARK    3  A    between atoms: C_13  and  N_14 
REMARK       I    between atoms: N_14  and  C_15 
REMARK    4  A    between atoms: C_15  and  C_16 
REMARK    5  A    between atoms: C_24  and  C_25 
REMARK       I    between atoms: C_25  and  N_26 
REMARK    6  A    between atoms: N_26  and  C_27 
ROOT
HETATM    1  C   UNL     1      25.112  47.095  51.414  1.00  0.00     0.046 A 
HETATM    2  C   UNL     1      24.461  46.758  50.223  1.00  0.00     0.037 A 
HETATM    3  C   UNL     1      24.459  45.423  49.793  1.00  0.00     0.059 A 
HETATM    4  C   UNL     1      25.092  44.426  50.535  1.00  0.00     0.037 A 
HETATM    5  C   UNL     1      25.727  44.779  51.730  1.00  0.00     0.046 A 
HETATM    6  C   UNL     1      25.743  46.109  52.183  1.00  0.00     0.036 A 
ENDROOT
BRANCH   6   7
HETATM    7  C   UNL     1      26.435  46.379  53.489  1.00  0.00     0.256 C 
HETATM    8  N   UNL     1      27.413  45.493  53.897  1.00  0.00    -0.317 N 
HETATM    9  H   UNL     1      27.628  44.676  53.331  1.00  0.00     0.169 HD
HETATM   10  O   UNL     1      26.105  47.378  54.124  1.00  0.00    -0.267 OA
BRANCH   8  11
HETATM   11  C   UNL     1      28.201  45.570  55.030  1.00  0.00     0.119 A 
HETATM   12  C   UNL     1      29.378  44.639  55.074  1.00  0.00     0.277 A 
HETATM   13  O   UNL     1      29.596  43.866  54.145  1.00  0.00    -0.266 OA
HETATM   14  N   UNL     1      30.177  44.700  56.181  1.00  0.00    -0.274 N 
HETATM   15  C   UNL     1      29.990  45.544  57.236  1.00  0.00     0.327 A 
HETATM   16  H   UNL     1      30.972  44.082  56.219  1.00  0.00     0.173 HD
HETATM   17  O   UNL     1      30.746  45.565  58.201  1.00  0.00    -0.247 OA
HETATM   18  N   UNL     1      28.904  46.370  57.146  1.00  0.00    -0.316 N 
HETATM   19  C   UNL     1      28.039  46.383  56.083  1.00  0.00     0.128 A 
HETATM   20  H   UNL     1      28.759  47.000  57.927  1.00  0.00     0.170 HD
ENDBRANCH   8  11
ENDBRANCH   6   7
BRANCH   2  21
HETATM   21  N   UNL     1      23.780  47.686  49.405  1.00  0.00    -0.327 N 
HETATM   22  C   UNL     1      24.248  48.899  48.923  1.00  0.00     0.226 C 
HETATM   23  O   UNL     1      25.357  49.370  49.148  1.00  0.00    -0.273 OA
HETATM   24  H   UNL     1      22.826  47.440  49.167  1.00  0.00     0.169 HD
BRANCH  22  25
HETATM   25  C   UNL     1      23.198  49.644  48.080  1.00  0.00     0.078 C 
HETATM   26  C   UNL     1      21.919  48.815  47.879  1.00  0.00     0.014 C 
HETATM   27  C   UNL     1      21.010  48.785  49.109  1.00  0.00     0.001 C 
HETATM   28  C   UNL     1      20.711  50.184  49.632  1.00  0.00     0.000 C 
HETATM   29  C   UNL     1      21.992  50.967  49.895  1.00  0.00     0.001 C 
HETATM   30  C   UNL     1      22.870  51.033  48.648  1.00  0.00     0.014 C 
ENDBRANCH  22  25
ENDBRANCH   2  21
BRANCH   4  31
HETATM   31  N   UNL     1      25.119  43.064  50.168  1.00  0.00    -0.327 N 
HETATM   32  C   UNL     1      26.088  42.406  49.424  1.00  0.00     0.226 C 
HETATM   33  O   UNL     1      27.132  42.906  49.016  1.00  0.00    -0.273 OA
HETATM   34  H   UNL     1      24.351  42.499  50.512  1.00  0.00     0.169 HD
BRANCH  32  35
HETATM   35  C   UNL     1      25.729  40.935  49.164  1.00  0.00     0.078 C 
HETATM   36  C   UNL     1      26.135  40.492  47.750  1.00  0.00     0.014 C 
HETATM   37  C   UNL     1      27.641  40.279  47.612  1.00  0.00     0.001 C 
HETATM   38  C   UNL     1      28.161  39.290  48.648  1.00  0.00     0.000 C 
HETATM   39  C   UNL     1      27.807  39.726  50.065  1.00  0.00     0.001 C 
HETATM   40  C   UNL     1      26.310  39.991  50.228  1.00  0.00     0.014 C 
ENDBRANCH  32  35
ENDBRANCH   4  31
TORSDOF 6
ENDMDL
MODEL 3
REMARK VINA RESULT:      -9.4      2.608      7.668
REMARK  6 active torsions:
REMARK  status: ('A' for Active; 'I' for Inactive)
REMARK    1  A    between atoms: C_2  and  N_3 
REMARK       I    between atoms: N_3  and  C_4 
REMARK    2  A    between atoms: C_4  and  C_5 
REMARK    3  A    between atoms: C_13  and  N_14 
REMARK       I    between atoms: N_14  and  C_15 
REMARK    4  A    between atoms: C_15  and  C_16 
REMARK    5  A    between atoms: C_24  and  C_25 
REMARK       I    between atoms: C_25  and  N_26 
REMARK    6  A    between atoms: N_26  and  C_27 
ROOT
HETATM    1  C   UNL     1      24.268  44.737  48.392  1.00  0.00     0.046 A 
HETATM    2  C   UNL     1      25.112  43.788  48.977  1.00  0.00     0.037 A 
HETATM    3  C   UNL     1      25.469  43.924  50.327  1.00  0.00     0.059 A 
HETATM    4  C   UNL     1      24.994  44.986  51.095  1.00  0.00     0.037 A 
HETATM    5  C   UNL     1      24.140  45.919  50.498  1.00  0.00     0.046 A 
HETATM    6  C   UNL     1      23.767  45.805  49.147  1.00  0.00     0.036 A 
ENDROOT
BRANCH   6   7
HETATM    7  C   UNL     1      22.830  46.847  48.607  1.00  0.00     0.256 C 
HETATM    8  N   UNL     1      22.430  47.860  49.458  1.00  0.00    -0.317 N 
HETATM    9  H   UNL     1      22.749  47.870  50.423  1.00  0.00     0.169 HD
HETATM   10  O   UNL     1      22.474  46.754  47.434  1.00  0.00    -0.267 OA
BRANCH   8  11
HETATM   11  C   UNL     1      21.615  48.937  49.162  1.00  0.00     0.119 A 
HETATM   12  C   UNL     1      22.281  50.282  49.166  1.00  0.00     0.277 A 
HETATM   13  O   UNL     1      23.478  50.385  49.425  1.00  0.00    -0.266 OA
HETATM   14  N   UNL     1      21.499  51.363  48.869  1.00  0.00    -0.274 N 
HETATM   15  C   UNL     1      20.171  51.309  48.564  1.00  0.00     0.327 A 
HETATM   16  H   UNL     1      21.937  52.270  48.866  1.00  0.00     0.173 HD
HETATM   17  O   UNL     1      19.518  52.310  48.295  1.00  0.00    -0.247 OA
HETATM   18  N   UNL     1      19.614  50.060  48.575  1.00  0.00    -0.316 N 
HETATM   19  C   UNL     1      20.308  48.914  48.865  1.00  0.00     0.128 A 
HETATM   20  H   UNL     1      18.626  50.012  48.349  1.00  0.00     0.170 HD
ENDBRANCH   8  11
ENDBRANCH   6   7
BRANCH   2  21
HETATM   21  N   UNL     1      25.638  42.670  48.294  1.00  0.00    -0.327 N 
HETATM   22  C   UNL     1      25.532  41.333  48.641  1.00  0.00     0.226 C 
HETATM   23  O   UNL     1      24.955  40.903  49.634  1.00  0.00    -0.273 OA
HETATM   24  H   UNL     1      26.179  42.883  47.462  1.00  0.00     0.169 HD
BRANCH  22  25
HETATM   25  C   UNL     1      26.264  40.406  47.655  1.00  0.00     0.078 C 
HETATM   26  C   UNL     1      27.677  40.913  47.320  1.00  0.00     0.014 C 
HETATM   27  C   UNL     1      28.698  40.653  48.428  1.00  0.00     0.001 C 
HETATM   28  C   UNL     1      28.701  39.195  48.870  1.00  0.00     0.000 C 
HETATM   29  C   UNL     1      27.305  38.730  49.268  1.00  0.00     0.001 C 
HETATM   30  C   UNL     1      26.302  38.949  48.138  1.00  0.00     0.014 C 
ENDBRANCH  22  25
ENDBRANCH   2  21
BRANCH   4  31
HETATM   31  N   UNL     1      25.303  45.176  52.459  1.00  0.00    -0.327 N 
HETATM   32  C   UNL     1      25.813  46.318  53.061  1.00  0.00     0.226 C 
HETATM   33  O   UNL     1      26.017  47.388  52.497  1.00  0.00    -0.273 OA
HETATM   34  H   UNL     1      25.103  44.392  53.070  1.00  0.00     0.169 HD
BRANCH  32  35
HETATM   35  C   UNL     1      26.092  46.116  54.558  1.00  0.00     0.078 C 
HETATM   36  C   UNL     1      26.883  44.825  54.821  1.00  0.00     0.014 C 
HETATM   37  C   UNL     1      28.355  44.953  54.435  1.00  0.00     0.001 C 
HETATM   38  C   UNL     1      29.016  46.133  55.138  1.00  0.00     0.000 C 
HETATM   39  C   UNL     1      28.274  47.435  54.861  1.00  0.00     0.001 C 
HETATM   40  C   UNL     1      26.786  47.331  55.195  1.00  0.00     0.014 C 
ENDBRANCH  32  35
ENDBRANCH   4  31
TORSDOF 6
ENDMDL
MODEL 4
REMARK VINA RESULT:      -9.4      3.531      9.306
REMARK  6 active torsions:
REMARK  status: ('A' for Active; 'I' for Inactive)
REMARK    1  A    between atoms: C_2  and  N_3 
REMARK       I    between atoms: N_3  and  C_4 
REMARK    2  A    between atoms: C_4  and  C_5 
REMARK    3  A    between atoms: C_13  and  N_14 
REMARK       I    between atoms: N_14  and  C_15 
REMARK    4  A    between atoms: C_15  and  C_16 
REMARK    5  A    between atoms: C_24  and  C_25 
REMARK       I    between atoms: C_25  and  N_26 
REMARK    6  A    between atoms: N_26  and  C_27 
ROOT
HETATM    1  C   UNL     1      23.691  48.067  49.688  1.00  0.00     0.046 A 
HETATM    2  C   UNL     1      22.662  47.869  48.762  1.00  0.00     0.037 A 
HETATM    3  C   UNL     1      22.389  46.572  48.304  1.00  0.00     0.059 A 
HETATM    4  C   UNL     1      23.122  45.478  48.760  1.00  0.00     0.037 A 
HETATM    5  C   UNL     1      24.139  45.692  49.695  1.00  0.00     0.046 A 
HETATM    6  C   UNL     1      24.434  46.982  50.170  1.00  0.00     0.036 A 
ENDROOT
BRANCH   6   7
HETATM    7  C   UNL     1      25.531  47.102  51.188  1.00  0.00     0.256 C 
HETATM    8  N   UNL     1      25.440  46.330  52.330  1.00  0.00    -0.317 N 
HETATM    9  H   UNL     1      24.636  45.724  52.473  1.00  0.00     0.169 HD
HETATM   10  O   UNL     1      26.460  47.872  50.951  1.00  0.00    -0.267 OA
BRANCH   8  11
HETATM   11  C   UNL     1      26.350  46.249  53.368  1.00  0.00     0.119 A 
HETATM   12  C   UNL     1      26.266  47.338  54.399  1.00  0.00     0.277 A 
HETATM   13  O   UNL     1      25.432  48.234  54.293  1.00  0.00    -0.266 OA
HETATM   14  N   UNL     1      27.150  47.277  55.439  1.00  0.00    -0.274 N 
HETATM   15  C   UNL     1      28.089  46.303  55.614  1.00  0.00     0.327 A 
HETATM   16  H   UNL     1      27.100  48.002  56.137  1.00  0.00     0.173 HD
HETATM   17  O   UNL     1      28.850  46.291  56.573  1.00  0.00    -0.247 OA
HETATM   18  N   UNL     1      28.122  45.337  54.647  1.00  0.00    -0.316 N 
HETATM   19  C   UNL     1      27.285  45.309  53.562  1.00  0.00     0.128 A 
HETATM   20  H   UNL     1      28.818  44.609  54.771  1.00  0.00     0.170 HD
ENDBRANCH   8  11
ENDBRANCH   6   7
BRANCH   2  21
HETATM   21  N   UNL     1      21.852  48.905  48.248  1.00  0.00    -0.327 N 
HETATM   22  C   UNL     1      20.610  49.320  48.703  1.00  0.00     0.226 C 
HETATM   23  O   UNL     1      20.001  48.827  49.646  1.00  0.00    -0.273 OA
HETATM   24  H   UNL     1      22.220  49.382  47.432  1.00  0.00     0.169 HD
BRANCH  22  25
HETATM   25  C   UNL     1      20.027  50.469  47.862  1.00  0.00     0.078 C 
HETATM   26  C   UNL     1      18.617  50.149  47.337  1.00  0.00     0.014 C 
HETATM   27  C   UNL     1      17.525  50.280  48.400  1.00  0.00     0.001 C 
HETATM   28  C   UNL     1      17.580  51.626  49.112  1.00  0.00     0.000 C 
HETATM   29  C   UNL     1      18.965  51.895  49.689  1.00  0.00     0.001 C 
HETATM   30  C   UNL     1      20.044  51.810  48.612  1.00  0.00     0.014 C 
ENDBRANCH  22  25
ENDBRANCH   2  21
BRANCH   4  31
HETATM   31  N   UNL     1      22.893  44.147  48.350  1.00  0.00    -0.327 N 
HETATM   32  C   UNL     1      22.954  43.634  47.062  1.00  0.00     0.226 C 
HETATM   33  O   UNL     1      23.289  44.262  46.062  1.00  0.00    -0.273 OA
HETATM   34  H   UNL     1      22.686  43.486  49.091  1.00  0.00     0.169 HD
BRANCH  32  35
HETATM   35  C   UNL     1      22.565  42.148  47.003  1.00  0.00     0.078 C 
HETATM   36  C   UNL     1      23.179  41.448  45.781  1.00  0.00     0.014 C 
HETATM   37  C   UNL     1      24.673  41.179  45.950  1.00  0.00     0.001 C 
HETATM   38  C   UNL     1      24.955  40.382  47.218  1.00  0.00     0.000 C 
HETATM   39  C   UNL     1      24.391  41.076  48.453  1.00  0.00     0.001 C 
HETATM   40  C   UNL     1      22.905  41.399  48.301  1.00  0.00     0.014 C 
ENDBRANCH  32  35
ENDBRANCH   4  31
TORSDOF 6
ENDMDL
MODEL 5
REMARK VINA RESULT:      -9.3      3.338      5.214
REMARK  6 active torsions:
REMARK  status: ('A' for Active; 'I' for Inactive)
REMARK    1  A    between atoms: C_2  and  N_3 
REMARK       I    between atoms: N_3  and  C_4 
REMARK    2  A    between atoms: C_4  and  C_5 
REMARK    3  A    between atoms: C_13  and  N_14 
REMARK       I    between atoms: N_14  and  C_15 
REMARK    4  A    between atoms: C_15  and  C_16 
REMARK    5  A    between atoms: C_24  and  C_25 
REMARK       I    between atoms: C_25  and  N_26 
REMARK    6  A    between atoms: N_26  and  C_27 
ROOT
HETATM    1  C   UNL     1      24.782  45.472  51.012  1.00  0.00     0.046 A 
HETATM    2  C   UNL     1      25.184  44.134  51.061  1.00  0.00     0.037 A 
HETATM    3  C   UNL     1      24.927  43.298  49.964  1.00  0.00     0.059 A 
HETATM    4  C   UNL     1      24.282  43.779  48.826  1.00  0.00     0.037 A 
HETATM    5  C   UNL     1      23.898  45.123  48.789  1.00  0.00     0.046 A 
HETATM    6  C   UNL     1      24.143  45.982  49.875  1.00  0.00     0.036 A 
ENDROOT
BRANCH   6   7
HETATM    7  C   UNL     1      23.709  47.412  49.727  1.00  0.00     0.256 C 
HETATM    8  N   UNL     1      22.467  47.657  49.174  1.00  0.00    -0.317 N 
HETATM    9  H   UNL     1      21.888  46.882  48.860  1.00  0.00     0.169 HD
HETATM   10  O   UNL     1      24.475  48.293  50.114  1.00  0.00    -0.267 OA
BRANCH   8  11
HETATM   11  C   UNL     1      21.854  48.882  48.986  1.00  0.00     0.119 A 
HETATM   12  C   UNL     1      20.368  48.910  49.202  1.00  0.00     0.277 A 
HETATM   13  O   UNL     1      19.765  47.888  49.520  1.00  0.00    -0.266 OA
HETATM   14  N   UNL     1      19.739  50.110  49.030  1.00  0.00    -0.274 N 
HETATM   15  C   UNL     1      20.357  51.277  48.688  1.00  0.00     0.327 A 
HETATM   16  H   UNL     1      18.742  50.141  49.175  1.00  0.00     0.173 HD
HETATM   17  O   UNL     1      19.745  52.330  48.558  1.00  0.00    -0.247 OA
HETATM   18  N   UNL     1      21.709  51.196  48.504  1.00  0.00    -0.316 N 
HETATM   19  C   UNL     1      22.434  50.041  48.646  1.00  0.00     0.128 A 
HETATM   20  H   UNL     1      22.176  52.060  48.250  1.00  0.00     0.170 HD
ENDBRANCH   8  11
ENDBRANCH   6   7
BRANCH   2  21
HETATM   21  N   UNL     1      25.854  43.549  52.158  1.00  0.00    -0.327 N 
HETATM   22  C   UNL     1      27.216  43.337  52.308  1.00  0.00     0.226 C 
HETATM   23  O   UNL     1      28.073  43.625  51.480  1.00  0.00    -0.273 OA
HETATM   24  H   UNL     1      25.258  43.226  52.911  1.00  0.00     0.169 HD
BRANCH  22  25
HETATM   25  C   UNL     1      27.562  42.648  53.639  1.00  0.00     0.078 C 
HETATM   26  C   UNL     1      28.876  41.852  53.558  1.00  0.00     0.014 C 
HETATM   27  C   UNL     1      30.126  42.731  53.608  1.00  0.00     0.001 C 
HETATM   28  C   UNL     1      30.107  43.685  54.795  1.00  0.00     0.000 C 
HETATM   29  C   UNL     1      28.830  44.517  54.821  1.00  0.00     0.001 C 
HETATM   30  C   UNL     1      27.587  43.631  54.819  1.00  0.00     0.014 C 
ENDBRANCH  22  25
ENDBRANCH   2  21
BRANCH   4  31
HETATM   31  N   UNL     1      24.004  42.997  47.685  1.00  0.00    -0.327 N 
HETATM   32  C   UNL     1      23.132  41.922  47.586  1.00  0.00     0.226 C 
HETATM   33  O   UNL     1      22.400  41.516  48.484  1.00  0.00    -0.273 OA
HETATM   34  H   UNL     1      24.479  43.274  46.833  1.00  0.00     0.169 HD
BRANCH  32  35
HETATM   35  C   UNL     1      23.154  41.274  46.193  1.00  0.00     0.078 C 
HETATM   36  C   UNL     1      21.897  40.428  45.939  1.00  0.00     0.014 C 
HETATM   37  C   UNL     1      20.664  41.283  45.659  1.00  0.00     0.001 C 
HETATM   38  C   UNL     1      20.902  42.242  44.499  1.00  0.00     0.000 C 
HETATM   39  C   UNL     1      22.121  43.123  44.743  1.00  0.00     0.001 C 
HETATM   40  C   UNL     1      23.368  42.302  45.070  1.00  0.00     0.014 C 
ENDBRANCH  32  35
ENDBRANCH   4  31
TORSDOF 6
ENDMDL
MODEL 6
REMARK VINA RESULT:      -9.2      4.415     10.509
REMARK  6 active torsions:
REMARK  status: ('A' for Active; 'I' for Inactive)
REMARK    1  A    between atoms: C_2  and  N_3 
REMARK       I    between atoms: N_3  and  C_4 
REMARK    2  A    between atoms: C_4  and  C_5 
REMARK    3  A    between atoms: C_13  and  N_14 
REMARK       I    between atoms: N_14  and  C_15 
REMARK    4  A    between atoms: C_15  and  C_16 
REMARK    5  A    between atoms: C_24  and  C_25 
REMARK       I    between atoms: C_25  and  N_26 
REMARK    6  A    between atoms: N_26  and  C_27 
ROOT
HETATM    1  C   UNL     1      22.293  49.024  49.402  1.00  0.00     0.046 A 
HETATM    2  C   UNL     1      21.139  49.280  48.655  1.00  0.00     0.037 A 
HETATM    3  C   UNL     1      20.725  48.353  47.688  1.00  0.00     0.059 A 
HETATM    4  C   UNL     1      21.442  47.179  47.461  1.00  0.00     0.037 A 
HETATM    5  C   UNL     1      22.587  46.932  48.226  1.00  0.00     0.046 A 
HETATM    6  C   UNL     1      23.023  47.845  49.202  1.00  0.00     0.036 A 
ENDROOT
BRANCH   6   7
HETATM    7  C   UNL     1      24.252  47.477  49.982  1.00  0.00     0.256 C 
HETATM    8  N   UNL     1      24.278  46.243  50.603  1.00  0.00    -0.317 N 
HETATM    9  H   UNL     1      23.472  45.626  50.544  1.00  0.00     0.169 HD
HETATM   10  O   UNL     1      25.177  48.286  50.022  1.00  0.00    -0.267 OA
BRANCH   8  11
HETATM   11  C   UNL     1      25.314  45.686  51.329  1.00  0.00     0.119 A 
HETATM   12  C   UNL     1      26.270  44.827  50.553  1.00  0.00     0.277 A 
HETATM   13  O   UNL     1      26.109  44.647  49.348  1.00  0.00    -0.266 OA
HETATM   14  N   UNL     1      27.308  44.270  51.246  1.00  0.00    -0.274 N 
HETATM   15  C   UNL     1      27.542  44.443  52.578  1.00  0.00     0.327 A 
HETATM   16  H   UNL     1      27.956  43.694  50.733  1.00  0.00     0.173 HD
HETATM   17  O   UNL     1      28.496  43.928  53.149  1.00  0.00    -0.247 OA
HETATM   18  N   UNL     1      26.642  45.233  53.237  1.00  0.00    -0.316 N 
HETATM   19  C   UNL     1      25.565  45.833  52.637  1.00  0.00     0.128 A 
HETATM   20  H   UNL     1      26.810  45.366  54.229  1.00  0.00     0.170 HD
ENDBRANCH   8  11
ENDBRANCH   6   7
BRANCH   2  21
HETATM   21  N   UNL     1      20.334  50.430  48.814  1.00  0.00    -0.327 N 
HETATM   22  C   UNL     1      19.306  50.630  49.721  1.00  0.00     0.226 C 
HETATM   23  O   UNL     1      18.920  49.810  50.546  1.00  0.00    -0.273 OA
HETATM   24  H   UNL     1      20.522  51.185  48.164  1.00  0.00     0.169 HD
BRANCH  22  25
HETATM   25  C   UNL     1      18.645  52.011  49.569  1.00  0.00     0.078 C 
HETATM   26  C   UNL     1      18.857  52.606  48.167  1.00  0.00     0.014 C 
HETATM   27  C   UNL     1      17.960  51.983  47.097  1.00  0.00     0.001 C 
HETATM   28  C   UNL     1      16.493  51.989  47.508  1.00  0.00     0.000 C 
HETATM   29  C   UNL     1      16.291  51.331  48.868  1.00  0.00     0.001 C 
HETATM   30  C   UNL     1      17.155  51.992  49.940  1.00  0.00     0.014 C 
ENDBRANCH  22  25
ENDBRANCH   2  21
BRANCH   4  31
HETATM   31  N   UNL     1      21.076  46.199  46.514  1.00  0.00    -0.327 N 
HETATM   32  C   UNL     1      20.479  44.970  46.753  1.00  0.00     0.226 C 
HETATM   33  O   UNL     1      20.107  44.562  47.849  1.00  0.00    -0.273 OA
HETATM   34  H   UNL     1      21.249  46.438  45.543  1.00  0.00     0.169 HD
BRANCH  32  35
HETATM   35  C   UNL     1      20.304  44.143  45.470  1.00  0.00     0.078 C 
HETATM   36  C   UNL     1      21.469  44.357  44.491  1.00  0.00     0.014 C 
HETATM   37  C   UNL     1      22.742  43.638  44.931  1.00  0.00     0.001 C 
HETATM   38  C   UNL     1      22.495  42.149  45.145  1.00  0.00     0.000 C 
HETATM   39  C   UNL     1      21.369  41.907  46.143  1.00  0.00     0.001 C 
HETATM   40  C   UNL     1      20.090  42.648  45.758  1.00  0.00     0.014 C 
ENDBRANCH  32  35
ENDBRANCH   4  31
TORSDOF 6
ENDMDL
MODEL 7
REMARK VINA RESULT:      -9.2      3.786      8.065
REMARK  6 active torsions:
REMARK  status: ('A' for Active; 'I' for Inactive)
REMARK    1  A    between atoms: C_2  and  N_3 
REMARK       I    between atoms: N_3  and  C_4 
REMARK    2  A    between atoms: C_4  and  C_5 
REMARK    3  A    between atoms: C_13  and  N_14 
REMARK       I    between atoms: N_14  and  C_15 
REMARK    4  A    between atoms: C_15  and  C_16 
REMARK    5  A    between atoms: C_24  and  C_25 
REMARK       I    between atoms: C_25  and  N_26 
REMARK    6  A    between atoms: N_26  and  C_27 
ROOT
HETATM    1  C   UNL     1      24.095  43.448  50.373  1.00  0.00     0.046 A 
HETATM    2  C   UNL     1      24.727  44.312  51.273  1.00  0.00     0.037 A 
HETATM    3  C   UNL     1      24.686  45.695  51.044  1.00  0.00     0.059 A 
HETATM    4  C   UNL     1      24.023  46.223  49.937  1.00  0.00     0.037 A 
HETATM    5  C   UNL     1      23.386  45.346  49.054  1.00  0.00     0.046 A 
HETATM    6  C   UNL     1      23.412  43.955  49.261  1.00  0.00     0.036 A 
ENDROOT
BRANCH   6   7
HETATM    7  C   UNL     1      22.680  43.102  48.265  1.00  0.00     0.256 C 
HETATM    8  N   UNL     1      22.282  43.689  47.080  1.00  0.00    -0.317 N 
HETATM    9  H   UNL     1      22.465  44.675  46.913  1.00  0.00     0.169 HD
HETATM   10  O   UNL     1      22.481  41.922  48.549  1.00  0.00    -0.267 OA
BRANCH   8  11
HETATM   11  C   UNL     1      21.641  43.085  46.013  1.00  0.00     0.119 A 
HETATM   12  C   UNL     1      20.143  43.181  46.012  1.00  0.00     0.277 A 
HETATM   13  O   UNL     1      19.554  43.762  46.921  1.00  0.00    -0.266 OA
HETATM   14  N   UNL     1      19.485  42.599  44.965  1.00  0.00    -0.274 N 
HETATM   15  C   UNL     1      20.085  41.951  43.926  1.00  0.00     0.327 A 
HETATM   16  H   UNL     1      18.479  42.660  44.953  1.00  0.00     0.173 HD
HETATM   17  O   UNL     1      19.446  41.456  43.005  1.00  0.00    -0.247 OA
HETATM   18  N   UNL     1      21.450  41.893  43.977  1.00  0.00    -0.316 N 
HETATM   19  C   UNL     1      22.203  42.438  44.984  1.00  0.00     0.128 A 
HETATM   20  H   UNL     1      21.903  41.412  43.207  1.00  0.00     0.170 HD
ENDBRANCH   8  11
ENDBRANCH   6   7
BRANCH   2  21
HETATM   21  N   UNL     1      25.414  43.883  52.430  1.00  0.00    -0.327 N 
HETATM   22  C   UNL     1      26.713  43.409  52.523  1.00  0.00     0.226 C 
HETATM   23  O   UNL     1      27.486  43.276  51.581  1.00  0.00    -0.273 OA
HETATM   24  H   UNL     1      24.875  43.905  53.290  1.00  0.00     0.169 HD
BRANCH  22  25
HETATM   25  C   UNL     1      27.097  43.014  53.959  1.00  0.00     0.078 C 
HETATM   26  C   UNL     1      28.501  42.392  54.036  1.00  0.00     0.014 C 
HETATM   27  C   UNL     1      29.630  43.419  53.943  1.00  0.00     0.001 C 
HETATM   28  C   UNL     1      29.451  44.556  54.941  1.00  0.00     0.000 C 
HETATM   29  C   UNL     1      28.081  45.209  54.803  1.00  0.00     0.001 C 
HETATM   30  C   UNL     1      26.958  44.184  54.945  1.00  0.00     0.014 C 
ENDBRANCH  22  25
ENDBRANCH   2  21
BRANCH   4  31
HETATM   31  N   UNL     1      23.933  47.602  49.653  1.00  0.00    -0.327 N 
HETATM   32  C   UNL     1      22.819  48.307  49.220  1.00  0.00     0.226 C 
HETATM   33  O   UNL     1      21.694  47.840  49.076  1.00  0.00    -0.273 OA
HETATM   34  H   UNL     1      24.777  48.141  49.811  1.00  0.00     0.169 HD
BRANCH  32  35
HETATM   35  C   UNL     1      23.132  49.786  48.943  1.00  0.00     0.078 C 
HETATM   36  C   UNL     1      22.647  50.219  47.551  1.00  0.00     0.014 C 
HETATM   37  C   UNL     1      21.132  50.399  47.489  1.00  0.00     0.001 C 
HETATM   38  C   UNL     1      20.642  51.377  48.550  1.00  0.00     0.000 C 
HETATM   39  C   UNL     1      21.075  50.948  49.947  1.00  0.00     0.001 C 
HETATM   40  C   UNL     1      22.583  50.717  50.036  1.00  0.00     0.014 C 
ENDBRANCH  32  35
ENDBRANCH   4  31
TORSDOF 6
ENDMDL
MODEL 8
REMARK VINA RESULT:      -9.2      3.246      8.395
REMARK  6 active torsions:
REMARK  status: ('A' for Active; 'I' for Inactive)
REMARK    1  A    between atoms: C_2  and  N_3 
REMARK       I    between atoms: N_3  and  C_4 
REMARK    2  A    between atoms: C_4  and  C_5 
REMARK    3  A    between atoms: C_13  and  N_14 
REMARK       I    between atoms: N_14  and  C_15 
REMARK    4  A    between atoms: C_15  and  C_16 
REMARK    5  A    between atoms: C_24  and  C_25 
REMARK       I    between atoms: C_25  and  N_26 
REMARK    6  A    between atoms: N_26  and  C_27 
ROOT
HETATM    1  C   UNL     1      24.027  44.970  48.725  1.00  0.00     0.046 A 
HETATM    2  C   UNL     1      24.441  43.643  48.875  1.00  0.00     0.037 A 
HETATM    3  C   UNL     1      25.045  43.242  50.075  1.00  0.00     0.059 A 
HETATM    4  C   UNL     1      25.236  44.143  51.122  1.00  0.00     0.037 A 
HETATM    5  C   UNL     1      24.805  45.463  50.960  1.00  0.00     0.046 A 
HETATM    6  C   UNL     1      24.196  45.890  49.767  1.00  0.00     0.036 A 
ENDROOT
BRANCH   6   7
HETATM    7  C   UNL     1      23.750  47.323  49.702  1.00  0.00     0.256 C 
HETATM    8  N   UNL     1      22.557  47.600  49.062  1.00  0.00    -0.317 N 
HETATM    9  H   UNL     1      22.024  46.849  48.632  1.00  0.00     0.169 HD
HETATM   10  O   UNL     1      24.462  48.176  50.229  1.00  0.00    -0.267 OA
BRANCH   8  11
HETATM   11  C   UNL     1      21.940  48.830  48.923  1.00  0.00     0.119 A 
HETATM   12  C   UNL     1      20.452  48.842  49.121  1.00  0.00     0.277 A 
HETATM   13  O   UNL     1      19.850  47.803  49.384  1.00  0.00    -0.266 OA
HETATM   14  N   UNL     1      19.819  50.046  48.998  1.00  0.00    -0.274 N 
HETATM   15  C   UNL     1      20.436  51.230  48.718  1.00  0.00     0.327 A 
HETATM   16  H   UNL     1      18.821  50.065  49.131  1.00  0.00     0.173 HD
HETATM   17  O   UNL     1      19.819  52.285  48.629  1.00  0.00    -0.247 OA
HETATM   18  N   UNL     1      21.790  51.163  48.547  1.00  0.00    -0.316 N 
HETATM   19  C   UNL     1      22.519  50.006  48.644  1.00  0.00     0.128 A 
HETATM   20  H   UNL     1      22.255  52.040  48.339  1.00  0.00     0.170 HD
ENDBRANCH   8  11
ENDBRANCH   6   7
BRANCH   2  21
HETATM   21  N   UNL     1      24.284  42.650  47.884  1.00  0.00    -0.327 N 
HETATM   22  C   UNL     1      23.342  41.634  47.838  1.00  0.00     0.226 C 
HETATM   23  O   UNL     1      22.479  41.431  48.685  1.00  0.00    -0.273 OA
HETATM   24  H   UNL     1      24.963  42.674  47.130  1.00  0.00     0.169 HD
BRANCH  22  25
HETATM   25  C   UNL     1      23.508  40.729  46.605  1.00  0.00     0.078 C 
HETATM   26  C   UNL     1      22.385  39.684  46.495  1.00  0.00     0.014 C 
HETATM   27  C   UNL     1      21.064  40.259  45.981  1.00  0.00     0.001 C 
HETATM   28  C   UNL     1      21.247  41.042  44.688  1.00  0.00     0.000 C 
HETATM   29  C   UNL     1      22.313  42.122  44.836  1.00  0.00     0.001 C 
HETATM   30  C   UNL     1      23.642  41.533  45.303  1.00  0.00     0.014 C 
ENDBRANCH  22  25
ENDBRANCH   2  21
BRANCH   4  31
HETATM   31  N   UNL     1      25.825  43.804  52.359  1.00  0.00    -0.327 N 
HETATM   32  C   UNL     1      27.177  43.688  52.650  1.00  0.00     0.226 C 
HETATM   33  O   UNL     1      28.095  43.931  51.873  1.00  0.00    -0.273 OA
HETATM   34  H   UNL     1      25.182  43.656  53.129  1.00  0.00     0.169 HD
BRANCH  32  35
HETATM   35  C   UNL     1      27.429  43.225  54.094  1.00  0.00     0.078 C 
HETATM   36  C   UNL     1      28.644  42.289  54.187  1.00  0.00     0.014 C 
HETATM   37  C   UNL     1      29.969  43.037  54.063  1.00  0.00     0.001 C 
HETATM   38  C   UNL     1      30.078  44.154  55.094  1.00  0.00     0.000 C 
HETATM   39  C   UNL     1      28.905  45.122  54.997  1.00  0.00     0.001 C 
HETATM   40  C   UNL     1      27.558  44.402  55.074  1.00  0.00     0.014 C 
ENDBRANCH  32  35
ENDBRANCH   4  31
TORSDOF 6
ENDMDL
MODEL 9
REMARK VINA RESULT:      -9.2      4.587     11.106
REMARK  6 active torsions:
REMARK  status: ('A' for Active; 'I' for Inactive)
REMARK    1  A    between atoms: C_2  and  N_3 
REMARK       I    between atoms: N_3  and  C_4 
REMARK    2  A    between atoms: C_4  and  C_5 
REMARK    3  A    between atoms: C_13  and  N_14 
REMARK       I    between atoms: N_14  and  C_15 
REMARK    4  A    between atoms: C_15  and  C_16 
REMARK    5  A    between atoms: C_24  and  C_25 
REMARK       I    between atoms: C_25  and  N_26 
REMARK    6  A    between atoms: N_26  and  C_27 
ROOT
HETATM    1  C   UNL     1      21.913  48.871  49.224  1.00  0.00     0.046 A 
HETATM    2  C   UNL     1      20.690  49.148  48.606  1.00  0.00     0.037 A 
HETATM    3  C   UNL     1      20.107  48.184  47.770  1.00  0.00     0.059 A 
HETATM    4  C   UNL     1      20.725  46.954  47.548  1.00  0.00     0.037 A 
HETATM    5  C   UNL     1      21.941  46.689  48.184  1.00  0.00     0.046 A 
HETATM    6  C   UNL     1      22.546  47.637  49.027  1.00  0.00     0.036 A 
ENDROOT
BRANCH   6   7
HETATM    7  C   UNL     1      23.842  47.246  49.678  1.00  0.00     0.256 C 
HETATM    8  N   UNL     1      24.163  45.903  49.722  1.00  0.00    -0.317 N 
HETATM    9  H   UNL     1      23.520  45.213  49.344  1.00  0.00     0.169 HD
HETATM   10  O   UNL     1      24.557  48.139  50.128  1.00  0.00    -0.267 OA
BRANCH   8  11
HETATM   11  C   UNL     1      25.314  45.327  50.229  1.00  0.00     0.119 A 
HETATM   12  C   UNL     1      25.165  44.610  51.539  1.00  0.00     0.277 A 
HETATM   13  O   UNL     1      24.074  44.561  52.103  1.00  0.00    -0.266 OA
HETATM   14  N   UNL     1      26.286  44.026  52.058  1.00  0.00    -0.274 N 
HETATM   15  C   UNL     1      27.518  44.039  51.473  1.00  0.00     0.327 A 
HETATM   16  H   UNL     1      26.196  43.540  52.935  1.00  0.00     0.173 HD
HETATM   17  O   UNL     1      28.490  43.488  51.978  1.00  0.00    -0.247 OA
HETATM   18  N   UNL     1      27.599  44.706  50.282  1.00  0.00    -0.316 N 
HETATM   19  C   UNL     1      26.537  45.329  49.680  1.00  0.00     0.128 A 
HETATM   20  H   UNL     1      28.512  44.719  49.841  1.00  0.00     0.170 HD
ENDBRANCH   8  11
ENDBRANCH   6   7
BRANCH   2  21
HETATM   21  N   UNL     1      19.976  50.355  48.774  1.00  0.00    -0.327 N 
HETATM   22  C   UNL     1      19.097  50.690  49.792  1.00  0.00     0.226 C 
HETATM   23  O   UNL     1      18.789  49.961  50.729  1.00  0.00    -0.273 OA
HETATM   24  H   UNL     1      20.108  51.044  48.042  1.00  0.00     0.169 HD
BRANCH  22  25
HETATM   25  C   UNL     1      18.493  52.093  49.613  1.00  0.00     0.078 C 
HETATM   26  C   UNL     1      18.740  52.658  48.204  1.00  0.00     0.014 C 
HETATM   27  C   UNL     1      17.827  52.054  47.136  1.00  0.00     0.001 C 
HETATM   28  C   UNL     1      16.359  52.126  47.534  1.00  0.00     0.000 C 
HETATM   29  C   UNL     1      16.120  51.497  48.902  1.00  0.00     0.001 C 
HETATM   30  C   UNL     1      17.000  52.139  49.971  1.00  0.00     0.014 C 
ENDBRANCH  22  25
ENDBRANCH   2  21
BRANCH   4  31
HETATM   31  N   UNL     1      20.189  45.937  46.730  1.00  0.00    -0.327 N 
HETATM   32  C   UNL     1      19.337  44.908  47.104  1.00  0.00     0.226 C 
HETATM   33  O   UNL     1      18.852  44.758  48.222  1.00  0.00    -0.273 OA
HETATM   34  H   UNL     1      20.438  45.984  45.748  1.00  0.00     0.169 HD
BRANCH  32  35
HETATM   35  C   UNL     1      19.030  43.948  45.944  1.00  0.00     0.078 C 
HETATM   36  C   UNL     1      17.553  44.013  45.527  1.00  0.00     0.014 C 
HETATM   37  C   UNL     1      17.224  45.276  44.735  1.00  0.00     0.001 C 
HETATM   38  C   UNL     1      18.126  45.420  43.515  1.00  0.00     0.000 C 
HETATM   39  C   UNL     1      19.600  45.400  43.905  1.00  0.00     0.001 C 
HETATM   40  C   UNL     1      19.957  44.169  44.738  1.00  0.00     0.014 C 
ENDBRANCH  32  35
ENDBRANCH   4  31
TORSDOF 6
ENDMDL
MODEL 10
REMARK VINA RESULT:      -9.1      2.621      3.816
REMARK  6 active torsions:
REMARK  status: ('A' for Active; 'I' for Inactive)
REMARK    1  A    between atoms: C_2  and  N_3 
REMARK       I    between atoms: N_3  and  C_4 
REMARK    2  A    between atoms: C_4  and  C_5 
REMARK    3  A    between atoms: C_13  and  N_14 
REMARK       I    between atoms: N_14  and  C_15 
REMARK    4  A    between atoms: C_15  and  C_16 
REMARK    5  A    between atoms: C_24  and  C_25 
REMARK       I    between atoms: C_25  and  N_26 
REMARK    6  A    between atoms: N_26  and  C_27 
ROOT
HETATM    1  C   UNL     1      24.537  44.339  50.450  1.00  0.00     0.046 A 
HETATM    2  C   UNL     1      25.339  43.255  50.820  1.00  0.00     0.037 A 
HETATM    3  C   UNL     1      25.648  42.271  49.869  1.00  0.00     0.059 A 
HETATM    4  C   UNL     1      25.173  42.358  48.562  1.00  0.00     0.037 A 
HETATM    5  C   UNL     1      24.382  43.455  48.205  1.00  0.00     0.046 A 
HETATM    6  C   UNL     1      24.058  44.455  49.139  1.00  0.00     0.036 A 
ENDROOT
BRANCH   6   7
HETATM    7  C   UNL     1      23.221  45.602  48.651  1.00  0.00     0.256 C 
HETATM    8  N   UNL     1      23.171  46.743  49.429  1.00  0.00    -0.317 N 
HETATM    9  H   UNL     1      23.671  46.779  50.313  1.00  0.00     0.169 HD
HETATM   10  O   UNL     1      22.630  45.473  47.580  1.00  0.00    -0.267 OA
BRANCH   8  11
HETATM   11  C   UNL     1      22.505  47.923  49.153  1.00  0.00     0.119 A 
HETATM   12  C   UNL     1      23.343  49.168  49.174  1.00  0.00     0.277 A 
HETATM   13  O   UNL     1      24.544  49.107  49.430  1.00  0.00    -0.266 OA
HETATM   14  N   UNL     1      22.711  50.347  48.898  1.00  0.00    -0.274 N 
HETATM   15  C   UNL     1      21.387  50.474  48.597  1.00  0.00     0.327 A 
HETATM   16  H   UNL     1      23.266  51.188  48.907  1.00  0.00     0.173 HD
HETATM   17  O   UNL     1      20.872  51.557  48.346  1.00  0.00    -0.247 OA
HETATM   18  N   UNL     1      20.670  49.310  48.592  1.00  0.00    -0.316 N 
HETATM   19  C   UNL     1      21.207  48.078  48.861  1.00  0.00     0.128 A 
HETATM   20  H   UNL     1      19.684  49.397  48.369  1.00  0.00     0.170 HD
ENDBRANCH   8  11
ENDBRANCH   6   7
BRANCH   2  21
HETATM   21  N   UNL     1      25.882  43.078  52.112  1.00  0.00    -0.327 N 
HETATM   22  C   UNL     1      27.144  43.432  52.561  1.00  0.00     0.226 C 
HETATM   23  O   UNL     1      28.015  43.963  51.879  1.00  0.00    -0.273 OA
HETATM   24  H   UNL     1      25.277  42.611  52.779  1.00  0.00     0.169 HD
BRANCH  22  25
HETATM   25  C   UNL     1      27.377  43.052  54.033  1.00  0.00     0.078 C 
HETATM   26  C   UNL     1      28.713  42.321  54.241  1.00  0.00     0.014 C 
HETATM   27  C   UNL     1      29.928  43.250  54.219  1.00  0.00     0.001 C 
HETATM   28  C   UNL     1      29.763  44.428  55.171  1.00  0.00     0.000 C 
HETATM   29  C   UNL     1      28.467  45.184  54.904  1.00  0.00     0.001 C 
HETATM   30  C   UNL     1      27.256  44.258  54.976  1.00  0.00     0.014 C 
ENDBRANCH  22  25
ENDBRANCH   2  21
BRANCH   4  31
HETATM   31  N   UNL     1      25.454  41.412  47.553  1.00  0.00    -0.327 N 
HETATM   32  C   UNL     1      26.698  41.035  47.068  1.00  0.00     0.226 C 
HETATM   33  O   UNL     1      27.777  41.428  47.498  1.00  0.00    -0.273 OA
HETATM   34  H   UNL     1      24.650  40.935  47.159  1.00  0.00     0.169 HD
BRANCH  32  35
HETATM   35  C   UNL     1      26.596  40.027  45.912  1.00  0.00     0.078 C 
HETATM   36  C   UNL     1      25.625  40.508  44.823  1.00  0.00     0.014 C 
HETATM   37  C   UNL     1      26.215  41.625  43.964  1.00  0.00     0.001 C 
HETATM   38  C   UNL     1      27.544  41.208  43.345  1.00  0.00     0.000 C 
HETATM   39  C   UNL     1      28.541  40.764  44.408  1.00  0.00     0.001 C 
HETATM   40  C   UNL     1      27.968  39.676  45.316  1.00  0.00     0.014 C 
ENDBRANCH  32  35
ENDBRANCH   4  31
TORSDOF 6
ENDMDL
