MODEL 1
REMARK VINA RESULT:      -9.8      0.000      0.000
REMARK  5 active torsions:
REMARK  status: ('A' for Active; 'I' for Inactive)
REMARK    1  A    between atoms: C_3  and  C_4 
REMARK       I    between atoms: C_4  and  N_5 
REMARK    2  A    between atoms: N_5  and  C_6 
REMARK    3  A    between atoms: C_6  and  C_7 
REMARK    4  A    between atoms: C_10  and  O_11 
REMARK    5  A    between atoms: O_11  and  C_12 
ROOT
HETATM    1  C   UNL     1      23.077  51.262  48.804  1.00  0.00     0.052 C 
HETATM    2  C   UNL     1      22.390  49.951  48.952  1.00  0.00    -0.009 A 
HETATM    3  C   UNL     1      22.991  48.711  49.173  1.00  0.00     0.150 A 
HETATM    4  O   UNL     1      22.038  47.735  49.158  1.00  0.00    -0.304 OA
HETATM    5  C   UNL     1      20.835  48.319  48.969  1.00  0.00     0.088 A 
HETATM    6  C   UNL     1      20.969  49.699  48.844  1.00  0.00     0.020 A 
HETATM    7  C   UNL     1      19.773  50.439  48.647  1.00  0.00     0.011 A 
HETATM    8  C   UNL     1      18.543  49.755  48.590  1.00  0.00     0.081 A 
HETATM    9  O   UNL     1      17.342  50.381  48.389  1.00  0.00    -0.336 OA
HETATM   10  C   UNL     1      17.284  51.813  48.551  1.00  0.00     0.078 C 
HETATM   11  C   UNL     1      16.647  52.091  49.918  1.00  0.00     0.051 C 
HETATM   12  C   UNL     1      16.356  52.319  47.439  1.00  0.00     0.051 C 
HETATM   13  C   UNL     1      18.616  52.522  48.455  1.00  0.00     0.012 C 
HETATM   14  C   UNL     1      19.791  51.884  48.496  1.00  0.00     0.014 C 
HETATM   15  C   UNL     1      18.479  48.368  48.705  1.00  0.00     0.040 A 
HETATM   16  C   UNL     1      19.634  47.616  48.905  1.00  0.00     0.041 A 
ENDROOT
BRANCH   3  17
HETATM   17  C   UNL     1      24.355  48.260  49.388  1.00  0.00     0.276 C 
HETATM   18  N   UNL     1      24.493  47.010  49.964  1.00  0.00    -0.351 N 
HETATM   19  H   UNL     1      23.690  46.396  49.961  1.00  0.00     0.163 HD
HETATM   20  O   UNL     1      25.341  48.909  49.043  1.00  0.00    -0.265 OA
BRANCH  18  21
HETATM   21  C   UNL     1      25.802  46.405  50.030  1.00  0.00     0.161 C 
BRANCH  21  22
HETATM   22  C   UNL     1      26.217  46.087  51.442  1.00  0.00    -0.040 A 
HETATM   23  C   UNL     1      26.787  44.847  51.755  1.00  0.00     0.011 A 
HETATM   24  C   UNL     1      27.246  44.586  53.049  1.00  0.00     0.037 A 
HETATM   25  C   UNL     1      27.158  45.557  54.047  1.00  0.00     0.069 A 
HETATM   26  C   UNL     1      26.562  46.783  53.752  1.00  0.00     0.037 A 
HETATM   27  C   UNL     1      26.104  47.049  52.456  1.00  0.00     0.011 A 
BRANCH  25  28
HETATM   28  O   UNL     1      27.664  45.181  55.259  1.00  0.00    -0.347 OA
BRANCH  28  29
HETATM   29  C   UNL     1      29.010  45.549  55.575  1.00  0.00     0.120 C 
HETATM   30  C   UNL     1      29.061  46.077  57.005  1.00  0.00     0.040 C 
HETATM   31  C   UNL     1      29.861  44.287  55.447  1.00  0.00     0.040 C 
ENDBRANCH  28  29
ENDBRANCH  25  28
ENDBRANCH  21  22
ENDBRANCH  18  21
ENDBRANCH   3  17
TORSDOF 5
ENDMDL
MODEL 2
REMARK VINA RESULT:      -9.7      2.335      3.944
REMARK  5 active torsions:
REMARK  status: ('A' for Active; 'I' for Inactive)
REMARK    1  A    between atoms: C_3  and  C_4 
REMARK       I    between atoms: C_4  and  N_5 
REMARK    2  A    between atoms: N_5  and  C_6 
REMARK    3  A    between atoms: C_6  and  C_7 
REMARK    4  A    between atoms: C_10  and  O_11 
REMARK    5  A    between atoms: O_11  and  C_12 
ROOT
HETATM    1  C   UNL     1      25.975  47.760  50.267  1.00  0.00     0.052 C 
HETATM    2  C   UNL     1      25.016  46.690  49.882  1.00  0.00    -0.009 A 
HETATM    3  C   UNL     1      25.247  45.314  49.892  1.00  0.00     0.150 A 
HETATM    4  O   UNL     1      24.160  44.666  49.383  1.00  0.00    -0.304 OA
HETATM    5  C   UNL     1      23.220  45.588  49.081  1.00  0.00     0.088 A 
HETATM    6  C   UNL     1      23.672  46.871  49.376  1.00  0.00     0.020 A 
HETATM    7  C   UNL     1      22.774  47.939  49.111  1.00  0.00     0.011 A 
HETATM    8  C   UNL     1      21.503  47.651  48.577  1.00  0.00     0.081 A 
HETATM    9  O   UNL     1      20.577  48.615  48.277  1.00  0.00    -0.336 OA
HETATM   10  C   UNL     1      20.776  49.941  48.807  1.00  0.00     0.078 C 
HETATM   11  C   UNL     1      19.833  50.098  50.005  1.00  0.00     0.051 C 
HETATM   12  C   UNL     1      20.352  50.902  47.689  1.00  0.00     0.051 C 
HETATM   13  C   UNL     1      22.193  50.255  49.228  1.00  0.00     0.012 C 
HETATM   14  C   UNL     1      23.140  49.322  49.370  1.00  0.00     0.014 C 
HETATM   15  C   UNL     1      21.116  46.345  48.289  1.00  0.00     0.040 A 
HETATM   16  C   UNL     1      21.973  45.276  48.544  1.00  0.00     0.041 A 
ENDROOT
BRANCH   3  17
HETATM   17  C   UNL     1      26.357  44.467  50.292  1.00  0.00     0.276 C 
HETATM   18  N   UNL     1      26.275  43.925  51.561  1.00  0.00    -0.351 N 
HETATM   19  H   UNL     1      25.375  43.926  52.019  1.00  0.00     0.163 HD
HETATM   20  O   UNL     1      27.299  44.196  49.549  1.00  0.00    -0.265 OA
BRANCH  18  21
HETATM   21  C   UNL     1      27.232  42.919  51.962  1.00  0.00     0.161 C 
BRANCH  21  22
HETATM   22  C   UNL     1      28.211  43.433  52.983  1.00  0.00    -0.040 A 
HETATM   23  C   UNL     1      27.945  44.607  53.697  1.00  0.00     0.011 A 
HETATM   24  C   UNL     1      28.816  45.037  54.703  1.00  0.00     0.037 A 
HETATM   25  C   UNL     1      29.956  44.299  55.021  1.00  0.00     0.069 A 
HETATM   26  C   UNL     1      30.246  43.146  54.293  1.00  0.00     0.037 A 
HETATM   27  C   UNL     1      29.374  42.711  53.287  1.00  0.00     0.011 A 
BRANCH  25  28
HETATM   28  O   UNL     1      30.709  44.817  56.037  1.00  0.00    -0.347 OA
BRANCH  28  29
HETATM   29  C   UNL     1      30.809  44.072  57.255  1.00  0.00     0.120 C 
HETATM   30  C   UNL     1      32.117  43.290  57.257  1.00  0.00     0.040 C 
HETATM   31  C   UNL     1      30.795  45.084  58.400  1.00  0.00     0.040 C 
ENDBRANCH  28  29
ENDBRANCH  25  28
ENDBRANCH  21  22
ENDBRANCH  18  21
ENDBRANCH   3  17
TORSDOF 5
ENDMDL
MODEL 3
REMARK VINA RESULT:      -9.1      1.588      2.802
REMARK  5 active torsions:
REMARK  status: ('A' for Active; 'I' for Inactive)
REMARK    1  A    between atoms: C_3  and  C_4 
REMARK       I    between atoms: C_4  and  N_5 
REMARK    2  A    between atoms: N_5  and  C_6 
REMARK    3  A    between atoms: C_6  and  C_7 
REMARK    4  A    between atoms: C_10  and  O_11 
REMARK    5  A    between atoms: O_11  and  C_12 
ROOT
HETATM    1  C   UNL     1      21.852  45.874  48.438  1.00  0.00     0.052 C 
HETATM    2  C   UNL     1      22.429  47.202  48.778  1.00  0.00    -0.009 A 
HETATM    3  C   UNL     1      23.652  47.449  49.402  1.00  0.00     0.150 A 
HETATM    4  O   UNL     1      23.786  48.789  49.625  1.00  0.00    -0.304 OA
HETATM    5  C   UNL     1      22.697  49.413  49.127  1.00  0.00     0.088 A 
HETATM    6  C   UNL     1      21.811  48.494  48.571  1.00  0.00     0.020 A 
HETATM    7  C   UNL     1      20.621  49.022  48.003  1.00  0.00     0.011 A 
HETATM    8  C   UNL     1      20.404  50.413  48.031  1.00  0.00     0.081 A 
HETATM    9  O   UNL     1      19.282  51.010  47.522  1.00  0.00    -0.336 OA
HETATM   10  C   UNL     1      18.433  50.236  46.650  1.00  0.00     0.078 C 
HETATM   11  C   UNL     1      18.730  50.681  45.213  1.00  0.00     0.051 C 
HETATM   12  C   UNL     1      16.996  50.622  47.022  1.00  0.00     0.051 C 
HETATM   13  C   UNL     1      18.596  48.738  46.764  1.00  0.00     0.012 C 
HETATM   14  C   UNL     1      19.619  48.158  47.401  1.00  0.00     0.014 C 
HETATM   15  C   UNL     1      21.324  51.279  48.619  1.00  0.00     0.040 A 
HETATM   16  C   UNL     1      22.503  50.791  49.179  1.00  0.00     0.041 A 
ENDROOT
BRANCH   3  17
HETATM   17  C   UNL     1      24.752  46.619  49.860  1.00  0.00     0.276 C 
HETATM   18  N   UNL     1      24.498  45.842  50.975  1.00  0.00    -0.351 N 
HETATM   19  H   UNL     1      23.534  45.696  51.241  1.00  0.00     0.163 HD
HETATM   20  O   UNL     1      25.835  46.557  49.281  1.00  0.00    -0.265 OA
BRANCH  18  21
HETATM   21  C   UNL     1      25.464  44.847  51.377  1.00  0.00     0.161 C 
BRANCH  21  22
HETATM   22  C   UNL     1      26.340  45.320  52.507  1.00  0.00    -0.040 A 
HETATM   23  C   UNL     1      26.112  46.560  53.113  1.00  0.00     0.011 A 
HETATM   24  C   UNL     1      26.874  46.959  54.215  1.00  0.00     0.037 A 
HETATM   25  C   UNL     1      27.864  46.126  54.737  1.00  0.00     0.069 A 
HETATM   26  C   UNL     1      28.120  44.903  54.119  1.00  0.00     0.037 A 
HETATM   27  C   UNL     1      27.356  44.499  53.017  1.00  0.00     0.011 A 
BRANCH  25  28
HETATM   28  O   UNL     1      28.518  46.627  55.827  1.00  0.00    -0.347 OA
BRANCH  28  29
HETATM   29  C   UNL     1      29.115  45.703  56.743  1.00  0.00     0.120 C 
HETATM   30  C   UNL     1      30.620  45.665  56.504  1.00  0.00     0.040 C 
HETATM   31  C   UNL     1      28.817  46.214  58.151  1.00  0.00     0.040 C 
ENDBRANCH  28  29
ENDBRANCH  25  28
ENDBRANCH  21  22
ENDBRANCH  18  21
ENDBRANCH   3  17
TORSDOF 5
ENDMDL
MODEL 4
REMARK VINA RESULT:      -9.0      1.950      3.492
REMARK  5 active torsions:
REMARK  status: ('A' for Active; 'I' for Inactive)
REMARK    1  A    between atoms: C_3  and  C_4 
REMARK       I    between atoms: C_4  and  N_5 
REMARK    2  A    between atoms: N_5  and  C_6 
REMARK    3  A    between atoms: C_6  and  C_7 
REMARK    4  A    between atoms: C_10  and  O_11 
REMARK    5  A    between atoms: O_11  and  C_12 
ROOT
HETATM    1  C   UNL     1      23.244  45.068  49.235  1.00  0.00     0.052 C 
HETATM    2  C   UNL     1      23.844  46.429  49.227  1.00  0.00    -0.009 A 
HETATM    3  C   UNL     1      25.185  46.755  49.433  1.00  0.00     0.150 A 
HETATM    4  O   UNL     1      25.327  48.112  49.444  1.00  0.00    -0.304 OA
HETATM    5  C   UNL     1      24.117  48.667  49.213  1.00  0.00     0.088 A 
HETATM    6  C   UNL     1      23.144  47.684  49.055  1.00  0.00     0.020 A 
HETATM    7  C   UNL     1      21.821  48.134  48.799  1.00  0.00     0.011 A 
HETATM    8  C   UNL     1      21.569  49.517  48.720  1.00  0.00     0.081 A 
HETATM    9  O   UNL     1      20.326  50.044  48.491  1.00  0.00    -0.336 OA
HETATM   10  C   UNL     1      19.292  49.165  48.005  1.00  0.00     0.078 C 
HETATM   11  C   UNL     1      19.143  49.424  46.501  1.00  0.00     0.051 C 
HETATM   12  C   UNL     1      18.009  49.594  48.730  1.00  0.00     0.051 C 
HETATM   13  C   UNL     1      19.537  47.693  48.248  1.00  0.00     0.012 C 
HETATM   14  C   UNL     1      20.722  47.200  48.624  1.00  0.00     0.014 C 
HETATM   15  C   UNL     1      22.586  50.452  48.904  1.00  0.00     0.040 A 
HETATM   16  C   UNL     1      23.894  50.040  49.151  1.00  0.00     0.041 A 
ENDROOT
BRANCH   3  17
HETATM   17  C   UNL     1      26.401  45.991  49.648  1.00  0.00     0.276 C 
HETATM   18  N   UNL     1      26.270  44.856  50.427  1.00  0.00    -0.351 N 
HETATM   19  H   UNL     1      25.341  44.489  50.577  1.00  0.00     0.163 HD
HETATM   20  O   UNL     1      27.481  46.287  49.140  1.00  0.00    -0.265 OA
BRANCH  18  21
HETATM   21  C   UNL     1      27.381  43.937  50.527  1.00  0.00     0.161 C 
BRANCH  21  22
HETATM   22  C   UNL     1      27.907  43.823  51.932  1.00  0.00    -0.040 A 
HETATM   23  C   UNL     1      29.032  43.038  52.210  1.00  0.00     0.011 A 
HETATM   24  C   UNL     1      29.568  43.000  53.500  1.00  0.00     0.037 A 
HETATM   25  C   UNL     1      29.001  43.751  54.530  1.00  0.00     0.069 A 
HETATM   26  C   UNL     1      27.860  44.510  54.270  1.00  0.00     0.037 A 
HETATM   27  C   UNL     1      27.323  44.553  52.977  1.00  0.00     0.011 A 
BRANCH  25  28
HETATM   28  O   UNL     1      29.634  43.641  55.735  1.00  0.00    -0.347 OA
BRANCH  28  29
HETATM   29  C   UNL     1      30.859  44.358  55.926  1.00  0.00     0.120 C 
HETATM   30  C   UNL     1      30.544  45.750  56.462  1.00  0.00     0.040 C 
HETATM   31  C   UNL     1      31.682  43.572  56.945  1.00  0.00     0.040 C 
ENDBRANCH  28  29
ENDBRANCH  25  28
ENDBRANCH  21  22
ENDBRANCH  18  21
ENDBRANCH   3  17
TORSDOF 5
ENDMDL
MODEL 5
REMARK VINA RESULT:      -9.0      2.546     10.773
REMARK  5 active torsions:
REMARK  status: ('A' for Active; 'I' for Inactive)
REMARK    1  A    between atoms: C_3  and  C_4 
REMARK       I    between atoms: C_4  and  N_5 
REMARK    2  A    between atoms: N_5  and  C_6 
REMARK    3  A    between atoms: C_6  and  C_7 
REMARK    4  A    between atoms: C_10  and  O_11 
REMARK    5  A    between atoms: O_11  and  C_12 
ROOT
HETATM    1  C   UNL     1      25.993  45.675  52.988  1.00  0.00     0.052 C 
HETATM    2  C   UNL     1      27.061  44.692  52.661  1.00  0.00    -0.009 A 
HETATM    3  C   UNL     1      27.154  43.908  51.511  1.00  0.00     0.150 A 
HETATM    4  O   UNL     1      28.222  43.065  51.620  1.00  0.00    -0.304 OA
HETATM    5  C   UNL     1      28.839  43.313  52.795  1.00  0.00     0.088 A 
HETATM    6  C   UNL     1      28.184  44.322  53.496  1.00  0.00     0.020 A 
HETATM    7  C   UNL     1      28.737  44.687  54.752  1.00  0.00     0.011 A 
HETATM    8  C   UNL     1      29.892  44.026  55.213  1.00  0.00     0.081 A 
HETATM    9  O   UNL     1      30.487  44.300  56.415  1.00  0.00    -0.336 OA
HETATM   10  C   UNL     1      30.114  45.513  57.100  1.00  0.00     0.078 C 
HETATM   11  C   UNL     1      31.236  46.531  56.866  1.00  0.00     0.051 C 
HETATM   12  C   UNL     1      30.055  45.147  58.588  1.00  0.00     0.051 C 
HETATM   13  C   UNL     1      28.790  46.106  56.676  1.00  0.00     0.012 C 
HETATM   14  C   UNL     1      28.134  45.722  55.575  1.00  0.00     0.014 C 
HETATM   15  C   UNL     1      30.491  43.011  54.470  1.00  0.00     0.040 A 
HETATM   16  C   UNL     1      29.975  42.635  53.232  1.00  0.00     0.041 A 
ENDROOT
BRANCH   3  17
HETATM   17  C   UNL     1      26.380  43.791  50.288  1.00  0.00     0.276 C 
HETATM   18  N   UNL     1      25.005  43.800  50.441  1.00  0.00    -0.351 N 
HETATM   19  H   UNL     1      24.628  44.137  51.316  1.00  0.00     0.163 HD
HETATM   20  O   UNL     1      26.890  43.735  49.170  1.00  0.00    -0.265 OA
BRANCH  18  21
HETATM   21  C   UNL     1      24.165  43.887  49.269  1.00  0.00     0.161 C 
BRANCH  21  22
HETATM   22  C   UNL     1      23.609  45.271  49.062  1.00  0.00    -0.040 A 
HETATM   23  C   UNL     1      22.423  45.461  48.344  1.00  0.00     0.011 A 
HETATM   24  C   UNL     1      21.866  46.737  48.224  1.00  0.00     0.037 A 
HETATM   25  C   UNL     1      22.473  47.840  48.827  1.00  0.00     0.069 A 
HETATM   26  C   UNL     1      23.673  47.664  49.516  1.00  0.00     0.037 A 
HETATM   27  C   UNL     1      24.231  46.386  49.640  1.00  0.00     0.011 A 
BRANCH  25  28
HETATM   28  O   UNL     1      21.814  49.024  48.651  1.00  0.00    -0.347 OA
BRANCH  28  29
HETATM   29  C   UNL     1      22.248  50.160  49.407  1.00  0.00     0.120 C 
HETATM   30  C   UNL     1      22.997  51.116  48.487  1.00  0.00     0.040 C 
HETATM   31  C   UNL     1      20.993  50.832  49.961  1.00  0.00     0.040 C 
ENDBRANCH  28  29
ENDBRANCH  25  28
ENDBRANCH  21  22
ENDBRANCH  18  21
ENDBRANCH   3  17
TORSDOF 5
ENDMDL
MODEL 6
REMARK VINA RESULT:      -9.0      2.586     10.360
REMARK  5 active torsions:
REMARK  status: ('A' for Active; 'I' for Inactive)
REMARK    1  A    between atoms: C_3  and  C_4 
REMARK       I    between atoms: C_4  and  N_5 
REMARK    2  A    between atoms: N_5  and  C_6 
REMARK    3  A    between atoms: C_6  and  C_7 
REMARK    4  A    between atoms: C_10  and  O_11 
REMARK    5  A    between atoms: O_11  and  C_12 
ROOT
HETATM    1  C   UNL     1      26.143  47.778  50.191  1.00  0.00     0.052 C 
HETATM    2  C   UNL     1      24.991  46.897  49.863  1.00  0.00    -0.009 A 
HETATM    3  C   UNL     1      23.781  47.281  49.285  1.00  0.00     0.150 A 
HETATM    4  O   UNL     1      22.942  46.205  49.228  1.00  0.00    -0.304 OA
HETATM    5  C   UNL     1      23.597  45.131  49.720  1.00  0.00     0.088 A 
HETATM    6  C   UNL     1      24.883  45.477  50.124  1.00  0.00     0.020 A 
HETATM    7  C   UNL     1      25.685  44.433  50.657  1.00  0.00     0.011 A 
HETATM    8  C   UNL     1      25.151  43.133  50.746  1.00  0.00     0.081 A 
HETATM    9  O   UNL     1      25.843  42.068  51.257  1.00  0.00    -0.336 OA
HETATM   10  C   UNL     1      27.269  42.199  51.426  1.00  0.00     0.078 C 
HETATM   11  C   UNL     1      27.935  41.450  50.265  1.00  0.00     0.051 C 
HETATM   12  C   UNL     1      27.596  41.494  52.748  1.00  0.00     0.051 C 
HETATM   13  C   UNL     1      27.779  43.621  51.475  1.00  0.00     0.012 C 
HETATM   14  C   UNL     1      27.041  44.678  51.119  1.00  0.00     0.014 C 
HETATM   15  C   UNL     1      23.848  42.855  50.338  1.00  0.00     0.040 A 
HETATM   16  C   UNL     1      23.039  43.858  49.806  1.00  0.00     0.041 A 
ENDROOT
BRANCH   3  17
HETATM   17  C   UNL     1      23.242  48.529  48.775  1.00  0.00     0.276 C 
HETATM   18  N   UNL     1      22.556  49.309  49.689  1.00  0.00    -0.351 N 
HETATM   19  H   UNL     1      22.686  49.112  50.671  1.00  0.00     0.163 HD
HETATM   20  O   UNL     1      23.413  48.914  47.620  1.00  0.00    -0.265 OA
BRANCH  18  21
HETATM   21  C   UNL     1      22.162  50.648  49.318  1.00  0.00     0.161 C 
BRANCH  21  22
HETATM   22  C   UNL     1      20.688  50.887  49.512  1.00  0.00    -0.040 A 
HETATM   23  C   UNL     1      20.059  51.983  48.910  1.00  0.00     0.011 A 
HETATM   24  C   UNL     1      18.677  52.155  49.024  1.00  0.00     0.037 A 
HETATM   25  C   UNL     1      17.898  51.234  49.726  1.00  0.00     0.069 A 
HETATM   26  C   UNL     1      18.521  50.157  50.355  1.00  0.00     0.037 A 
HETATM   27  C   UNL     1      19.905  49.980  50.241  1.00  0.00     0.011 A 
BRANCH  25  28
HETATM   28  O   UNL     1      16.560  51.509  49.741  1.00  0.00    -0.347 OA
BRANCH  28  29
HETATM   29  C   UNL     1      16.127  52.798  49.291  1.00  0.00     0.120 C 
HETATM   30  C   UNL     1      15.293  52.631  48.026  1.00  0.00     0.040 C 
HETATM   31  C   UNL     1      15.278  53.399  50.409  1.00  0.00     0.040 C 
ENDBRANCH  28  29
ENDBRANCH  25  28
ENDBRANCH  21  22
ENDBRANCH  18  21
ENDBRANCH   3  17
TORSDOF 5
ENDMDL
MODEL 7
REMARK VINA RESULT:      -9.0      1.726     10.496
REMARK  5 active torsions:
REMARK  status: ('A' for Active; 'I' for Inactive)
REMARK    1  A    between atoms: C_3  and  C_4 
REMARK       I    between atoms: C_4  and  N_5 
REMARK    2  A    between atoms: N_5  and  C_6 
REMARK    3  A    between atoms: C_6  and  C_7 
REMARK    4  A    between atoms: C_10  and  O_11 
REMARK    5  A    between atoms: O_11  and  C_12 
ROOT
HETATM    1  C   UNL     1      25.060  44.651  48.841  1.00  0.00     0.052 C 
HETATM    2  C   UNL     1      25.005  45.659  49.933  1.00  0.00    -0.009 A 
HETATM    3  C   UNL     1      24.236  46.823  49.960  1.00  0.00     0.150 A 
HETATM    4  O   UNL     1      24.528  47.535  51.088  1.00  0.00    -0.304 OA
HETATM    5  C   UNL     1      25.438  46.839  51.804  1.00  0.00     0.088 A 
HETATM    6  C   UNL     1      25.776  45.654  51.158  1.00  0.00     0.020 A 
HETATM    7  C   UNL     1      26.723  44.821  51.811  1.00  0.00     0.011 A 
HETATM    8  C   UNL     1      27.258  45.228  53.049  1.00  0.00     0.081 A 
HETATM    9  O   UNL     1      28.185  44.499  53.744  1.00  0.00    -0.336 OA
HETATM   10  C   UNL     1      28.398  43.125  53.363  1.00  0.00     0.078 C 
HETATM   11  C   UNL     1      27.662  42.250  54.385  1.00  0.00     0.051 C 
HETATM   12  C   UNL     1      29.909  42.891  53.481  1.00  0.00     0.051 C 
HETATM   13  C   UNL     1      27.943  42.771  51.966  1.00  0.00     0.012 C 
HETATM   14  C   UNL     1      27.158  43.563  51.228  1.00  0.00     0.014 C 
HETATM   15  C   UNL     1      26.890  46.437  53.636  1.00  0.00     0.040 A 
HETATM   16  C   UNL     1      25.959  47.272  53.022  1.00  0.00     0.041 A 
ENDROOT
BRANCH   3  17
HETATM   17  C   UNL     1      23.251  47.419  49.074  1.00  0.00     0.276 C 
HETATM   18  N   UNL     1      23.329  48.791  48.923  1.00  0.00    -0.351 N 
HETATM   19  H   UNL     1      24.182  49.252  49.207  1.00  0.00     0.163 HD
HETATM   20  O   UNL     1      22.422  46.760  48.450  1.00  0.00    -0.265 OA
BRANCH  18  21
HETATM   21  C   UNL     1      22.521  49.436  47.915  1.00  0.00     0.161 C 
BRANCH  21  22
HETATM   22  C   UNL     1      21.235  49.986  48.474  1.00  0.00    -0.040 A 
HETATM   23  C   UNL     1      20.001  49.574  47.959  1.00  0.00     0.011 A 
HETATM   24  C   UNL     1      18.809  50.022  48.535  1.00  0.00     0.037 A 
HETATM   25  C   UNL     1      18.827  50.877  49.638  1.00  0.00     0.069 A 
HETATM   26  C   UNL     1      20.052  51.318  50.136  1.00  0.00     0.037 A 
HETATM   27  C   UNL     1      21.248  50.868  49.564  1.00  0.00     0.011 A 
BRANCH  25  28
HETATM   28  O   UNL     1      17.595  51.221  50.116  1.00  0.00    -0.347 OA
BRANCH  28  29
HETATM   29  C   UNL     1      16.761  52.054  49.303  1.00  0.00     0.120 C 
HETATM   30  C   UNL     1      15.579  51.236  48.797  1.00  0.00     0.040 C 
HETATM   31  C   UNL     1      16.271  53.198  50.190  1.00  0.00     0.040 C 
ENDBRANCH  28  29
ENDBRANCH  25  28
ENDBRANCH  21  22
ENDBRANCH  18  21
ENDBRANCH   3  17
TORSDOF 5
ENDMDL
MODEL 8
REMARK VINA RESULT:      -8.9      2.715      4.644
REMARK  5 active torsions:
REMARK  status: ('A' for Active; 'I' for Inactive)
REMARK    1  A    between atoms: C_3  and  C_4 
REMARK       I    between atoms: C_4  and  N_5 
REMARK    2  A    between atoms: N_5  and  C_6 
REMARK    3  A    between atoms: C_6  and  C_7 
REMARK    4  A    between atoms: C_10  and  O_11 
REMARK    5  A    between atoms: O_11  and  C_12 
ROOT
HETATM    1  C   UNL     1      23.185  43.301  49.460  1.00  0.00     0.052 C 
HETATM    2  C   UNL     1      23.811  44.649  49.521  1.00  0.00    -0.009 A 
HETATM    3  C   UNL     1      25.122  44.947  49.892  1.00  0.00     0.150 A 
HETATM    4  O   UNL     1      25.293  46.301  49.914  1.00  0.00    -0.304 OA
HETATM    5  C   UNL     1      24.134  46.880  49.531  1.00  0.00     0.088 A 
HETATM    6  C   UNL     1      23.166  45.918  49.257  1.00  0.00     0.020 A 
HETATM    7  C   UNL     1      21.896  46.395  48.835  1.00  0.00     0.011 A 
HETATM    8  C   UNL     1      21.687  47.782  48.719  1.00  0.00     0.081 A 
HETATM    9  O   UNL     1      20.495  48.334  48.335  1.00  0.00    -0.336 OA
HETATM   10  C   UNL     1      19.510  47.474  47.727  1.00  0.00     0.078 C 
HETATM   11  C   UNL     1      19.556  47.725  46.216  1.00  0.00     0.051 C 
HETATM   12  C   UNL     1      18.156  47.936  48.284  1.00  0.00     0.051 C 
HETATM   13  C   UNL     1      19.689  45.999  48.006  1.00  0.00     0.012 C 
HETATM   14  C   UNL     1      20.807  45.483  48.529  1.00  0.00     0.014 C 
HETATM   15  C   UNL     1      22.694  48.696  49.026  1.00  0.00     0.040 A 
HETATM   16  C   UNL     1      23.951  48.258  49.436  1.00  0.00     0.041 A 
ENDROOT
BRANCH   3  17
HETATM   17  C   UNL     1      26.285  44.159  50.260  1.00  0.00     0.276 C 
HETATM   18  N   UNL     1      26.290  43.657  51.549  1.00  0.00    -0.351 N 
HETATM   19  H   UNL     1      25.414  43.639  52.054  1.00  0.00     0.163 HD
HETATM   20  O   UNL     1      27.198  43.899  49.478  1.00  0.00    -0.265 OA
BRANCH  18  21
HETATM   21  C   UNL     1      27.306  42.705  51.932  1.00  0.00     0.161 C 
BRANCH  21  22
HETATM   22  C   UNL     1      28.265  43.266  52.948  1.00  0.00    -0.040 A 
HETATM   23  C   UNL     1      27.932  44.405  53.689  1.00  0.00     0.011 A 
HETATM   24  C   UNL     1      28.788  44.874  54.688  1.00  0.00     0.037 A 
HETATM   25  C   UNL     1      29.982  44.210  54.975  1.00  0.00     0.069 A 
HETATM   26  C   UNL     1      30.337  43.093  54.220  1.00  0.00     0.037 A 
HETATM   27  C   UNL     1      29.479  42.619  53.219  1.00  0.00     0.011 A 
BRANCH  25  28
HETATM   28  O   UNL     1      30.714  44.760  55.989  1.00  0.00    -0.347 OA
BRANCH  28  29
HETATM   29  C   UNL     1      30.807  44.042  57.224  1.00  0.00     0.120 C 
HETATM   30  C   UNL     1      32.148  43.319  57.282  1.00  0.00     0.040 C 
HETATM   31  C   UNL     1      30.714  45.073  58.347  1.00  0.00     0.040 C 
ENDBRANCH  28  29
ENDBRANCH  25  28
ENDBRANCH  21  22
ENDBRANCH  18  21
ENDBRANCH   3  17
TORSDOF 5
ENDMDL
MODEL 9
REMARK VINA RESULT:      -8.8      1.971     11.171
REMARK  5 active torsions:
REMARK  status: ('A' for Active; 'I' for Inactive)
REMARK    1  A    between atoms: C_3  and  C_4 
REMARK       I    between atoms: C_4  and  N_5 
REMARK    2  A    between atoms: N_5  and  C_6 
REMARK    3  A    between atoms: C_6  and  C_7 
REMARK    4  A    between atoms: C_10  and  O_11 
REMARK    5  A    between atoms: O_11  and  C_12 
ROOT
HETATM    1  C   UNL     1      27.444  43.134  51.662  1.00  0.00     0.052 C 
HETATM    2  C   UNL     1      27.029  44.281  52.513  1.00  0.00    -0.009 A 
HETATM    3  C   UNL     1      25.911  45.096  52.334  1.00  0.00     0.150 A 
HETATM    4  O   UNL     1      25.922  46.095  53.264  1.00  0.00    -0.304 OA
HETATM    5  C   UNL     1      26.999  45.921  54.060  1.00  0.00     0.088 A 
HETATM    6  C   UNL     1      27.732  44.805  53.665  1.00  0.00     0.020 A 
HETATM    7  C   UNL     1      28.892  44.503  54.427  1.00  0.00     0.011 A 
HETATM    8  C   UNL     1      29.233  45.329  55.515  1.00  0.00     0.081 A 
HETATM    9  O   UNL     1      30.339  45.125  56.297  1.00  0.00    -0.336 OA
HETATM   10  C   UNL     1      31.012  43.853  56.208  1.00  0.00     0.078 C 
HETATM   11  C   UNL     1      30.596  43.031  57.433  1.00  0.00     0.051 C 
HETATM   12  C   UNL     1      32.511  44.171  56.287  1.00  0.00     0.051 C 
HETATM   13  C   UNL     1      30.731  43.068  54.947  1.00  0.00     0.012 C 
HETATM   14  C   UNL     1      29.739  43.367  54.102  1.00  0.00     0.014 C 
HETATM   15  C   UNL     1      28.466  46.443  55.849  1.00  0.00     0.040 A 
HETATM   16  C   UNL     1      27.319  46.760  55.125  1.00  0.00     0.041 A 
ENDROOT
BRANCH   3  17
HETATM   17  C   UNL     1      24.800  45.116  51.399  1.00  0.00     0.276 C 
HETATM   18  N   UNL     1      24.942  45.961  50.313  1.00  0.00    -0.351 N 
HETATM   19  H   UNL     1      25.868  46.300  50.094  1.00  0.00     0.163 HD
HETATM   20  O   UNL     1      23.806  44.402  51.518  1.00  0.00    -0.265 OA
BRANCH  18  21
HETATM   21  C   UNL     1      23.979  45.896  49.238  1.00  0.00     0.161 C 
BRANCH  21  22
HETATM   22  C   UNL     1      23.175  47.162  49.110  1.00  0.00    -0.040 A 
HETATM   23  C   UNL     1      23.709  48.389  49.518  1.00  0.00     0.011 A 
HETATM   24  C   UNL     1      22.993  49.573  49.321  1.00  0.00     0.037 A 
HETATM   25  C   UNL     1      21.741  49.556  48.706  1.00  0.00     0.069 A 
HETATM   26  C   UNL     1      21.187  48.334  48.326  1.00  0.00     0.037 A 
HETATM   27  C   UNL     1      21.903  47.146  48.518  1.00  0.00     0.011 A 
BRANCH  25  28
HETATM   28  O   UNL     1      21.160  50.783  48.555  1.00  0.00    -0.347 OA
BRANCH  28  29
HETATM   29  C   UNL     1      19.750  50.897  48.780  1.00  0.00     0.120 C 
HETATM   30  C   UNL     1      19.463  50.695  50.263  1.00  0.00     0.040 C 
HETATM   31  C   UNL     1      19.342  52.305  48.350  1.00  0.00     0.040 C 
ENDBRANCH  28  29
ENDBRANCH  25  28
ENDBRANCH  21  22
ENDBRANCH  18  21
ENDBRANCH   3  17
TORSDOF 5
ENDMDL
MODEL 10
REMARK VINA RESULT:      -8.8      9.493     14.189
REMARK  5 active torsions:
REMARK  status: ('A' for Active; 'I' for Inactive)
REMARK    1  A    between atoms: C_3  and  C_4 
REMARK       I    between atoms: C_4  and  N_5 
REMARK    2  A    between atoms: N_5  and  C_6 
REMARK    3  A    between atoms: C_6  and  C_7 
REMARK    4  A    between atoms: C_10  and  O_11 
REMARK    5  A    between atoms: O_11  and  C_12 
ROOT
HETATM    1  C   UNL     1      28.490  48.105  41.007  1.00  0.00     0.052 C 
HETATM    2  C   UNL     1      28.318  49.528  40.611  1.00  0.00    -0.009 A 
HETATM    3  C   UNL     1      27.293  50.062  39.829  1.00  0.00     0.150 A 
HETATM    4  O   UNL     1      27.533  51.388  39.608  1.00  0.00    -0.304 OA
HETATM    5  C   UNL     1      28.666  51.728  40.259  1.00  0.00     0.088 A 
HETATM    6  C   UNL     1      29.208  50.628  40.918  1.00  0.00     0.020 A 
HETATM    7  C   UNL     1      30.405  50.851  41.651  1.00  0.00     0.011 A 
HETATM    8  C   UNL     1      30.966  52.142  41.672  1.00  0.00     0.081 A 
HETATM    9  O   UNL     1      32.123  52.448  42.338  1.00  0.00    -0.336 OA
HETATM   10  C   UNL     1      32.623  51.504  43.306  1.00  0.00     0.078 C 
HETATM   11  C   UNL     1      32.256  52.038  44.695  1.00  0.00     0.051 C 
HETATM   12  C   UNL     1      34.148  51.508  43.140  1.00  0.00     0.051 C 
HETATM   13  C   UNL     1      32.105  50.092  43.150  1.00  0.00     0.012 C 
HETATM   14  C   UNL     1      31.065  49.775  42.371  1.00  0.00     0.014 C 
HETATM   15  C   UNL     1      30.383  53.199  40.977  1.00  0.00     0.040 A 
HETATM   16  C   UNL     1      29.206  53.012  40.254  1.00  0.00     0.041 A 
ENDROOT
BRANCH   3  17
HETATM   17  C   UNL     1      26.092  49.526  39.214  1.00  0.00     0.276 C 
HETATM   18  N   UNL     1      24.937  50.263  39.403  1.00  0.00    -0.351 N 
HETATM   19  H   UNL     1      25.031  51.220  39.715  1.00  0.00     0.163 HD
HETATM   20  O   UNL     1      26.086  48.510  38.523  1.00  0.00    -0.265 OA
BRANCH  18  21
HETATM   21  C   UNL     1      23.746  49.911  38.666  1.00  0.00     0.161 C 
BRANCH  21  22
HETATM   22  C   UNL     1      22.513  49.918  39.529  1.00  0.00    -0.040 A 
HETATM   23  C   UNL     1      21.911  51.126  39.900  1.00  0.00     0.011 A 
HETATM   24  C   UNL     1      20.720  51.127  40.632  1.00  0.00     0.037 A 
HETATM   25  C   UNL     1      20.104  49.928  40.994  1.00  0.00     0.069 A 
HETATM   26  C   UNL     1      20.714  48.721  40.656  1.00  0.00     0.037 A 
HETATM   27  C   UNL     1      21.906  48.716  39.921  1.00  0.00     0.011 A 
BRANCH  25  28
HETATM   28  O   UNL     1      18.935  50.071  41.687  1.00  0.00    -0.347 OA
BRANCH  28  29
HETATM   29  C   UNL     1      18.793  51.205  42.549  1.00  0.00     0.120 C 
HETATM   30  C   UNL     1      17.605  52.041  42.083  1.00  0.00     0.040 C 
HETATM   31  C   UNL     1      18.541  50.668  43.956  1.00  0.00     0.040 C 
ENDBRANCH  28  29
ENDBRANCH  25  28
ENDBRANCH  21  22
ENDBRANCH  18  21
ENDBRANCH   3  17
TORSDOF 5
ENDMDL
