MODEL 1
REMARK VINA RESULT:      -8.5      0.000      0.000
REMARK  7 active torsions:
REMARK  status: ('A' for Active; 'I' for Inactive)
REMARK    1  A    between atoms: C_7  and  C_8 
REMARK    2  A    between atoms: C_8  and  C_9 
REMARK    3  A    between atoms: C_9  and  C_10 
REMARK    4  A    between atoms: C_10  and  O_11 
REMARK    5  A    between atoms: C_13  and  C_14 
REMARK    6  A    between atoms: C_21  and  C_22 
REMARK       I    between atoms: C_22  and  N_23 
REMARK    7  A    between atoms: N_23  and  C_24 
ROOT
HETATM    1  C   UNL     1      25.825  47.204  52.049  1.00  0.00     0.070 C 
HETATM    2  C   UNL     1      25.264  46.001  51.331  1.00  0.00     0.037 C 
HETATM    3  N   UNL     1      24.451  46.283  50.239  1.00  0.00    -0.192 N 
HETATM    4  C   UNL     1      23.691  45.355  49.627  1.00  0.00     0.726 A 
HETATM    5  N   UNL     1      23.809  44.042  49.993  1.00  0.00    -0.083 N 
HETATM    6  N   UNL     1      22.927  43.266  49.325  1.00  0.00    -0.140 NA
HETATM    7  C   UNL     1      22.332  44.178  48.543  1.00  0.00     0.166 A 
HETATM    8  N   UNL     1      22.774  45.471  48.703  1.00  0.00    -0.046 NA
HETATM    9  C   UNL     1      24.734  43.554  51.021  1.00  0.00     0.202 C 
HETATM   10  C   UNL     1      25.443  44.713  51.719  1.00  0.00     0.062 C 
HETATM   11  H   UNL     1      24.272  47.261  50.021  1.00  0.00     0.184 HD
ENDROOT
BRANCH  10  12
HETATM   12  C   UNL     1      26.234  44.299  52.909  1.00  0.00     0.256 C 
HETATM   13  N   UNL     1      27.595  44.442  52.742  1.00  0.00    -0.323 N 
HETATM   14  H   UNL     1      27.914  44.788  51.846  1.00  0.00     0.169 HD
HETATM   15  O   UNL     1      25.643  43.846  53.880  1.00  0.00    -0.267 OA
BRANCH  13  16
HETATM   16  C   UNL     1      28.602  44.184  53.694  1.00  0.00     0.035 A 
HETATM   17  C   UNL     1      29.433  43.062  53.669  1.00  0.00     0.031 A 
HETATM   18  C   UNL     1      30.400  42.869  54.663  1.00  0.00     0.026 A 
HETATM   19  C   UNL     1      30.535  43.798  55.690  1.00  0.00     0.034 A 
HETATM   20 CL   UNL     1      31.714  43.555  56.918  1.00  0.00    -0.084 Cl
HETATM   21  C   UNL     1      29.716  44.923  55.729  1.00  0.00     0.026 A 
HETATM   22  C   UNL     1      28.757  45.118  54.729  1.00  0.00     0.031 A 
ENDBRANCH  13  16
ENDBRANCH  10  12
BRANCH   9  23
HETATM   23  C   UNL     1      25.717  42.551  50.418  1.00  0.00    -0.028 A 
HETATM   24  C   UNL     1      26.434  42.830  49.239  1.00  0.00     0.012 A 
HETATM   25  C   UNL     1      27.323  41.891  48.713  1.00  0.00     0.043 A 
HETATM   26  C   UNL     1      27.506  40.677  49.363  1.00  0.00     0.116 A 
HETATM   27  F   UNL     1      28.357  39.777  48.854  1.00  0.00    -0.206 F 
HETATM   28  C   UNL     1      26.818  40.382  50.533  1.00  0.00     0.043 A 
HETATM   29  C   UNL     1      25.929  41.317  51.063  1.00  0.00     0.012 A 
ENDBRANCH   9  23
BRANCH   7  30
HETATM   30  C   UNL     1      21.278  43.818  47.560  1.00  0.00     0.085 C 
BRANCH  30  31
HETATM   31  C   UNL     1      20.496  45.024  47.046  1.00  0.00     0.034 C 
BRANCH  31  32
HETATM   32  C   UNL     1      18.996  44.906  47.283  1.00  0.00     0.164 C 
BRANCH  32  33
HETATM   33  O   UNL     1      18.746  44.711  48.671  1.00  0.00    -0.401 OA
HETATM   34  H   UNL     1      18.378  45.540  49.022  1.00  0.00     0.209 HD
ENDBRANCH  32  33
ENDBRANCH  31  32
ENDBRANCH  30  31
ENDBRANCH   7  30
TORSDOF 7
ENDMDL
MODEL 2
REMARK VINA RESULT:      -8.2      4.655      8.975
REMARK  7 active torsions:
REMARK  status: ('A' for Active; 'I' for Inactive)
REMARK    1  A    between atoms: C_7  and  C_8 
REMARK    2  A    between atoms: C_8  and  C_9 
REMARK    3  A    between atoms: C_9  and  C_10 
REMARK    4  A    between atoms: C_10  and  O_11 
REMARK    5  A    between atoms: C_13  and  C_14 
REMARK    6  A    between atoms: C_21  and  C_22 
REMARK       I    between atoms: C_22  and  N_23 
REMARK    7  A    between atoms: N_23  and  C_24 
ROOT
HETATM    1  C   UNL     1      24.316  42.568  49.064  1.00  0.00     0.070 C 
HETATM    2  C   UNL     1      24.697  43.790  49.863  1.00  0.00     0.037 C 
HETATM    3  N   UNL     1      25.612  43.571  50.887  1.00  0.00    -0.192 N 
HETATM    4  C   UNL     1      25.890  44.487  51.834  1.00  0.00     0.726 A 
HETATM    5  N   UNL     1      25.361  45.744  51.730  1.00  0.00    -0.083 N 
HETATM    6  N   UNL     1      25.689  46.505  52.797  1.00  0.00    -0.140 NA
HETATM    7  C   UNL     1      26.452  45.648  53.491  1.00  0.00     0.166 A 
HETATM    8  N   UNL     1      26.595  44.399  52.931  1.00  0.00    -0.046 NA
HETATM    9  C   UNL     1      24.500  46.185  50.627  1.00  0.00     0.202 C 
HETATM   10  C   UNL     1      24.164  45.026  49.692  1.00  0.00     0.062 C 
HETATM   11  H   UNL     1      25.934  42.618  51.039  1.00  0.00     0.184 HD
ENDROOT
BRANCH  10  12
HETATM   12  C   UNL     1      23.129  45.358  48.677  1.00  0.00     0.256 C 
HETATM   13  N   UNL     1      21.928  45.756  49.225  1.00  0.00    -0.323 N 
HETATM   14  H   UNL     1      21.865  45.766  50.235  1.00  0.00     0.169 HD
HETATM   15  O   UNL     1      23.401  45.219  47.492  1.00  0.00    -0.267 OA
BRANCH  13  16
HETATM   16  C   UNL     1      20.775  46.180  48.534  1.00  0.00     0.035 A 
HETATM   17  C   UNL     1      20.593  47.473  48.037  1.00  0.00     0.031 A 
HETATM   18  C   UNL     1      19.409  47.822  47.376  1.00  0.00     0.026 A 
HETATM   19  C   UNL     1      18.400  46.877  47.214  1.00  0.00     0.034 A 
HETATM   20 CL   UNL     1      16.941  47.309  46.413  1.00  0.00    -0.084 Cl
HETATM   21  C   UNL     1      18.566  45.585  47.702  1.00  0.00     0.026 A 
HETATM   22  C   UNL     1      19.754  45.236  48.354  1.00  0.00     0.031 A 
ENDBRANCH  13  16
ENDBRANCH  10  12
BRANCH   9  23
HETATM   23  C   UNL     1      25.143  47.359  49.888  1.00  0.00    -0.028 A 
HETATM   24  C   UNL     1      26.535  47.443  49.695  1.00  0.00     0.012 A 
HETATM   25  C   UNL     1      27.090  48.529  49.018  1.00  0.00     0.043 A 
HETATM   26  C   UNL     1      26.261  49.530  48.525  1.00  0.00     0.116 A 
HETATM   27  F   UNL     1      26.798  50.572  47.878  1.00  0.00    -0.206 F 
HETATM   28  C   UNL     1      24.885  49.465  48.693  1.00  0.00     0.043 A 
HETATM   29  C   UNL     1      24.324  48.380  49.369  1.00  0.00     0.012 A 
ENDBRANCH   9  23
BRANCH   7  30
HETATM   30  C   UNL     1      27.109  46.022  54.769  1.00  0.00     0.085 C 
BRANCH  30  31
HETATM   31  C   UNL     1      27.593  47.470  54.797  1.00  0.00     0.034 C 
BRANCH  31  32
HETATM   32  C   UNL     1      26.706  48.377  55.640  1.00  0.00     0.164 C 
BRANCH  32  33
HETATM   33  O   UNL     1      25.526  48.703  54.913  1.00  0.00    -0.401 OA
HETATM   34  H   UNL     1      24.909  49.130  55.532  1.00  0.00     0.209 HD
ENDBRANCH  32  33
ENDBRANCH  31  32
ENDBRANCH  30  31
ENDBRANCH   7  30
TORSDOF 7
ENDMDL
MODEL 3
REMARK VINA RESULT:      -8.1      4.019      8.919
REMARK  7 active torsions:
REMARK  status: ('A' for Active; 'I' for Inactive)
REMARK    1  A    between atoms: C_7  and  C_8 
REMARK    2  A    between atoms: C_8  and  C_9 
REMARK    3  A    between atoms: C_9  and  C_10 
REMARK    4  A    between atoms: C_10  and  O_11 
REMARK    5  A    between atoms: C_13  and  C_14 
REMARK    6  A    between atoms: C_21  and  C_22 
REMARK       I    between atoms: C_22  and  N_23 
REMARK    7  A    between atoms: N_23  and  C_24 
ROOT
HETATM    1  C   UNL     1      26.360  40.440  50.139  1.00  0.00     0.070 C 
HETATM    2  C   UNL     1      26.596  41.702  50.932  1.00  0.00     0.037 C 
HETATM    3  N   UNL     1      27.796  41.750  51.634  1.00  0.00    -0.192 N 
HETATM    4  C   UNL     1      28.069  42.686  52.562  1.00  0.00     0.726 A 
HETATM    5  N   UNL     1      27.199  43.725  52.745  1.00  0.00    -0.083 N 
HETATM    6  N   UNL     1      27.597  44.526  53.758  1.00  0.00    -0.140 NA
HETATM    7  C   UNL     1      28.741  43.927  54.117  1.00  0.00     0.166 A 
HETATM    8  N   UNL     1      29.061  42.792  53.406  1.00  0.00    -0.046 NA
HETATM    9  C   UNL     1      25.962  43.908  51.977  1.00  0.00     0.202 C 
HETATM   10  C   UNL     1      25.708  42.721  51.050  1.00  0.00     0.062 C 
HETATM   11  H   UNL     1      28.405  40.936  51.587  1.00  0.00     0.184 HD
ENDROOT
BRANCH  10  12
HETATM   12  C   UNL     1      24.370  42.746  50.402  1.00  0.00     0.256 C 
HETATM   13  N   UNL     1      24.423  42.939  49.038  1.00  0.00    -0.323 N 
HETATM   14  H   UNL     1      25.339  43.059  48.626  1.00  0.00     0.169 HD
HETATM   15  O   UNL     1      23.374  42.639  51.104  1.00  0.00    -0.267 OA
BRANCH  13  16
HETATM   16  C   UNL     1      23.338  42.963  48.138  1.00  0.00     0.035 A 
HETATM   17  C   UNL     1      22.583  44.103  47.853  1.00  0.00     0.031 A 
HETATM   18  C   UNL     1      21.508  44.040  46.958  1.00  0.00     0.026 A 
HETATM   19  C   UNL     1      21.182  42.832  46.349  1.00  0.00     0.034 A 
HETATM   20 CL   UNL     1      19.854  42.752  45.259  1.00  0.00    -0.084 Cl
HETATM   21  C   UNL     1      21.925  41.687  46.620  1.00  0.00     0.026 A 
HETATM   22  C   UNL     1      23.005  41.756  47.507  1.00  0.00     0.031 A 
ENDBRANCH  13  16
ENDBRANCH  10  12
BRANCH   9  23
HETATM   23  C   UNL     1      25.997  45.237  51.223  1.00  0.00    -0.028 A 
HETATM   24  C   UNL     1      25.106  46.285  51.522  1.00  0.00     0.012 A 
HETATM   25  C   UNL     1      25.163  47.485  50.813  1.00  0.00     0.043 A 
HETATM   26  C   UNL     1      26.111  47.648  49.811  1.00  0.00     0.116 A 
HETATM   27  F   UNL     1      26.160  48.801  49.130  1.00  0.00    -0.206 F 
HETATM   28  C   UNL     1      27.008  46.634  49.503  1.00  0.00     0.043 A 
HETATM   29  C   UNL     1      26.955  45.431  50.210  1.00  0.00     0.012 A 
ENDBRANCH   9  23
BRANCH   7  30
HETATM   30  C   UNL     1      29.612  44.455  55.198  1.00  0.00     0.085 C 
BRANCH  30  31
HETATM   31  C   UNL     1      30.677  43.460  55.654  1.00  0.00     0.034 C 
BRANCH  31  32
HETATM   32  C   UNL     1      31.354  43.869  56.956  1.00  0.00     0.164 C 
BRANCH  32  33
HETATM   33  O   UNL     1      32.158  42.796  57.434  1.00  0.00    -0.401 OA
HETATM   34  H   UNL     1      32.489  42.310  56.660  1.00  0.00     0.209 HD
ENDBRANCH  32  33
ENDBRANCH  31  32
ENDBRANCH  30  31
ENDBRANCH   7  30
TORSDOF 7
ENDMDL
MODEL 4
REMARK VINA RESULT:      -8.0      4.014      5.463
REMARK  7 active torsions:
REMARK  status: ('A' for Active; 'I' for Inactive)
REMARK    1  A    between atoms: C_7  and  C_8 
REMARK    2  A    between atoms: C_8  and  C_9 
REMARK    3  A    between atoms: C_9  and  C_10 
REMARK    4  A    between atoms: C_10  and  O_11 
REMARK    5  A    between atoms: C_13  and  C_14 
REMARK    6  A    between atoms: C_21  and  C_22 
REMARK       I    between atoms: C_22  and  N_23 
REMARK    7  A    between atoms: N_23  and  C_24 
ROOT
HETATM    1  C   UNL     1      27.129  49.676  48.672  1.00  0.00     0.070 C 
HETATM    2  C   UNL     1      25.656  49.364  48.784  1.00  0.00     0.037 C 
HETATM    3  N   UNL     1      24.800  50.350  48.309  1.00  0.00    -0.192 N 
HETATM    4  C   UNL     1      23.472  50.343  48.532  1.00  0.00     0.726 A 
HETATM    5  N   UNL     1      22.898  49.259  49.137  1.00  0.00    -0.083 N 
HETATM    6  N   UNL     1      21.576  49.453  49.341  1.00  0.00    -0.140 NA
HETATM    7  C   UNL     1      21.415  50.668  48.798  1.00  0.00     0.166 A 
HETATM    8  N   UNL     1      22.557  51.246  48.294  1.00  0.00    -0.046 NA
HETATM    9  C   UNL     1      23.638  48.066  49.561  1.00  0.00     0.202 C 
HETATM   10  C   UNL     1      25.141  48.250  49.365  1.00  0.00     0.062 C 
HETATM   11  H   UNL     1      25.216  51.207  47.951  1.00  0.00     0.184 HD
ENDROOT
BRANCH  10  12
HETATM   12  C   UNL     1      25.960  47.165  49.968  1.00  0.00     0.256 C 
HETATM   13  N   UNL     1      25.724  46.980  51.313  1.00  0.00    -0.323 N 
HETATM   14  H   UNL     1      25.049  47.595  51.749  1.00  0.00     0.169 HD
HETATM   15  O   UNL     1      26.770  46.579  49.262  1.00  0.00    -0.267 OA
BRANCH  13  16
HETATM   16  C   UNL     1      26.300  46.006  52.154  1.00  0.00     0.035 A 
HETATM   17  C   UNL     1      26.777  46.267  53.440  1.00  0.00     0.031 A 
HETATM   18  C   UNL     1      27.353  45.247  54.207  1.00  0.00     0.026 A 
HETATM   19  C   UNL     1      27.458  43.961  53.685  1.00  0.00     0.034 A 
HETATM   20 CL   UNL     1      28.176  42.711  54.623  1.00  0.00    -0.084 Cl
HETATM   21  C   UNL     1      26.986  43.684  52.406  1.00  0.00     0.026 A 
HETATM   22  C   UNL     1      26.403  44.703  51.646  1.00  0.00     0.031 A 
ENDBRANCH  13  16
ENDBRANCH  10  12
BRANCH   9  23
HETATM   23  C   UNL     1      23.107  46.827  48.840  1.00  0.00    -0.028 A 
HETATM   24  C   UNL     1      23.306  45.529  49.348  1.00  0.00     0.012 A 
HETATM   25  C   UNL     1      22.809  44.419  48.664  1.00  0.00     0.043 A 
HETATM   26  C   UNL     1      22.107  44.598  47.478  1.00  0.00     0.116 A 
HETATM   27  F   UNL     1      21.635  43.530  46.823  1.00  0.00    -0.206 F 
HETATM   28  C   UNL     1      21.889  45.868  46.962  1.00  0.00     0.043 A 
HETATM   29  C   UNL     1      22.383  46.982  47.643  1.00  0.00     0.012 A 
ENDBRANCH   9  23
BRANCH   7  30
HETATM   30  C   UNL     1      20.092  51.341  48.731  1.00  0.00     0.085 C 
BRANCH  30  31
HETATM   31  C   UNL     1      19.388  51.422  50.084  1.00  0.00     0.034 C 
BRANCH  31  32
HETATM   32  C   UNL     1      18.472  50.234  50.349  1.00  0.00     0.164 C 
BRANCH  32  33
HETATM   33  O   UNL     1      19.053  49.393  51.339  1.00  0.00    -0.401 OA
HETATM   34  H   UNL     1      18.995  48.477  51.016  1.00  0.00     0.209 HD
ENDBRANCH  32  33
ENDBRANCH  31  32
ENDBRANCH  30  31
ENDBRANCH   7  30
TORSDOF 7
ENDMDL
MODEL 5
REMARK VINA RESULT:      -8.0      4.047      8.502
REMARK  7 active torsions:
REMARK  status: ('A' for Active; 'I' for Inactive)
REMARK    1  A    between atoms: C_7  and  C_8 
REMARK    2  A    between atoms: C_8  and  C_9 
REMARK    3  A    between atoms: C_9  and  C_10 
REMARK    4  A    between atoms: C_10  and  O_11 
REMARK    5  A    between atoms: C_13  and  C_14 
REMARK    6  A    between atoms: C_21  and  C_22 
REMARK       I    between atoms: C_22  and  N_23 
REMARK    7  A    between atoms: N_23  and  C_24 
ROOT
HETATM    1  C   UNL     1      23.837  41.138  48.222  1.00  0.00     0.070 C 
HETATM    2  C   UNL     1      24.657  41.832  49.283  1.00  0.00     0.037 C 
HETATM    3  N   UNL     1      25.827  41.179  49.654  1.00  0.00    -0.192 N 
HETATM    4  C   UNL     1      26.556  41.529  50.731  1.00  0.00     0.726 A 
HETATM    5  N   UNL     1      26.225  42.657  51.429  1.00  0.00    -0.083 N 
HETATM    6  N   UNL     1      27.018  42.815  52.511  1.00  0.00    -0.140 NA
HETATM    7  C   UNL     1      27.833  41.758  52.381  1.00  0.00     0.166 A 
HETATM    8  N   UNL     1      27.578  40.945  51.300  1.00  0.00    -0.046 NA
HETATM    9  C   UNL     1      25.111  43.544  51.077  1.00  0.00     0.202 C 
HETATM   10  C   UNL     1      24.295  42.974  49.920  1.00  0.00     0.062 C 
HETATM   11  H   UNL     1      26.031  40.285  49.213  1.00  0.00     0.184 HD
ENDROOT
BRANCH  10  12
HETATM   12  C   UNL     1      23.034  43.718  49.654  1.00  0.00     0.256 C 
HETATM   13  N   UNL     1      23.136  44.617  48.615  1.00  0.00    -0.323 N 
HETATM   14  H   UNL     1      24.036  44.693  48.159  1.00  0.00     0.169 HD
HETATM   15  O   UNL     1      22.067  43.510  50.373  1.00  0.00    -0.267 OA
BRANCH  13  16
HETATM   16  C   UNL     1      22.112  45.433  48.090  1.00  0.00     0.035 A 
HETATM   17  C   UNL     1      21.018  44.947  47.370  1.00  0.00     0.031 A 
HETATM   18  C   UNL     1      20.050  45.825  46.867  1.00  0.00     0.026 A 
HETATM   19  C   UNL     1      20.178  47.194  47.079  1.00  0.00     0.034 A 
HETATM   20 CL   UNL     1      18.996  48.273  46.450  1.00  0.00    -0.084 Cl
HETATM   21  C   UNL     1      21.261  47.694  47.796  1.00  0.00     0.026 A 
HETATM   22  C   UNL     1      22.221  46.814  48.305  1.00  0.00     0.031 A 
ENDBRANCH  13  16
ENDBRANCH  10  12
BRANCH   9  23
HETATM   23  C   UNL     1      25.627  44.953  50.784  1.00  0.00    -0.028 A 
HETATM   24  C   UNL     1      25.153  46.079  51.483  1.00  0.00     0.012 A 
HETATM   25  C   UNL     1      25.644  47.352  51.190  1.00  0.00     0.043 A 
HETATM   26  C   UNL     1      26.613  47.506  50.206  1.00  0.00     0.116 A 
HETATM   27  F   UNL     1      27.080  48.729  49.925  1.00  0.00    -0.206 F 
HETATM   28  C   UNL     1      27.105  46.410  49.509  1.00  0.00     0.043 A 
HETATM   29  C   UNL     1      26.617  45.134  49.799  1.00  0.00     0.012 A 
ENDBRANCH   9  23
BRANCH   7  30
HETATM   30  C   UNL     1      28.945  41.489  53.328  1.00  0.00     0.085 C 
BRANCH  30  31
HETATM   31  C   UNL     1      30.030  42.563  53.305  1.00  0.00     0.034 C 
BRANCH  31  32
HETATM   32  C   UNL     1      30.107  43.358  54.602  1.00  0.00     0.164 C 
BRANCH  32  33
HETATM   33  O   UNL     1      28.894  44.078  54.795  1.00  0.00    -0.401 OA
HETATM   34  H   UNL     1      28.284  43.497  55.282  1.00  0.00     0.209 HD
ENDBRANCH  32  33
ENDBRANCH  31  32
ENDBRANCH  30  31
ENDBRANCH   7  30
TORSDOF 7
ENDMDL
MODEL 6
REMARK VINA RESULT:      -7.9      1.606      2.198
REMARK  7 active torsions:
REMARK  status: ('A' for Active; 'I' for Inactive)
REMARK    1  A    between atoms: C_7  and  C_8 
REMARK    2  A    between atoms: C_8  and  C_9 
REMARK    3  A    between atoms: C_9  and  C_10 
REMARK    4  A    between atoms: C_10  and  O_11 
REMARK    5  A    between atoms: C_13  and  C_14 
REMARK    6  A    between atoms: C_21  and  C_22 
REMARK       I    between atoms: C_22  and  N_23 
REMARK    7  A    between atoms: N_23  and  C_24 
ROOT
HETATM    1  C   UNL     1      25.509  47.060  51.305  1.00  0.00     0.070 C 
HETATM    2  C   UNL     1      25.072  45.762  50.670  1.00  0.00     0.037 C 
HETATM    3  N   UNL     1      24.339  45.891  49.495  1.00  0.00    -0.192 N 
HETATM    4  C   UNL     1      23.682  44.865  48.921  1.00  0.00     0.726 A 
HETATM    5  N   UNL     1      23.836  43.602  49.424  1.00  0.00    -0.083 N 
HETATM    6  N   UNL     1      23.054  42.715  48.771  1.00  0.00    -0.140 NA
HETATM    7  C   UNL     1      22.481  43.512  47.857  1.00  0.00     0.166 A 
HETATM    8  N   UNL     1      22.840  44.838  47.922  1.00  0.00    -0.046 NA
HETATM    9  C   UNL     1      24.696  43.271  50.566  1.00  0.00     0.202 C 
HETATM   10  C   UNL     1      25.284  44.530  51.198  1.00  0.00     0.062 C 
HETATM   11  H   UNL     1      24.130  46.831  49.167  1.00  0.00     0.184 HD
ENDROOT
BRANCH  10  12
HETATM   12  C   UNL     1      25.993  44.279  52.481  1.00  0.00     0.256 C 
HETATM   13  N   UNL     1      27.366  44.318  52.367  1.00  0.00    -0.323 N 
HETATM   14  H   UNL     1      27.746  44.492  51.446  1.00  0.00     0.169 HD
HETATM   15  O   UNL     1      25.331  44.028  53.479  1.00  0.00    -0.267 OA
BRANCH  13  16
HETATM   16  C   UNL     1      28.311  44.169  53.403  1.00  0.00     0.035 A 
HETATM   17  C   UNL     1      28.405  45.023  54.504  1.00  0.00     0.031 A 
HETATM   18  C   UNL     1      29.384  44.818  55.484  1.00  0.00     0.026 A 
HETATM   19  C   UNL     1      30.278  43.758  55.360  1.00  0.00     0.034 A 
HETATM   20 CL   UNL     1      31.488  43.513  56.557  1.00  0.00    -0.084 Cl
HETATM   21  C   UNL     1      30.196  42.896  54.271  1.00  0.00     0.026 A 
HETATM   22  C   UNL     1      29.211  43.099  53.299  1.00  0.00     0.031 A 
ENDBRANCH  13  16
ENDBRANCH  10  12
BRANCH   9  23
HETATM   23  C   UNL     1      25.776  42.274  50.144  1.00  0.00    -0.028 A 
HETATM   24  C   UNL     1      26.039  41.106  50.884  1.00  0.00     0.012 A 
HETATM   25  C   UNL     1      27.033  40.218  50.473  1.00  0.00     0.043 A 
HETATM   26  C   UNL     1      27.763  40.486  49.322  1.00  0.00     0.116 A 
HETATM   27  F   UNL     1      28.718  39.633  48.932  1.00  0.00    -0.206 F 
HETATM   28  C   UNL     1      27.516  41.626  48.568  1.00  0.00     0.043 A 
HETATM   29  C   UNL     1      26.522  42.518  48.975  1.00  0.00     0.012 A 
ENDBRANCH   9  23
BRANCH   7  30
HETATM   30  C   UNL     1      21.532  42.998  46.836  1.00  0.00     0.085 C 
BRANCH  30  31
HETATM   31  C   UNL     1      22.195  42.099  45.795  1.00  0.00     0.034 C 
BRANCH  31  32
HETATM   32  C   UNL     1      23.401  42.750  45.130  1.00  0.00     0.164 C 
BRANCH  32  33
HETATM   33  O   UNL     1      24.589  42.076  45.532  1.00  0.00    -0.401 OA
HETATM   34  H   UNL     1      24.644  41.249  45.022  1.00  0.00     0.209 HD
ENDBRANCH  32  33
ENDBRANCH  31  32
ENDBRANCH  30  31
ENDBRANCH   7  30
TORSDOF 7
ENDMDL
MODEL 7
REMARK VINA RESULT:      -7.6      3.227      4.502
REMARK  7 active torsions:
REMARK  status: ('A' for Active; 'I' for Inactive)
REMARK    1  A    between atoms: C_7  and  C_8 
REMARK    2  A    between atoms: C_8  and  C_9 
REMARK    3  A    between atoms: C_9  and  C_10 
REMARK    4  A    between atoms: C_10  and  O_11 
REMARK    5  A    between atoms: C_13  and  C_14 
REMARK    6  A    between atoms: C_21  and  C_22 
REMARK       I    between atoms: C_22  and  N_23 
REMARK    7  A    between atoms: N_23  and  C_24 
ROOT
HETATM    1  C   UNL     1      25.645  49.874  48.442  1.00  0.00     0.070 C 
HETATM    2  C   UNL     1      24.395  49.036  48.542  1.00  0.00     0.037 C 
HETATM    3  N   UNL     1      23.266  49.574  47.933  1.00  0.00    -0.192 N 
HETATM    4  C   UNL     1      22.026  49.081  48.115  1.00  0.00     0.726 A 
HETATM    5  N   UNL     1      21.860  47.920  48.818  1.00  0.00    -0.083 N 
HETATM    6  N   UNL     1      20.551  47.613  48.957  1.00  0.00    -0.140 NA
HETATM    7  C   UNL     1      19.984  48.620  48.278  1.00  0.00     0.166 A 
HETATM    8  N   UNL     1      20.859  49.542  47.749  1.00  0.00    -0.046 NA
HETATM    9  C   UNL     1      22.962  47.143  49.395  1.00  0.00     0.202 C 
HETATM   10  C   UNL     1      24.296  47.868  49.226  1.00  0.00     0.062 C 
HETATM   11  H   UNL     1      23.354  50.488  47.495  1.00  0.00     0.184 HD
ENDROOT
BRANCH  10  12
HETATM   12  C   UNL     1      25.417  47.236  49.971  1.00  0.00     0.256 C 
HETATM   13  N   UNL     1      25.189  47.136  51.327  1.00  0.00    -0.323 N 
HETATM   14  H   UNL     1      24.315  47.507  51.674  1.00  0.00     0.169 HD
HETATM   15  O   UNL     1      26.422  46.910  49.355  1.00  0.00    -0.267 OA
BRANCH  13  16
HETATM   16  C   UNL     1      26.032  46.546  52.292  1.00  0.00     0.035 A 
HETATM   17  C   UNL     1      26.472  45.221  52.240  1.00  0.00     0.031 A 
HETATM   18  C   UNL     1      27.295  44.704  53.247  1.00  0.00     0.026 A 
HETATM   19  C   UNL     1      27.677  45.512  54.315  1.00  0.00     0.034 A 
HETATM   20 CL   UNL     1      28.678  44.873  55.558  1.00  0.00    -0.084 Cl
HETATM   21  C   UNL     1      27.249  46.834  54.380  1.00  0.00     0.026 A 
HETATM   22  C   UNL     1      26.434  47.351  53.367  1.00  0.00     0.031 A 
ENDBRANCH  13  16
ENDBRANCH  10  12
BRANCH   9  23
HETATM   23  C   UNL     1      22.988  45.735  48.800  1.00  0.00    -0.028 A 
HETATM   24  C   UNL     1      23.191  44.594  49.599  1.00  0.00     0.012 A 
HETATM   25  C   UNL     1      23.211  43.323  49.025  1.00  0.00     0.043 A 
HETATM   26  C   UNL     1      23.021  43.184  47.655  1.00  0.00     0.116 A 
HETATM   27  F   UNL     1      23.044  41.962  47.107  1.00  0.00    -0.206 F 
HETATM   28  C   UNL     1      22.809  44.292  46.847  1.00  0.00     0.043 A 
HETATM   29  C   UNL     1      22.788  45.566  47.417  1.00  0.00     0.012 A 
ENDBRANCH   9  23
BRANCH   7  30
HETATM   30  C   UNL     1      18.514  48.729  48.095  1.00  0.00     0.085 C 
BRANCH  30  31
HETATM   31  C   UNL     1      17.719  47.906  49.106  1.00  0.00     0.034 C 
BRANCH  31  32
HETATM   32  C   UNL     1      16.857  46.834  48.452  1.00  0.00     0.164 C 
BRANCH  32  33
HETATM   33  O   UNL     1      17.524  45.578  48.519  1.00  0.00    -0.401 OA
HETATM   34  H   UNL     1      17.225  45.130  49.329  1.00  0.00     0.209 HD
ENDBRANCH  32  33
ENDBRANCH  31  32
ENDBRANCH  30  31
ENDBRANCH   7  30
TORSDOF 7
ENDMDL
MODEL 8
REMARK VINA RESULT:      -7.6      4.377      7.755
REMARK  7 active torsions:
REMARK  status: ('A' for Active; 'I' for Inactive)
REMARK    1  A    between atoms: C_7  and  C_8 
REMARK    2  A    between atoms: C_8  and  C_9 
REMARK    3  A    between atoms: C_9  and  C_10 
REMARK    4  A    between atoms: C_10  and  O_11 
REMARK    5  A    between atoms: C_13  and  C_14 
REMARK    6  A    between atoms: C_21  and  C_22 
REMARK       I    between atoms: C_22  and  N_23 
REMARK    7  A    between atoms: N_23  and  C_24 
ROOT
HETATM    1  C   UNL     1      27.238  44.528  52.617  1.00  0.00     0.070 C 
HETATM    2  C   UNL     1      27.199  43.431  51.581  1.00  0.00     0.037 C 
HETATM    3  N   UNL     1      27.710  42.205  51.992  1.00  0.00    -0.192 N 
HETATM    4  C   UNL     1      27.962  41.190  51.143  1.00  0.00     0.726 A 
HETATM    5  N   UNL     1      27.581  41.299  49.834  1.00  0.00    -0.083 N 
HETATM    6  N   UNL     1      27.972  40.222  49.119  1.00  0.00    -0.140 NA
HETATM    7  C   UNL     1      28.554  39.483  50.075  1.00  0.00     0.166 A 
HETATM    8  N   UNL     1      28.568  40.047  51.330  1.00  0.00    -0.046 NA
HETATM    9  C   UNL     1      26.890  42.465  49.272  1.00  0.00     0.202 C 
HETATM   10  C   UNL     1      26.776  43.587  50.301  1.00  0.00     0.062 C 
HETATM   11  H   UNL     1      28.091  42.142  52.934  1.00  0.00     0.184 HD
ENDROOT
BRANCH  10  12
HETATM   12  C   UNL     1      26.275  44.868  49.735  1.00  0.00     0.256 C 
HETATM   13  N   UNL     1      24.917  45.045  49.891  1.00  0.00    -0.323 N 
HETATM   14  H   UNL     1      24.407  44.301  50.348  1.00  0.00     0.169 HD
HETATM   15  O   UNL     1      27.066  45.607  49.165  1.00  0.00    -0.267 OA
BRANCH  13  16
HETATM   16  C   UNL     1      24.155  46.168  49.509  1.00  0.00     0.035 A 
HETATM   17  C   UNL     1      24.421  47.473  49.929  1.00  0.00     0.031 A 
HETATM   18  C   UNL     1      23.605  48.534  49.518  1.00  0.00     0.026 A 
HETATM   19  C   UNL     1      22.515  48.290  48.687  1.00  0.00     0.034 A 
HETATM   20 CL   UNL     1      21.505  49.591  48.192  1.00  0.00    -0.084 Cl
HETATM   21  C   UNL     1      22.238  46.996  48.258  1.00  0.00     0.026 A 
HETATM   22  C   UNL     1      23.060  45.939  48.663  1.00  0.00     0.031 A 
ENDBRANCH  13  16
ENDBRANCH  10  12
BRANCH   9  23
HETATM   23  C   UNL     1      25.531  42.054  48.707  1.00  0.00    -0.028 A 
HETATM   24  C   UNL     1      24.383  41.970  49.518  1.00  0.00     0.012 A 
HETATM   25  C   UNL     1      23.157  41.591  48.972  1.00  0.00     0.043 A 
HETATM   26  C   UNL     1      23.068  41.301  47.616  1.00  0.00     0.116 A 
HETATM   27  F   UNL     1      21.890  40.934  47.095  1.00  0.00    -0.206 F 
HETATM   28  C   UNL     1      24.183  41.386  46.792  1.00  0.00     0.043 A 
HETATM   29  C   UNL     1      25.412  41.766  47.334  1.00  0.00     0.012 A 
ENDBRANCH   9  23
BRANCH   7  30
HETATM   30  C   UNL     1      29.132  38.142  49.804  1.00  0.00     0.085 C 
BRANCH  30  31
HETATM   31  C   UNL     1      30.179  37.718  50.832  1.00  0.00     0.034 C 
BRANCH  31  32
HETATM   32  C   UNL     1      29.804  36.441  51.571  1.00  0.00     0.164 C 
BRANCH  32  33
HETATM   33  O   UNL     1      28.590  35.920  51.040  1.00  0.00    -0.401 OA
HETATM   34  H   UNL     1      28.216  36.595  50.447  1.00  0.00     0.209 HD
ENDBRANCH  32  33
ENDBRANCH  31  32
ENDBRANCH  30  31
ENDBRANCH   7  30
TORSDOF 7
ENDMDL
MODEL 9
REMARK VINA RESULT:      -7.6      5.653      8.159
REMARK  7 active torsions:
REMARK  status: ('A' for Active; 'I' for Inactive)
REMARK    1  A    between atoms: C_7  and  C_8 
REMARK    2  A    between atoms: C_8  and  C_9 
REMARK    3  A    between atoms: C_9  and  C_10 
REMARK    4  A    between atoms: C_10  and  O_11 
REMARK    5  A    between atoms: C_13  and  C_14 
REMARK    6  A    between atoms: C_21  and  C_22 
REMARK       I    between atoms: C_22  and  N_23 
REMARK    7  A    between atoms: N_23  and  C_24 
ROOT
HETATM    1  C   UNL     1      23.540  50.804  48.037  1.00  0.00     0.070 C 
HETATM    2  C   UNL     1      22.126  50.354  48.310  1.00  0.00     0.037 C 
HETATM    3  N   UNL     1      21.174  51.367  48.348  1.00  0.00    -0.192 N 
HETATM    4  C   UNL     1      19.918  51.182  48.797  1.00  0.00     0.726 A 
HETATM    5  N   UNL     1      19.495  49.920  49.110  1.00  0.00    -0.083 N 
HETATM    6  N   UNL     1      18.238  49.932  49.605  1.00  0.00    -0.140 NA
HETATM    7  C   UNL     1      17.951  51.239  49.527  1.00  0.00     0.166 A 
HETATM    8  N   UNL     1      18.959  52.037  49.037  1.00  0.00    -0.046 NA
HETATM    9  C   UNL     1      20.327  48.718  48.980  1.00  0.00     0.202 C 
HETATM   10  C   UNL     1      21.756  49.077  48.581  1.00  0.00     0.062 C 
HETATM   11  H   UNL     1      21.495  52.324  48.218  1.00  0.00     0.184 HD
ENDROOT
BRANCH  10  12
HETATM   12  C   UNL     1      22.698  47.926  48.637  1.00  0.00     0.256 C 
HETATM   13  N   UNL     1      23.359  47.815  49.841  1.00  0.00    -0.323 N 
HETATM   14  H   UNL     1      23.157  48.515  50.542  1.00  0.00     0.169 HD
HETATM   15  O   UNL     1      22.834  47.230  47.640  1.00  0.00    -0.267 OA
BRANCH  13  16
HETATM   16  C   UNL     1      24.273  46.810  50.222  1.00  0.00     0.035 A 
HETATM   17  C   UNL     1      24.018  45.441  50.115  1.00  0.00     0.031 A 
HETATM   18  C   UNL     1      24.972  44.505  50.531  1.00  0.00     0.026 A 
HETATM   19  C   UNL     1      26.184  44.938  51.061  1.00  0.00     0.034 A 
HETATM   20 CL   UNL     1      27.351  43.788  51.584  1.00  0.00    -0.084 Cl
HETATM   21  C   UNL     1      26.454  46.298  51.172  1.00  0.00     0.026 A 
HETATM   22  C   UNL     1      25.503  47.231  50.747  1.00  0.00     0.031 A 
ENDBRANCH  13  16
ENDBRANCH  10  12
BRANCH   9  23
HETATM   23  C   UNL     1      19.683  47.731  48.006  1.00  0.00    -0.028 A 
HETATM   24  C   UNL     1      19.268  46.449  48.413  1.00  0.00     0.012 A 
HETATM   25  C   UNL     1      18.685  45.571  47.498  1.00  0.00     0.043 A 
HETATM   26  C   UNL     1      18.508  45.969  46.179  1.00  0.00     0.116 A 
HETATM   27  F   UNL     1      17.951  45.123  45.303  1.00  0.00    -0.206 F 
HETATM   28  C   UNL     1      18.899  47.232  45.755  1.00  0.00     0.043 A 
HETATM   29  C   UNL     1      19.482  48.114  46.666  1.00  0.00     0.012 A 
ENDBRANCH   9  23
BRANCH   7  30
HETATM   30  C   UNL     1      16.630  51.789  49.927  1.00  0.00     0.085 C 
BRANCH  30  31
HETATM   31  C   UNL     1      16.595  53.316  49.950  1.00  0.00     0.034 C 
BRANCH  31  32
HETATM   32  C   UNL     1      15.252  53.873  50.405  1.00  0.00     0.164 C 
BRANCH  32  33
HETATM   33  O   UNL     1      15.367  54.371  51.734  1.00  0.00    -0.401 OA
HETATM   34  H   UNL     1      14.471  54.586  52.045  1.00  0.00     0.209 HD
ENDBRANCH  32  33
ENDBRANCH  31  32
ENDBRANCH  30  31
ENDBRANCH   7  30
TORSDOF 7
ENDMDL
MODEL 10
REMARK VINA RESULT:      -7.4      7.709     12.087
REMARK  7 active torsions:
REMARK  status: ('A' for Active; 'I' for Inactive)
REMARK    1  A    between atoms: C_7  and  C_8 
REMARK    2  A    between atoms: C_8  and  C_9 
REMARK    3  A    between atoms: C_9  and  C_10 
REMARK    4  A    between atoms: C_10  and  O_11 
REMARK    5  A    between atoms: C_13  and  C_14 
REMARK    6  A    between atoms: C_21  and  C_22 
REMARK       I    between atoms: C_22  and  N_23 
REMARK    7  A    between atoms: N_23  and  C_24 
ROOT
HETATM    1  C   UNL     1      18.711  51.978  49.845  1.00  0.00     0.070 C 
HETATM    2  C   UNL     1      19.637  50.945  49.252  1.00  0.00     0.037 C 
HETATM    3  N   UNL     1      20.828  50.746  49.941  1.00  0.00    -0.192 N 
HETATM    4  C   UNL     1      21.860  50.039  49.441  1.00  0.00     0.726 A 
HETATM    5  N   UNL     1      21.703  49.365  48.261  1.00  0.00    -0.083 N 
HETATM    6  N   UNL     1      22.855  48.771  47.879  1.00  0.00    -0.140 NA
HETATM    7  C   UNL     1      23.658  49.100  48.901  1.00  0.00     0.166 A 
HETATM    8  N   UNL     1      23.082  49.880  49.877  1.00  0.00    -0.046 NA
HETATM    9  C   UNL     1      20.459  49.345  47.484  1.00  0.00     0.202 C 
HETATM   10  C   UNL     1      19.414  50.278  48.092  1.00  0.00     0.062 C 
HETATM   11  H   UNL     1      21.001  51.318  50.765  1.00  0.00     0.184 HD
ENDROOT
BRANCH  10  12
HETATM   12  C   UNL     1      18.210  50.462  47.238  1.00  0.00     0.256 C 
HETATM   13  N   UNL     1      18.456  51.180  46.087  1.00  0.00    -0.323 N 
HETATM   14  H   UNL     1      19.400  51.516  45.949  1.00  0.00     0.169 HD
HETATM   15  O   UNL     1      17.139  50.018  47.628  1.00  0.00    -0.267 OA
BRANCH  13  16
HETATM   16  C   UNL     1      17.541  51.480  45.057  1.00  0.00     0.035 A 
HETATM   17  C   UNL     1      17.081  50.547  44.124  1.00  0.00     0.031 A 
HETATM   18  C   UNL     1      16.183  50.928  43.120  1.00  0.00     0.026 A 
HETATM   19  C   UNL     1      15.747  52.247  43.043  1.00  0.00     0.034 A 
HETATM   20 CL   UNL     1      14.654  52.718  41.801  1.00  0.00    -0.084 Cl
HETATM   21  C   UNL     1      16.193  53.188  43.966  1.00  0.00     0.026 A 
HETATM   22  C   UNL     1      17.083  52.802  44.974  1.00  0.00     0.031 A 
ENDBRANCH  13  16
ENDBRANCH  10  12
BRANCH   9  23
HETATM   23  C   UNL     1      19.945  47.912  47.343  1.00  0.00    -0.028 A 
HETATM   24  C   UNL     1      19.610  47.129  48.464  1.00  0.00     0.012 A 
HETATM   25  C   UNL     1      19.146  45.823  48.301  1.00  0.00     0.043 A 
HETATM   26  C   UNL     1      19.007  45.297  47.022  1.00  0.00     0.116 A 
HETATM   27  F   UNL     1      18.564  44.042  46.870  1.00  0.00    -0.206 F 
HETATM   28  C   UNL     1      19.321  46.052  45.900  1.00  0.00     0.043 A 
HETATM   29  C   UNL     1      19.786  47.359  46.058  1.00  0.00     0.012 A 
ENDBRANCH   9  23
BRANCH   7  30
HETATM   30  C   UNL     1      25.069  48.644  48.984  1.00  0.00     0.085 C 
BRANCH  30  31
HETATM   31  C   UNL     1      26.064  49.657  48.423  1.00  0.00     0.034 C 
BRANCH  31  32
HETATM   32  C   UNL     1      27.485  49.435  48.923  1.00  0.00     0.164 C 
BRANCH  32  33
HETATM   33  O   UNL     1      27.912  48.120  48.583  1.00  0.00    -0.401 OA
HETATM   34  H   UNL     1      28.104  48.112  47.629  1.00  0.00     0.209 HD
ENDBRANCH  32  33
ENDBRANCH  31  32
ENDBRANCH  30  31
ENDBRANCH   7  30
TORSDOF 7
ENDMDL
