MODEL 1
REMARK VINA RESULT:      -9.2      0.000      0.000
REMARK  2 active torsions:
REMARK  status: ('A' for Active; 'I' for Inactive)
REMARK    1  A    between atoms: C_5  and  C_6 
REMARK       I    between atoms: C_6  and  N_7 
REMARK    2  A    between atoms: N_7  and  N_8 
ROOT
HETATM    1  N   UNL     1      26.953  45.268  52.540  1.00  0.00    -0.282 N 
HETATM    2  C   UNL     1      27.704  44.234  52.906  1.00  0.00     0.127 C 
HETATM    3  C   UNL     1      28.650  44.391  54.042  1.00  0.00     0.015 A 
HETATM    4  C   UNL     1      29.714  43.473  54.172  1.00  0.00    -0.042 A 
HETATM    5  C   UNL     1      30.650  43.608  55.206  1.00  0.00     0.008 A 
HETATM    6  C   UNL     1      30.514  44.630  56.141  1.00  0.00     0.001 A 
HETATM    7  C   UNL     1      29.447  45.519  56.048  1.00  0.00     0.001 A 
HETATM    8  C   UNL     1      28.521  45.401  55.010  1.00  0.00     0.016 A 
HETATM    9  C   UNL     1      29.850  42.363  53.163  1.00  0.00     0.069 C 
HETATM   10  C   UNL     1      28.473  41.887  52.661  1.00  0.00     0.028 C 
HETATM   11  C   UNL     1      28.650  41.024  51.407  1.00  0.00     0.038 C 
HETATM   12  C   UNL     1      27.703  41.094  53.724  1.00  0.00     0.038 C 
HETATM   13  N   UNL     1      27.640  43.060  52.279  1.00  0.00    -0.366 N 
HETATM   14  H   UNL     1      27.012  42.965  51.500  1.00  0.00     0.162 HD
HETATM   15  H   UNL     1      27.129  46.164  53.013  1.00  0.00     0.188 HD
ENDROOT
BRANCH   1  16
HETATM   16  N   UNL     1      26.001  45.311  51.610  1.00  0.00    -0.264 N 
HETATM   17  C   UNL     1      25.580  46.587  51.261  1.00  0.00     0.270 C 
HETATM   18  O   UNL     1      26.111  47.576  51.764  1.00  0.00    -0.266 OA
HETATM   19  H   UNL     1      25.629  44.480  51.170  1.00  0.00     0.190 HD
BRANCH  17  20
HETATM   20  C   UNL     1      24.500  46.704  50.249  1.00  0.00     0.033 A 
HETATM   21  C   UNL     1      23.872  45.585  49.688  1.00  0.00     0.017 A 
HETATM   22  C   UNL     1      22.855  45.757  48.744  1.00  0.00     0.007 A 
HETATM   23  C   UNL     1      22.457  47.040  48.350  1.00  0.00    -0.062 A 
HETATM   24  C   UNL     1      21.335  47.228  47.369  1.00  0.00     0.048 C 
HETATM   25  C   UNL     1      23.069  48.154  48.936  1.00  0.00     0.007 A 
HETATM   26  C   UNL     1      24.085  47.988  49.880  1.00  0.00     0.017 A 
ENDBRANCH  17  20
ENDBRANCH   1  16
TORSDOF 2
ENDMDL
MODEL 2
REMARK VINA RESULT:      -9.2      3.348      7.850
REMARK  2 active torsions:
REMARK  status: ('A' for Active; 'I' for Inactive)
REMARK    1  A    between atoms: C_5  and  C_6 
REMARK       I    between atoms: C_6  and  N_7 
REMARK    2  A    between atoms: N_7  and  N_8 
ROOT
HETATM    1  N   UNL     1      29.089  40.921  52.339  1.00  0.00    -0.282 N 
HETATM    2  C   UNL     1      28.323  41.050  51.260  1.00  0.00     0.127 C 
HETATM    3  C   UNL     1      28.434  40.048  50.167  1.00  0.00     0.015 A 
HETATM    4  C   UNL     1      27.955  40.385  48.884  1.00  0.00    -0.042 A 
HETATM    5  C   UNL     1      28.075  39.484  47.818  1.00  0.00     0.008 A 
HETATM    6  C   UNL     1      28.635  38.227  48.027  1.00  0.00     0.001 A 
HETATM    7  C   UNL     1      29.075  37.865  49.297  1.00  0.00     0.001 A 
HETATM    8  C   UNL     1      28.975  38.766  50.360  1.00  0.00     0.016 A 
HETATM    9  C   UNL     1      27.341  41.744  48.666  1.00  0.00     0.069 C 
HETATM   10  C   UNL     1      26.598  42.233  49.924  1.00  0.00     0.028 C 
HETATM   11  C   UNL     1      26.294  43.730  49.794  1.00  0.00     0.038 C 
HETATM   12  C   UNL     1      25.294  41.466  50.172  1.00  0.00     0.038 C 
HETATM   13  N   UNL     1      27.463  42.059  51.123  1.00  0.00    -0.366 N 
HETATM   14  H   UNL     1      27.405  42.744  51.856  1.00  0.00     0.162 HD
HETATM   15  H   UNL     1      29.791  40.170  52.326  1.00  0.00     0.188 HD
ENDROOT
BRANCH   1  16
HETATM   16  N   UNL     1      29.087  41.658  53.448  1.00  0.00    -0.264 N 
HETATM   17  C   UNL     1      29.830  42.829  53.375  1.00  0.00     0.270 C 
HETATM   18  O   UNL     1      30.390  43.144  52.328  1.00  0.00    -0.266 OA
HETATM   19  H   UNL     1      28.563  41.400  54.274  1.00  0.00     0.190 HD
BRANCH  17  20
HETATM   20  C   UNL     1      29.891  43.682  54.589  1.00  0.00     0.033 A 
HETATM   21  C   UNL     1      28.998  44.737  54.811  1.00  0.00     0.017 A 
HETATM   22  C   UNL     1      29.100  45.502  55.977  1.00  0.00     0.007 A 
HETATM   23  C   UNL     1      30.090  45.224  56.928  1.00  0.00    -0.062 A 
HETATM   24  C   UNL     1      30.174  46.017  58.202  1.00  0.00     0.048 C 
HETATM   25  C   UNL     1      30.961  44.150  56.712  1.00  0.00     0.007 A 
HETATM   26  C   UNL     1      30.863  43.383  55.550  1.00  0.00     0.017 A 
ENDBRANCH  17  20
ENDBRANCH   1  16
TORSDOF 2
ENDMDL
MODEL 3
REMARK VINA RESULT:      -9.1      4.398      7.863
REMARK  2 active torsions:
REMARK  status: ('A' for Active; 'I' for Inactive)
REMARK    1  A    between atoms: C_5  and  C_6 
REMARK       I    between atoms: C_6  and  N_7 
REMARK    2  A    between atoms: N_7  and  N_8 
ROOT
HETATM    1  N   UNL     1      28.182  41.349  51.131  1.00  0.00    -0.282 N 
HETATM    2  C   UNL     1      28.365  40.187  50.513  1.00  0.00     0.127 C 
HETATM    3  C   UNL     1      27.623  39.910  49.254  1.00  0.00     0.015 A 
HETATM    4  C   UNL     1      27.488  38.574  48.824  1.00  0.00    -0.042 A 
HETATM    5  C   UNL     1      26.765  38.267  47.664  1.00  0.00     0.008 A 
HETATM    6  C   UNL     1      26.205  39.288  46.901  1.00  0.00     0.001 A 
HETATM    7  C   UNL     1      26.365  40.614  47.291  1.00  0.00     0.001 A 
HETATM    8  C   UNL     1      27.069  40.925  48.456  1.00  0.00     0.016 A 
HETATM    9  C   UNL     1      28.105  37.474  49.649  1.00  0.00     0.069 C 
HETATM   10  C   UNL     1      29.407  37.942  50.327  1.00  0.00     0.028 C 
HETATM   11  C   UNL     1      29.812  36.941  51.414  1.00  0.00     0.038 C 
HETATM   12  C   UNL     1      30.560  38.111  49.330  1.00  0.00     0.038 C 
HETATM   13  N   UNL     1      29.187  39.255  50.993  1.00  0.00    -0.366 N 
HETATM   14  H   UNL     1      29.672  39.439  51.854  1.00  0.00     0.162 HD
HETATM   15  H   UNL     1      27.461  41.974  50.747  1.00  0.00     0.188 HD
ENDROOT
BRANCH   1  16
HETATM   16  N   UNL     1      28.799  41.817  52.214  1.00  0.00    -0.264 N 
HETATM   17  C   UNL     1      28.313  43.027  52.690  1.00  0.00     0.270 C 
HETATM   18  O   UNL     1      27.350  43.565  52.148  1.00  0.00    -0.266 OA
HETATM   19  H   UNL     1      29.549  41.317  52.674  1.00  0.00     0.190 HD
BRANCH  17  20
HETATM   20  C   UNL     1      28.977  43.616  53.881  1.00  0.00     0.033 A 
HETATM   21  C   UNL     1      30.140  43.072  54.438  1.00  0.00     0.017 A 
HETATM   22  C   UNL     1      30.726  43.675  55.555  1.00  0.00     0.007 A 
HETATM   23  C   UNL     1      30.158  44.820  56.127  1.00  0.00    -0.062 A 
HETATM   24  C   UNL     1      30.809  45.495  57.300  1.00  0.00     0.048 C 
HETATM   25  C   UNL     1      29.011  45.375  55.547  1.00  0.00     0.007 A 
HETATM   26  C   UNL     1      28.423  44.777  54.431  1.00  0.00     0.017 A 
ENDBRANCH  17  20
ENDBRANCH   1  16
TORSDOF 2
ENDMDL
MODEL 4
REMARK VINA RESULT:      -8.8      1.978      8.504
REMARK  2 active torsions:
REMARK  status: ('A' for Active; 'I' for Inactive)
REMARK    1  A    between atoms: C_5  and  C_6 
REMARK       I    between atoms: C_6  and  N_7 
REMARK    2  A    between atoms: N_7  and  N_8 
ROOT
HETATM    1  N   UNL     1      24.554  47.590  50.212  1.00  0.00    -0.282 N 
HETATM    2  C   UNL     1      23.438  47.507  49.496  1.00  0.00     0.127 C 
HETATM    3  C   UNL     1      22.775  48.756  49.038  1.00  0.00     0.015 A 
HETATM    4  C   UNL     1      21.419  48.705  48.652  1.00  0.00    -0.042 A 
HETATM    5  C   UNL     1      20.747  49.866  48.251  1.00  0.00     0.008 A 
HETATM    6  C   UNL     1      21.425  51.080  48.191  1.00  0.00     0.001 A 
HETATM    7  C   UNL     1      22.774  51.139  48.531  1.00  0.00     0.001 A 
HETATM    8  C   UNL     1      23.445  49.988  48.949  1.00  0.00     0.016 A 
HETATM    9  C   UNL     1      20.692  47.386  48.708  1.00  0.00     0.069 C 
HETATM   10  C   UNL     1      21.635  46.210  48.388  1.00  0.00     0.028 C 
HETATM   11  C   UNL     1      20.968  44.890  48.790  1.00  0.00     0.038 C 
HETATM   12  C   UNL     1      22.024  46.157  46.906  1.00  0.00     0.038 C 
HETATM   13  N   UNL     1      22.888  46.334  49.183  1.00  0.00    -0.366 N 
HETATM   14  H   UNL     1      23.330  45.493  49.510  1.00  0.00     0.162 HD
HETATM   15  H   UNL     1      24.862  48.531  50.491  1.00  0.00     0.188 HD
ENDROOT
BRANCH   1  16
HETATM   16  N   UNL     1      25.334  46.602  50.648  1.00  0.00    -0.264 N 
HETATM   17  C   UNL     1      25.704  46.692  51.983  1.00  0.00     0.270 C 
HETATM   18  O   UNL     1      25.278  47.607  52.685  1.00  0.00    -0.266 OA
HETATM   19  H   UNL     1      25.616  45.829  50.059  1.00  0.00     0.190 HD
BRANCH  17  20
HETATM   20  C   UNL     1      26.596  45.635  52.523  1.00  0.00     0.033 A 
HETATM   21  C   UNL     1      27.083  44.587  51.733  1.00  0.00     0.017 A 
HETATM   22  C   UNL     1      27.927  43.624  52.295  1.00  0.00     0.007 A 
HETATM   23  C   UNL     1      28.289  43.695  53.646  1.00  0.00    -0.062 A 
HETATM   24  C   UNL     1      29.230  42.687  54.242  1.00  0.00     0.048 C 
HETATM   25  C   UNL     1      27.821  44.761  54.423  1.00  0.00     0.007 A 
HETATM   26  C   UNL     1      26.979  45.726  53.866  1.00  0.00     0.017 A 
ENDBRANCH  17  20
ENDBRANCH   1  16
TORSDOF 2
ENDMDL
MODEL 5
REMARK VINA RESULT:      -8.7      3.182      7.783
REMARK  2 active torsions:
REMARK  status: ('A' for Active; 'I' for Inactive)
REMARK    1  A    between atoms: C_5  and  C_6 
REMARK       I    between atoms: C_6  and  N_7 
REMARK    2  A    between atoms: N_7  and  N_8 
ROOT
HETATM    1  N   UNL     1      26.493  42.078  51.811  1.00  0.00    -0.282 N 
HETATM    2  C   UNL     1      26.683  41.321  50.736  1.00  0.00     0.127 C 
HETATM    3  C   UNL     1      25.671  41.342  49.647  1.00  0.00     0.015 A 
HETATM    4  C   UNL     1      25.643  40.275  48.724  1.00  0.00    -0.042 A 
HETATM    5  C   UNL     1      24.681  40.237  47.707  1.00  0.00     0.008 A 
HETATM    6  C   UNL     1      23.766  41.277  47.572  1.00  0.00     0.001 A 
HETATM    7  C   UNL     1      23.807  42.356  48.450  1.00  0.00     0.001 A 
HETATM    8  C   UNL     1      24.752  42.391  49.478  1.00  0.00     0.016 A 
HETATM    9  C   UNL     1      26.642  39.156  48.868  1.00  0.00     0.069 C 
HETATM   10  C   UNL     1      27.987  39.672  49.417  1.00  0.00     0.028 C 
HETATM   11  C   UNL     1      28.845  38.488  49.875  1.00  0.00     0.038 C 
HETATM   12  C   UNL     1      28.764  40.499  48.385  1.00  0.00     0.038 C 
HETATM   13  N   UNL     1      27.751  40.535  50.606  1.00  0.00    -0.366 N 
HETATM   14  H   UNL     1      28.423  40.511  51.353  1.00  0.00     0.162 HD
HETATM   15  H   UNL     1      25.600  42.584  51.876  1.00  0.00     0.188 HD
ENDROOT
BRANCH   1  16
HETATM   16  N   UNL     1      27.307  42.260  52.850  1.00  0.00    -0.264 N 
HETATM   17  C   UNL     1      27.849  43.534  52.955  1.00  0.00     0.270 C 
HETATM   18  O   UNL     1      27.533  44.411  52.153  1.00  0.00    -0.266 OA
HETATM   19  H   UNL     1      27.497  41.533  53.528  1.00  0.00     0.190 HD
BRANCH  17  20
HETATM   20  C   UNL     1      28.786  43.793  54.077  1.00  0.00     0.033 A 
HETATM   21  C   UNL     1      28.735  44.964  54.843  1.00  0.00     0.017 A 
HETATM   22  C   UNL     1      29.640  45.150  55.893  1.00  0.00     0.007 A 
HETATM   23  C   UNL     1      30.602  44.175  56.186  1.00  0.00    -0.062 A 
HETATM   24  C   UNL     1      31.546  44.353  57.340  1.00  0.00     0.048 C 
HETATM   25  C   UNL     1      30.628  42.995  55.434  1.00  0.00     0.007 A 
HETATM   26  C   UNL     1      29.727  42.804  54.385  1.00  0.00     0.017 A 
ENDBRANCH  17  20
ENDBRANCH   1  16
TORSDOF 2
ENDMDL
MODEL 6
REMARK VINA RESULT:      -8.5      4.039      7.229
REMARK  2 active torsions:
REMARK  status: ('A' for Active; 'I' for Inactive)
REMARK    1  A    between atoms: C_5  and  C_6 
REMARK       I    between atoms: C_6  and  N_7 
REMARK    2  A    between atoms: N_7  and  N_8 
ROOT
HETATM    1  N   UNL     1      28.198  40.696  51.643  1.00  0.00    -0.282 N 
HETATM    2  C   UNL     1      27.784  41.910  51.991  1.00  0.00     0.127 C 
HETATM    3  C   UNL     1      28.518  42.650  53.052  1.00  0.00     0.015 A 
HETATM    4  C   UNL     1      27.872  43.721  53.704  1.00  0.00    -0.042 A 
HETATM    5  C   UNL     1      28.513  44.420  54.735  1.00  0.00     0.008 A 
HETATM    6  C   UNL     1      29.814  44.087  55.099  1.00  0.00     0.001 A 
HETATM    7  C   UNL     1      30.479  43.058  54.438  1.00  0.00     0.001 A 
HETATM    8  C   UNL     1      29.839  42.346  53.421  1.00  0.00     0.016 A 
HETATM    9  C   UNL     1      26.466  44.084  53.299  1.00  0.00     0.069 C 
HETATM   10  C   UNL     1      26.234  43.838  51.796  1.00  0.00     0.028 C 
HETATM   11  C   UNL     1      24.732  43.879  51.492  1.00  0.00     0.038 C 
HETATM   12  C   UNL     1      26.962  44.859  50.914  1.00  0.00     0.038 C 
HETATM   13  N   UNL     1      26.724  42.483  51.422  1.00  0.00    -0.366 N 
HETATM   14  H   UNL     1      26.221  41.971  50.718  1.00  0.00     0.162 HD
HETATM   15  H   UNL     1      28.965  40.288  52.193  1.00  0.00     0.188 HD
ENDROOT
BRANCH   1  16
HETATM   16  N   UNL     1      27.733  39.909  50.675  1.00  0.00    -0.264 N 
HETATM   17  C   UNL     1      28.573  38.864  50.314  1.00  0.00     0.270 C 
HETATM   18  O   UNL     1      29.636  38.689  50.906  1.00  0.00    -0.266 OA
HETATM   19  H   UNL     1      26.825  40.043  50.251  1.00  0.00     0.190 HD
BRANCH  17  20
HETATM   20  C   UNL     1      28.124  37.965  49.221  1.00  0.00     0.033 A 
HETATM   21  C   UNL     1      27.019  37.116  49.353  1.00  0.00     0.017 A 
HETATM   22  C   UNL     1      26.639  36.297  48.285  1.00  0.00     0.007 A 
HETATM   23  C   UNL     1      27.355  36.315  47.082  1.00  0.00    -0.062 A 
HETATM   24  C   UNL     1      26.922  35.468  45.919  1.00  0.00     0.048 C 
HETATM   25  C   UNL     1      28.441  37.187  46.948  1.00  0.00     0.007 A 
HETATM   26  C   UNL     1      28.825  38.008  48.010  1.00  0.00     0.017 A 
ENDBRANCH  17  20
ENDBRANCH   1  16
TORSDOF 2
ENDMDL
MODEL 7
REMARK VINA RESULT:      -8.4      2.694      7.895
REMARK  2 active torsions:
REMARK  status: ('A' for Active; 'I' for Inactive)
REMARK    1  A    between atoms: C_5  and  C_6 
REMARK       I    between atoms: C_6  and  N_7 
REMARK    2  A    between atoms: N_7  and  N_8 
ROOT
HETATM    1  N   UNL     1      27.648  42.125  52.176  1.00  0.00    -0.282 N 
HETATM    2  C   UNL     1      26.703  42.325  51.263  1.00  0.00     0.127 C 
HETATM    3  C   UNL     1      26.502  41.312  50.194  1.00  0.00     0.015 A 
HETATM    4  C   UNL     1      25.816  41.688  49.020  1.00  0.00    -0.042 A 
HETATM    5  C   UNL     1      25.639  40.776  47.972  1.00  0.00     0.008 A 
HETATM    6  C   UNL     1      26.106  39.470  48.098  1.00  0.00     0.001 A 
HETATM    7  C   UNL     1      26.748  39.072  49.267  1.00  0.00     0.001 A 
HETATM    8  C   UNL     1      26.944  39.983  50.308  1.00  0.00     0.016 A 
HETATM    9  C   UNL     1      25.305  43.100  48.893  1.00  0.00     0.069 C 
HETATM   10  C   UNL     1      24.872  43.666  50.259  1.00  0.00     0.028 C 
HETATM   11  C   UNL     1      24.694  45.185  50.156  1.00  0.00     0.038 C 
HETATM   12  C   UNL     1      23.574  43.032  50.773  1.00  0.00     0.038 C 
HETATM   13  N   UNL     1      25.933  43.412  51.272  1.00  0.00    -0.366 N 
HETATM   14  H   UNL     1      26.085  44.103  51.986  1.00  0.00     0.162 HD
HETATM   15  H   UNL     1      28.259  41.309  52.045  1.00  0.00     0.188 HD
ENDROOT
BRANCH   1  16
HETATM   16  N   UNL     1      27.934  42.863  53.247  1.00  0.00    -0.264 N 
HETATM   17  C   UNL     1      29.282  42.928  53.572  1.00  0.00     0.270 C 
HETATM   18  O   UNL     1      30.118  42.368  52.866  1.00  0.00    -0.266 OA
HETATM   19  H   UNL     1      27.226  43.363  53.770  1.00  0.00     0.190 HD
BRANCH  17  20
HETATM   20  C   UNL     1      29.664  43.714  54.773  1.00  0.00     0.033 A 
HETATM   21  C   UNL     1      30.740  43.356  55.593  1.00  0.00     0.017 A 
HETATM   22  C   UNL     1      31.058  44.140  56.707  1.00  0.00     0.007 A 
HETATM   23  C   UNL     1      30.306  45.281  57.013  1.00  0.00    -0.062 A 
HETATM   24  C   UNL     1      30.672  46.148  58.184  1.00  0.00     0.048 C 
HETATM   25  C   UNL     1      29.249  45.648  56.173  1.00  0.00     0.007 A 
HETATM   26  C   UNL     1      28.928  44.870  55.059  1.00  0.00     0.017 A 
ENDBRANCH  17  20
ENDBRANCH   1  16
TORSDOF 2
ENDMDL
MODEL 8
REMARK VINA RESULT:      -8.1     10.272     13.940
REMARK  2 active torsions:
REMARK  status: ('A' for Active; 'I' for Inactive)
REMARK    1  A    between atoms: C_5  and  C_6 
REMARK       I    between atoms: C_6  and  N_7 
REMARK    2  A    between atoms: N_7  and  N_8 
ROOT
HETATM    1  N   UNL     1      16.101  52.288  49.803  1.00  0.00    -0.282 N 
HETATM    2  C   UNL     1      17.098  51.464  49.500  1.00  0.00     0.127 C 
HETATM    3  C   UNL     1      16.795  50.181  48.811  1.00  0.00     0.015 A 
HETATM    4  C   UNL     1      17.751  49.144  48.854  1.00  0.00    -0.042 A 
HETATM    5  C   UNL     1      17.489  47.907  48.251  1.00  0.00     0.008 A 
HETATM    6  C   UNL     1      16.295  47.703  47.567  1.00  0.00     0.001 A 
HETATM    7  C   UNL     1      15.359  48.730  47.482  1.00  0.00     0.001 A 
HETATM    8  C   UNL     1      15.606  49.960  48.096  1.00  0.00     0.016 A 
HETATM    9  C   UNL     1      19.047  49.373  49.588  1.00  0.00     0.069 C 
HETATM   10  C   UNL     1      19.501  50.842  49.481  1.00  0.00     0.028 C 
HETATM   11  C   UNL     1      20.607  51.117  50.506  1.00  0.00     0.038 C 
HETATM   12  C   UNL     1      20.003  51.201  48.078  1.00  0.00     0.038 C 
HETATM   13  N   UNL     1      18.364  51.748  49.802  1.00  0.00    -0.366 N 
HETATM   14  H   UNL     1      18.561  52.608  50.284  1.00  0.00     0.162 HD
HETATM   15  H   UNL     1      15.146  51.953  49.620  1.00  0.00     0.188 HD
ENDROOT
BRANCH   1  16
HETATM   16  N   UNL     1      16.166  53.503  50.343  1.00  0.00    -0.264 N 
HETATM   17  C   UNL     1      14.994  53.942  50.944  1.00  0.00     0.270 C 
HETATM   18  O   UNL     1      14.009  53.209  50.992  1.00  0.00    -0.266 OA
HETATM   19  H   UNL     1      17.013  54.057  50.340  1.00  0.00     0.190 HD
BRANCH  17  20
HETATM   20  C   UNL     1      14.993  55.301  51.541  1.00  0.00     0.033 A 
HETATM   21  C   UNL     1      14.809  55.520  52.911  1.00  0.00     0.017 A 
HETATM   22  C   UNL     1      14.825  56.823  53.418  1.00  0.00     0.007 A 
HETATM   23  C   UNL     1      15.023  57.917  52.566  1.00  0.00    -0.062 A 
HETATM   24  C   UNL     1      15.085  59.314  53.114  1.00  0.00     0.048 C 
HETATM   25  C   UNL     1      15.236  57.689  51.202  1.00  0.00     0.007 A 
HETATM   26  C   UNL     1      15.221  56.390  50.691  1.00  0.00     0.017 A 
ENDBRANCH  17  20
ENDBRANCH   1  16
TORSDOF 2
ENDMDL
MODEL 9
REMARK VINA RESULT:      -8.1      4.245     10.162
REMARK  2 active torsions:
REMARK  status: ('A' for Active; 'I' for Inactive)
REMARK    1  A    between atoms: C_5  and  C_6 
REMARK       I    between atoms: C_6  and  N_7 
REMARK    2  A    between atoms: N_7  and  N_8 
ROOT
HETATM    1  N   UNL     1      21.428  48.498  49.328  1.00  0.00    -0.282 N 
HETATM    2  C   UNL     1      20.202  48.551  48.819  1.00  0.00     0.127 C 
HETATM    3  C   UNL     1      19.522  49.868  48.700  1.00  0.00     0.015 A 
HETATM    4  C   UNL     1      18.119  49.899  48.558  1.00  0.00    -0.042 A 
HETATM    5  C   UNL     1      17.436  51.119  48.481  1.00  0.00     0.008 A 
HETATM    6  C   UNL     1      18.144  52.318  48.504  1.00  0.00     0.001 A 
HETATM    7  C   UNL     1      19.532  52.302  48.602  1.00  0.00     0.001 A 
HETATM    8  C   UNL     1      20.217  51.089  48.698  1.00  0.00     0.016 A 
HETATM    9  C   UNL     1      17.358  48.598  48.525  1.00  0.00     0.069 C 
HETATM   10  C   UNL     1      18.181  47.483  47.851  1.00  0.00     0.028 C 
HETATM   11  C   UNL     1      17.540  46.122  48.142  1.00  0.00     0.038 C 
HETATM   12  C   UNL     1      18.305  47.678  46.336  1.00  0.00     0.038 C 
HETATM   13  N   UNL     1      19.557  47.456  48.419  1.00  0.00    -0.366 N 
HETATM   14  H   UNL     1      20.014  46.566  48.519  1.00  0.00     0.162 HD
HETATM   15  H   UNL     1      21.818  49.375  49.699  1.00  0.00     0.188 HD
ENDROOT
BRANCH   1  16
HETATM   16  N   UNL     1      22.230  47.442  49.448  1.00  0.00    -0.264 N 
HETATM   17  C   UNL     1      23.582  47.740  49.556  1.00  0.00     0.270 C 
HETATM   18  O   UNL     1      23.959  48.910  49.582  1.00  0.00    -0.266 OA
HETATM   19  H   UNL     1      21.881  46.493  49.486  1.00  0.00     0.190 HD
BRANCH  17  20
HETATM   20  C   UNL     1      24.531  46.604  49.665  1.00  0.00     0.033 A 
HETATM   21  C   UNL     1      25.905  46.790  49.860  1.00  0.00     0.017 A 
HETATM   22  C   UNL     1      26.750  45.681  49.963  1.00  0.00     0.007 A 
HETATM   23  C   UNL     1      26.236  44.381  49.870  1.00  0.00    -0.062 A 
HETATM   24  C   UNL     1      27.136  43.188  50.024  1.00  0.00     0.048 C 
HETATM   25  C   UNL     1      24.858  44.204  49.704  1.00  0.00     0.007 A 
HETATM   26  C   UNL     1      24.009  45.307  49.601  1.00  0.00     0.017 A 
ENDBRANCH  17  20
ENDBRANCH   1  16
TORSDOF 2
ENDMDL
MODEL 10
REMARK VINA RESULT:      -8.1      2.531      9.073
REMARK  2 active torsions:
REMARK  status: ('A' for Active; 'I' for Inactive)
REMARK    1  A    between atoms: C_5  and  C_6 
REMARK       I    between atoms: C_6  and  N_7 
REMARK    2  A    between atoms: N_7  and  N_8 
ROOT
HETATM    1  N   UNL     1      23.881  46.457  49.949  1.00  0.00    -0.282 N 
HETATM    2  C   UNL     1      23.070  47.341  49.379  1.00  0.00     0.127 C 
HETATM    3  C   UNL     1      22.006  46.861  48.458  1.00  0.00     0.015 A 
HETATM    4  C   UNL     1      21.426  47.775  47.553  1.00  0.00    -0.042 A 
HETATM    5  C   UNL     1      20.448  47.355  46.642  1.00  0.00     0.008 A 
HETATM    6  C   UNL     1      20.009  46.034  46.651  1.00  0.00     0.001 A 
HETATM    7  C   UNL     1      20.542  45.131  47.565  1.00  0.00     0.001 A 
HETATM    8  C   UNL     1      21.531  45.539  48.463  1.00  0.00     0.016 A 
HETATM    9  C   UNL     1      21.899  49.206  47.554  1.00  0.00     0.069 C 
HETATM   10  C   UNL     1      22.297  49.665  48.971  1.00  0.00     0.028 C 
HETATM   11  C   UNL     1      23.088  50.975  48.886  1.00  0.00     0.038 C 
HETATM   12  C   UNL     1      21.084  49.857  49.888  1.00  0.00     0.038 C 
HETATM   13  N   UNL     1      23.186  48.650  49.600  1.00  0.00    -0.366 N 
HETATM   14  H   UNL     1      23.919  48.971  50.209  1.00  0.00     0.162 HD
HETATM   15  H   UNL     1      23.785  45.476  49.654  1.00  0.00     0.188 HD
ENDROOT
BRANCH   1  16
HETATM   16  N   UNL     1      24.836  46.671  50.852  1.00  0.00    -0.264 N 
HETATM   17  C   UNL     1      24.952  45.691  51.828  1.00  0.00     0.270 C 
HETATM   18  O   UNL     1      24.236  44.692  51.792  1.00  0.00    -0.266 OA
HETATM   19  H   UNL     1      25.451  47.475  50.817  1.00  0.00     0.190 HD
BRANCH  17  20
HETATM   20  C   UNL     1      25.980  45.884  52.881  1.00  0.00     0.033 A 
HETATM   21  C   UNL     1      26.208  47.124  53.489  1.00  0.00     0.017 A 
HETATM   22  C   UNL     1      27.187  47.245  54.481  1.00  0.00     0.007 A 
HETATM   23  C   UNL     1      27.945  46.134  54.872  1.00  0.00    -0.062 A 
HETATM   24  C   UNL     1      28.966  46.251  55.968  1.00  0.00     0.048 C 
HETATM   25  C   UNL     1      27.692  44.892  54.280  1.00  0.00     0.007 A 
HETATM   26  C   UNL     1      26.716  44.766  53.290  1.00  0.00     0.017 A 
ENDBRANCH  17  20
ENDBRANCH   1  16
TORSDOF 2
ENDMDL
