MODEL 1
REMARK VINA RESULT:      -8.1      0.000      0.000
REMARK  11 active torsions:
REMARK  status: ('A' for Active; 'I' for Inactive)
REMARK    1  A    between atoms: O_2  and  C_3 
REMARK    2  A    between atoms: C_6  and  C_7 
REMARK    3  A    between atoms: C_7  and  N_8 
REMARK    4  A    between atoms: C_7  and  C_29 
REMARK       I    between atoms: N_8  and  C_9 
REMARK    5  A    between atoms: N_8  and  C_20 
REMARK    6  A    between atoms: C_9  and  C_10 
REMARK    7  A    between atoms: C_13  and  C_14 
REMARK       I    between atoms: C_14  and  N_15 
REMARK    8  A    between atoms: C_17  and  N_18 
REMARK    9  A    between atoms: C_20  and  C_21 
REMARK   10  A    between atoms: C_21  and  N_22 
REMARK       I    between atoms: C_29  and  N_30 
REMARK   11  A    between atoms: N_30  and  C_31 
ROOT
HETATM    1  N   UNL     1      24.484  44.174  50.298  1.00  0.00    -0.328 N 
HETATM    2  C   UNL     1      23.479  43.591  49.480  1.00  0.00     0.265 C 
HETATM    3  O   UNL     1      23.182  42.404  49.636  1.00  0.00    -0.267 OA
ENDROOT
BRANCH   1   4
HETATM    4  C   UNL     1      25.180  43.254  51.236  1.00  0.00     0.213 C 
BRANCH   4   5
HETATM    5  C   UNL     1      26.282  42.384  50.637  1.00  0.00    -0.026 A 
HETATM    6  C   UNL     1      26.971  41.459  51.439  1.00  0.00     0.012 A 
HETATM    7  C   UNL     1      27.930  40.596  50.893  1.00  0.00     0.037 A 
HETATM    8  C   UNL     1      28.209  40.628  49.530  1.00  0.00     0.068 A 
HETATM    9  C   UNL     1      27.517  41.527  48.719  1.00  0.00     0.037 A 
HETATM   10  C   UNL     1      26.561  42.391  49.259  1.00  0.00     0.012 A 
BRANCH   8  11
HETATM   11  O   UNL     1      29.109  39.841  48.870  1.00  0.00    -0.356 OA
HETATM   12  C   UNL     1      29.202  38.483  49.283  1.00  0.00     0.210 C 
ENDBRANCH   8  11
ENDBRANCH   4   5
BRANCH   4  13
HETATM   13  C   UNL     1      25.479  43.918  52.600  1.00  0.00     0.245 C 
HETATM   14  N   UNL     1      26.792  44.220  52.859  1.00  0.00    -0.354 N 
HETATM   15  H   UNL     1      27.495  43.866  52.206  1.00  0.00     0.162 HD
HETATM   16  O   UNL     1      24.554  44.184  53.368  1.00  0.00    -0.271 OA
BRANCH  14  17
HETATM   17  C   UNL     1      27.237  44.750  54.129  1.00  0.00     0.084 C 
HETATM   18  C   UNL     1      28.712  44.451  54.388  1.00  0.00     0.025 C 
HETATM   19  C   UNL     1      29.097  45.511  55.405  1.00  0.00     0.002 C 
HETATM   20  C   UNL     1      28.397  46.764  54.898  1.00  0.00     0.002 C 
HETATM   21  C   UNL     1      27.124  46.276  54.205  1.00  0.00     0.025 C 
ENDBRANCH  14  17
ENDBRANCH   4  13
ENDBRANCH   1   4
BRANCH   1  22
HETATM   22  C   UNL     1      25.228  45.393  49.907  1.00  0.00     0.155 C 
BRANCH  22  23
HETATM   23  C   UNL     1      24.728  46.698  50.573  1.00  0.00     0.255 C 
BRANCH  23  24
HETATM   24  N   UNL     1      25.375  47.951  50.015  1.00  0.00    -0.066 N 
HETATM   25  H   UNL     1      25.438  48.643  50.771  1.00  0.00     0.280 HD
HETATM   26  C   UNL     1      26.779  47.712  49.446  1.00  0.00     0.261 C 
HETATM   27  C   UNL     1      27.353  49.040  48.937  1.00  0.00     0.195 C 
HETATM   28  O   UNL     1      26.501  49.610  47.939  1.00  0.00    -0.388 OA
HETATM   29  C   UNL     1      25.195  49.895  48.449  1.00  0.00     0.195 C 
HETATM   30  C   UNL     1      24.508  48.613  48.938  1.00  0.00     0.261 C 
ENDBRANCH  23  24
ENDBRANCH  22  23
ENDBRANCH   1  22
BRANCH   2  31
HETATM   31  C   UNL     1      22.836  44.369  48.448  1.00  0.00     0.120 A 
HETATM   32  S   UNL     1      21.538  45.419  48.772  1.00  0.00     0.020 SA
HETATM   33  N   UNL     1      21.308  45.928  47.218  1.00  0.00    -0.203 NA
HETATM   34  C   UNL     1      22.097  45.210  46.400  1.00  0.00     0.160 A 
HETATM   35  C   UNL     1      22.987  44.291  47.077  1.00  0.00     0.085 A 
BRANCH  34  36
HETATM   36  C   UNL     1      22.001  45.376  44.939  1.00  0.00     0.271 C 
HETATM   37  N   UNL     1      20.749  45.654  44.461  1.00  0.00    -0.365 N 
HETATM   38  H   UNL     1      19.955  45.670  45.089  1.00  0.00     0.159 HD
HETATM   39  H   UNL     1      20.610  45.714  43.463  1.00  0.00     0.159 HD
HETATM   40  O   UNL     1      22.958  45.264  44.178  1.00  0.00    -0.266 OA
ENDBRANCH  34  36
BRANCH  35  41
HETATM   41  N   UNL     1      23.867  43.463  46.459  1.00  0.00    -0.396 N 
HETATM   42  H   UNL     1      23.519  42.848  45.713  1.00  0.00     0.156 HD
HETATM   43  H   UNL     1      24.618  43.015  46.985  1.00  0.00     0.156 HD
ENDBRANCH  35  41
ENDBRANCH   2  31
TORSDOF 11
ENDMDL
MODEL 2
REMARK VINA RESULT:      -7.9      2.967      6.522
REMARK  11 active torsions:
REMARK  status: ('A' for Active; 'I' for Inactive)
REMARK    1  A    between atoms: O_2  and  C_3 
REMARK    2  A    between atoms: C_6  and  C_7 
REMARK    3  A    between atoms: C_7  and  N_8 
REMARK    4  A    between atoms: C_7  and  C_29 
REMARK       I    between atoms: N_8  and  C_9 
REMARK    5  A    between atoms: N_8  and  C_20 
REMARK    6  A    between atoms: C_9  and  C_10 
REMARK    7  A    between atoms: C_13  and  C_14 
REMARK       I    between atoms: C_14  and  N_15 
REMARK    8  A    between atoms: C_17  and  N_18 
REMARK    9  A    between atoms: C_20  and  C_21 
REMARK   10  A    between atoms: C_21  and  N_22 
REMARK       I    between atoms: C_29  and  N_30 
REMARK   11  A    between atoms: N_30  and  C_31 
ROOT
HETATM    1  N   UNL     1      26.967  42.719  50.673  1.00  0.00    -0.328 N 
HETATM    2  C   UNL     1      27.808  41.582  50.821  1.00  0.00     0.265 C 
HETATM    3  O   UNL     1      28.791  41.647  51.562  1.00  0.00    -0.267 OA
ENDROOT
BRANCH   1   4
HETATM    4  C   UNL     1      27.408  43.955  51.370  1.00  0.00     0.213 C 
BRANCH   4   5
HETATM    5  C   UNL     1      26.713  45.249  50.955  1.00  0.00    -0.026 A 
HETATM    6  C   UNL     1      27.203  46.005  49.877  1.00  0.00     0.012 A 
HETATM    7  C   UNL     1      26.536  47.152  49.430  1.00  0.00     0.037 A 
HETATM    8  C   UNL     1      25.354  47.560  50.041  1.00  0.00     0.068 A 
HETATM    9  C   UNL     1      24.844  46.807  51.099  1.00  0.00     0.037 A 
HETATM   10  C   UNL     1      25.508  45.663  51.549  1.00  0.00     0.012 A 
BRANCH   8  11
HETATM   11  O   UNL     1      24.602  48.648  49.702  1.00  0.00    -0.356 OA
HETATM   12  C   UNL     1      23.254  48.405  49.315  1.00  0.00     0.210 C 
ENDBRANCH   8  11
ENDBRANCH   4   5
BRANCH   4  13
HETATM   13  C   UNL     1      27.625  43.734  52.885  1.00  0.00     0.245 C 
HETATM   14  N   UNL     1      28.855  44.079  53.384  1.00  0.00    -0.354 N 
HETATM   15  H   UNL     1      29.585  44.323  52.711  1.00  0.00     0.162 HD
HETATM   16  O   UNL     1      26.700  43.310  53.580  1.00  0.00    -0.271 OA
BRANCH  14  17
HETATM   17  C   UNL     1      29.237  43.838  54.758  1.00  0.00     0.084 C 
HETATM   18  C   UNL     1      30.588  43.134  54.860  1.00  0.00     0.025 C 
HETATM   19  C   UNL     1      31.042  43.477  56.268  1.00  0.00     0.002 C 
HETATM   20  C   UNL     1      30.655  44.941  56.420  1.00  0.00     0.002 C 
HETATM   21  C   UNL     1      29.405  45.132  55.561  1.00  0.00     0.025 C 
ENDBRANCH  14  17
ENDBRANCH   4  13
ENDBRANCH   1   4
BRANCH   1  22
HETATM   22  C   UNL     1      26.077  42.910  49.505  1.00  0.00     0.155 C 
BRANCH  22  23
HETATM   23  C   UNL     1      24.592  42.549  49.757  1.00  0.00     0.255 C 
BRANCH  23  24
HETATM   24  N   UNL     1      23.628  43.267  48.832  1.00  0.00    -0.066 N 
HETATM   25  H   UNL     1      24.165  43.939  48.270  1.00  0.00     0.280 HD
HETATM   26  C   UNL     1      22.873  42.326  47.886  1.00  0.00     0.261 C 
HETATM   27  C   UNL     1      21.952  43.151  46.978  1.00  0.00     0.195 C 
HETATM   28  O   UNL     1      21.031  43.921  47.756  1.00  0.00    -0.388 OA
HETATM   29  C   UNL     1      21.701  44.848  48.616  1.00  0.00     0.195 C 
HETATM   30  C   UNL     1      22.613  44.114  49.607  1.00  0.00     0.261 C 
ENDBRANCH  23  24
ENDBRANCH  22  23
ENDBRANCH   1  22
BRANCH   2  31
HETATM   31  C   UNL     1      27.537  40.373  50.081  1.00  0.00     0.120 A 
HETATM   32  S   UNL     1      26.207  39.371  50.426  1.00  0.00     0.020 SA
HETATM   33  N   UNL     1      26.517  38.233  49.270  1.00  0.00    -0.203 NA
HETATM   34  C   UNL     1      27.706  38.499  48.701  1.00  0.00     0.160 A 
HETATM   35  C   UNL     1      28.329  39.724  49.154  1.00  0.00     0.085 A 
BRANCH  34  36
HETATM   36  C   UNL     1      28.284  37.566  47.718  1.00  0.00     0.271 C 
HETATM   37  N   UNL     1      27.614  36.383  47.566  1.00  0.00    -0.365 N 
HETATM   38  H   UNL     1      26.818  36.168  48.153  1.00  0.00     0.159 HD
HETATM   39  H   UNL     1      28.000  35.678  46.954  1.00  0.00     0.159 HD
HETATM   40  O   UNL     1      29.305  37.801  47.076  1.00  0.00    -0.266 OA
ENDBRANCH  34  36
BRANCH  35  41
HETATM   41  N   UNL     1      29.529  40.190  48.725  1.00  0.00    -0.396 N 
HETATM   42  H   UNL     1      29.821  39.979  47.762  1.00  0.00     0.156 HD
HETATM   43  H   UNL     1      30.332  40.218  49.355  1.00  0.00     0.156 HD
ENDBRANCH  35  41
ENDBRANCH   2  31
TORSDOF 11
ENDMDL
MODEL 3
REMARK VINA RESULT:      -7.9      2.736      7.145
REMARK  11 active torsions:
REMARK  status: ('A' for Active; 'I' for Inactive)
REMARK    1  A    between atoms: O_2  and  C_3 
REMARK    2  A    between atoms: C_6  and  C_7 
REMARK    3  A    between atoms: C_7  and  N_8 
REMARK    4  A    between atoms: C_7  and  C_29 
REMARK       I    between atoms: N_8  and  C_9 
REMARK    5  A    between atoms: N_8  and  C_20 
REMARK    6  A    between atoms: C_9  and  C_10 
REMARK    7  A    between atoms: C_13  and  C_14 
REMARK       I    between atoms: C_14  and  N_15 
REMARK    8  A    between atoms: C_17  and  N_18 
REMARK    9  A    between atoms: C_20  and  C_21 
REMARK   10  A    between atoms: C_21  and  N_22 
REMARK       I    between atoms: C_29  and  N_30 
REMARK   11  A    between atoms: N_30  and  C_31 
ROOT
HETATM    1  N   UNL     1      25.957  43.427  51.044  1.00  0.00    -0.328 N 
HETATM    2  C   UNL     1      27.147  43.188  50.305  1.00  0.00     0.265 C 
HETATM    3  O   UNL     1      27.885  44.134  50.021  1.00  0.00    -0.267 OA
ENDROOT
BRANCH   1   4
HETATM    4  C   UNL     1      25.644  44.850  51.339  1.00  0.00     0.213 C 
BRANCH   4   5
HETATM    5  C   UNL     1      26.283  45.437  52.595  1.00  0.00    -0.026 A 
HETATM    6  C   UNL     1      25.822  46.655  53.124  1.00  0.00     0.012 A 
HETATM    7  C   UNL     1      26.340  47.171  54.319  1.00  0.00     0.037 A 
HETATM    8  C   UNL     1      27.318  46.472  55.020  1.00  0.00     0.068 A 
HETATM    9  C   UNL     1      27.769  45.251  54.518  1.00  0.00     0.037 A 
HETATM   10  C   UNL     1      27.256  44.734  53.326  1.00  0.00     0.012 A 
BRANCH   8  11
HETATM   11  O   UNL     1      27.900  46.855  56.194  1.00  0.00    -0.356 OA
HETATM   12  C   UNL     1      29.044  46.121  56.616  1.00  0.00     0.210 C 
ENDBRANCH   8  11
ENDBRANCH   4   5
BRANCH   4  13
HETATM   13  C   UNL     1      25.661  45.734  50.070  1.00  0.00     0.245 C 
HETATM   14  N   UNL     1      26.444  46.859  50.118  1.00  0.00    -0.354 N 
HETATM   15  H   UNL     1      26.849  47.113  51.023  1.00  0.00     0.162 HD
HETATM   16  O   UNL     1      25.024  45.388  49.074  1.00  0.00    -0.271 OA
BRANCH  14  17
HETATM   17  C   UNL     1      26.482  47.831  49.049  1.00  0.00     0.084 C 
HETATM   18  C   UNL     1      25.325  48.823  49.137  1.00  0.00     0.025 C 
HETATM   19  C   UNL     1      25.837  50.012  48.343  1.00  0.00     0.002 C 
HETATM   20  C   UNL     1      27.294  50.124  48.770  1.00  0.00     0.002 C 
HETATM   21  C   UNL     1      27.746  48.697  49.082  1.00  0.00     0.025 C 
ENDBRANCH  14  17
ENDBRANCH   4  13
ENDBRANCH   1   4
BRANCH   1  22
HETATM   22  C   UNL     1      24.807  42.495  51.034  1.00  0.00     0.155 C 
BRANCH  22  23
HETATM   23  C   UNL     1      23.442  43.154  50.714  1.00  0.00     0.255 C 
BRANCH  23  24
HETATM   24  N   UNL     1      23.112  43.176  49.234  1.00  0.00    -0.066 N 
HETATM   25  H   UNL     1      23.906  43.595  48.735  1.00  0.00     0.280 HD
HETATM   26  C   UNL     1      22.840  41.785  48.648  1.00  0.00     0.261 C 
HETATM   27  C   UNL     1      22.548  41.915  47.148  1.00  0.00     0.195 C 
HETATM   28  O   UNL     1      21.429  42.778  46.923  1.00  0.00    -0.388 OA
HETATM   29  C   UNL     1      21.668  44.102  47.412  1.00  0.00     0.195 C 
HETATM   30  C   UNL     1      21.920  44.087  48.925  1.00  0.00     0.261 C 
ENDBRANCH  23  24
ENDBRANCH  22  23
ENDBRANCH   1  22
BRANCH   2  31
HETATM   31  C   UNL     1      27.473  41.855  49.857  1.00  0.00     0.120 A 
HETATM   32  S   UNL     1      26.845  41.196  48.421  1.00  0.00     0.020 SA
HETATM   33  N   UNL     1      27.581  39.724  48.544  1.00  0.00    -0.203 NA
HETATM   34  C   UNL     1      28.193  39.639  49.739  1.00  0.00     0.160 A 
HETATM   35  C   UNL     1      28.141  40.850  50.529  1.00  0.00     0.085 A 
BRANCH  34  36
HETATM   36  C   UNL     1      28.828  38.378  50.160  1.00  0.00     0.271 C 
HETATM   37  N   UNL     1      28.092  37.246  49.935  1.00  0.00    -0.365 N 
HETATM   38  H   UNL     1      27.153  37.313  49.565  1.00  0.00     0.159 HD
HETATM   39  H   UNL     1      28.447  36.359  50.262  1.00  0.00     0.159 HD
HETATM   40  O   UNL     1      29.933  38.318  50.693  1.00  0.00    -0.266 OA
ENDBRANCH  34  36
BRANCH  35  41
HETATM   41  N   UNL     1      28.683  40.996  51.764  1.00  0.00    -0.396 N 
HETATM   42  H   UNL     1      28.110  41.421  52.504  1.00  0.00     0.156 HD
HETATM   43  H   UNL     1      29.668  41.242  51.875  1.00  0.00     0.156 HD
ENDBRANCH  35  41
ENDBRANCH   2  31
TORSDOF 11
ENDMDL
MODEL 4
REMARK VINA RESULT:      -7.6      2.560      8.782
REMARK  11 active torsions:
REMARK  status: ('A' for Active; 'I' for Inactive)
REMARK    1  A    between atoms: O_2  and  C_3 
REMARK    2  A    between atoms: C_6  and  C_7 
REMARK    3  A    between atoms: C_7  and  N_8 
REMARK    4  A    between atoms: C_7  and  C_29 
REMARK       I    between atoms: N_8  and  C_9 
REMARK    5  A    between atoms: N_8  and  C_20 
REMARK    6  A    between atoms: C_9  and  C_10 
REMARK    7  A    between atoms: C_13  and  C_14 
REMARK       I    between atoms: C_14  and  N_15 
REMARK    8  A    between atoms: C_17  and  N_18 
REMARK    9  A    between atoms: C_20  and  C_21 
REMARK   10  A    between atoms: C_21  and  N_22 
REMARK       I    between atoms: C_29  and  N_30 
REMARK   11  A    between atoms: N_30  and  C_31 
ROOT
HETATM    1  N   UNL     1      25.892  44.511  51.618  1.00  0.00    -0.328 N 
HETATM    2  C   UNL     1      26.096  44.584  53.023  1.00  0.00     0.265 C 
HETATM    3  O   UNL     1      25.225  45.086  53.737  1.00  0.00    -0.267 OA
ENDROOT
BRANCH   1   4
HETATM    4  C   UNL     1      24.653  45.149  51.102  1.00  0.00     0.213 C 
BRANCH   4   5
HETATM    5  C   UNL     1      24.824  46.502  50.416  1.00  0.00    -0.026 A 
HETATM    6  C   UNL     1      26.104  47.060  50.253  1.00  0.00     0.012 A 
HETATM    7  C   UNL     1      26.291  48.260  49.558  1.00  0.00     0.037 A 
HETATM    8  C   UNL     1      25.203  48.922  48.995  1.00  0.00     0.068 A 
HETATM    9  C   UNL     1      23.930  48.370  49.131  1.00  0.00     0.037 A 
HETATM   10  C   UNL     1      23.739  47.172  49.826  1.00  0.00     0.012 A 
BRANCH   8  11
HETATM   11  O   UNL     1      25.245  50.091  48.289  1.00  0.00    -0.356 OA
HETATM   12  C   UNL     1      24.022  50.542  47.718  1.00  0.00     0.210 C 
ENDBRANCH   8  11
ENDBRANCH   4   5
BRANCH   4  13
HETATM   13  C   UNL     1      23.709  44.134  50.416  1.00  0.00     0.245 C 
HETATM   14  N   UNL     1      23.469  44.328  49.079  1.00  0.00    -0.354 N 
HETATM   15  H   UNL     1      23.810  45.196  48.661  1.00  0.00     0.162 HD
HETATM   16  O   UNL     1      23.251  43.190  51.062  1.00  0.00    -0.271 OA
BRANCH  14  17
HETATM   17  C   UNL     1      22.532  43.522  48.329  1.00  0.00     0.084 C 
HETATM   18  C   UNL     1      21.788  44.341  47.277  1.00  0.00     0.025 C 
HETATM   19  C   UNL     1      21.328  43.284  46.288  1.00  0.00     0.002 C 
HETATM   20  C   UNL     1      22.528  42.354  46.177  1.00  0.00     0.002 C 
HETATM   21  C   UNL     1      23.215  42.398  47.542  1.00  0.00     0.025 C 
ENDBRANCH  14  17
ENDBRANCH   4  13
ENDBRANCH   1   4
BRANCH   1  22
HETATM   22  C   UNL     1      27.007  44.376  50.653  1.00  0.00     0.155 C 
BRANCH  22  23
HETATM   23  C   UNL     1      26.734  43.398  49.483  1.00  0.00     0.255 C 
BRANCH  23  24
HETATM   24  N   UNL     1      27.095  41.959  49.799  1.00  0.00    -0.066 N 
HETATM   25  H   UNL     1      27.835  41.964  50.512  1.00  0.00     0.280 HD
HETATM   26  C   UNL     1      25.913  41.133  50.320  1.00  0.00     0.261 C 
HETATM   27  C   UNL     1      26.389  39.710  50.636  1.00  0.00     0.195 C 
HETATM   28  O   UNL     1      26.953  39.095  49.474  1.00  0.00    -0.388 OA
HETATM   29  C   UNL     1      28.092  39.812  48.989  1.00  0.00     0.195 C 
HETATM   30  C   UNL     1      27.708  41.243  48.591  1.00  0.00     0.261 C 
ENDBRANCH  23  24
ENDBRANCH  22  23
ENDBRANCH   1  22
BRANCH   2  31
HETATM   31  C   UNL     1      27.328  44.111  53.607  1.00  0.00     0.120 A 
HETATM   32  S   UNL     1      27.800  42.479  53.544  1.00  0.00     0.020 SA
HETATM   33  N   UNL     1      29.214  42.653  54.379  1.00  0.00    -0.203 NA
HETATM   34  C   UNL     1      29.290  43.908  54.854  1.00  0.00     0.160 A 
HETATM   35  C   UNL     1      28.211  44.777  54.436  1.00  0.00     0.085 A 
BRANCH  34  36
HETATM   36  C   UNL     1      30.398  44.301  55.743  1.00  0.00     0.271 C 
HETATM   37  N   UNL     1      31.174  43.272  56.203  1.00  0.00    -0.365 N 
HETATM   38  H   UNL     1      30.934  42.313  55.983  1.00  0.00     0.159 HD
HETATM   39  H   UNL     1      31.907  43.473  56.868  1.00  0.00     0.159 HD
HETATM   40  O   UNL     1      30.624  45.461  56.077  1.00  0.00    -0.266 OA
ENDBRANCH  34  36
BRANCH  35  41
HETATM   41  N   UNL     1      28.077  46.078  54.795  1.00  0.00    -0.396 N 
HETATM   42  H   UNL     1      28.818  46.739  54.529  1.00  0.00     0.156 HD
HETATM   43  H   UNL     1      27.665  46.330  55.694  1.00  0.00     0.156 HD
ENDBRANCH  35  41
ENDBRANCH   2  31
TORSDOF 11
ENDMDL
MODEL 5
REMARK VINA RESULT:      -7.5     10.752     13.502
REMARK  11 active torsions:
REMARK  status: ('A' for Active; 'I' for Inactive)
REMARK    1  A    between atoms: O_2  and  C_3 
REMARK    2  A    between atoms: C_6  and  C_7 
REMARK    3  A    between atoms: C_7  and  N_8 
REMARK    4  A    between atoms: C_7  and  C_29 
REMARK       I    between atoms: N_8  and  C_9 
REMARK    5  A    between atoms: N_8  and  C_20 
REMARK    6  A    between atoms: C_9  and  C_10 
REMARK    7  A    between atoms: C_13  and  C_14 
REMARK       I    between atoms: C_14  and  N_15 
REMARK    8  A    between atoms: C_17  and  N_18 
REMARK    9  A    between atoms: C_20  and  C_21 
REMARK   10  A    between atoms: C_21  and  N_22 
REMARK       I    between atoms: C_29  and  N_30 
REMARK   11  A    between atoms: N_30  and  C_31 
ROOT
HETATM    1  N   UNL     1      29.435  49.496  39.751  1.00  0.00    -0.328 N 
HETATM    2  C   UNL     1      29.598  50.747  39.098  1.00  0.00     0.265 C 
HETATM    3  O   UNL     1      28.811  51.074  38.207  1.00  0.00    -0.267 OA
ENDROOT
BRANCH   1   4
HETATM    4  C   UNL     1      28.356  48.619  39.227  1.00  0.00     0.213 C 
BRANCH   4   5
HETATM    5  C   UNL     1      28.689  47.133  39.110  1.00  0.00    -0.026 A 
HETATM    6  C   UNL     1      28.219  46.222  40.070  1.00  0.00     0.012 A 
HETATM    7  C   UNL     1      28.445  44.846  39.939  1.00  0.00     0.037 A 
HETATM    8  C   UNL     1      29.133  44.350  38.836  1.00  0.00     0.068 A 
HETATM    9  C   UNL     1      29.587  45.241  37.864  1.00  0.00     0.037 A 
HETATM   10  C   UNL     1      29.365  46.614  37.992  1.00  0.00     0.012 A 
BRANCH   8  11
HETATM   11  O   UNL     1      29.414  43.038  38.582  1.00  0.00    -0.356 OA
HETATM   12  C   UNL     1      28.399  42.090  38.890  1.00  0.00     0.210 C 
ENDBRANCH   8  11
ENDBRANCH   4   5
BRANCH   4  13
HETATM   13  C   UNL     1      26.968  48.978  39.807  1.00  0.00     0.245 C 
HETATM   14  N   UNL     1      25.897  48.835  38.963  1.00  0.00    -0.354 N 
HETATM   15  H   UNL     1      26.095  48.639  37.979  1.00  0.00     0.162 HD
HETATM   16  O   UNL     1      26.868  49.329  40.983  1.00  0.00    -0.271 OA
BRANCH  14  17
HETATM   17  C   UNL     1      24.554  49.226  39.331  1.00  0.00     0.084 C 
HETATM   18  C   UNL     1      23.803  49.860  38.162  1.00  0.00     0.025 C 
HETATM   19  C   UNL     1      22.348  49.672  38.554  1.00  0.00     0.002 C 
HETATM   20  C   UNL     1      22.312  48.263  39.129  1.00  0.00     0.002 C 
HETATM   21  C   UNL     1      23.688  48.036  39.757  1.00  0.00     0.025 C 
ENDBRANCH  14  17
ENDBRANCH   4  13
ENDBRANCH   1   4
BRANCH   1  22
HETATM   22  C   UNL     1      30.539  48.815  40.467  1.00  0.00     0.155 C 
BRANCH  22  23
HETATM   23  C   UNL     1      30.753  49.289  41.926  1.00  0.00     0.255 C 
BRANCH  23  24
HETATM   24  N   UNL     1      31.944  50.212  42.095  1.00  0.00    -0.066 N 
HETATM   25  H   UNL     1      31.832  51.002  41.447  1.00  0.00     0.280 HD
HETATM   26  C   UNL     1      32.096  50.761  43.518  1.00  0.00     0.261 C 
HETATM   27  C   UNL     1      33.306  51.701  43.574  1.00  0.00     0.195 C 
HETATM   28  O   UNL     1      34.498  51.018  43.173  1.00  0.00    -0.388 OA
HETATM   29  C   UNL     1      34.412  50.536  41.828  1.00  0.00     0.195 C 
HETATM   30  C   UNL     1      33.256  49.538  41.679  1.00  0.00     0.261 C 
ENDBRANCH  23  24
ENDBRANCH  22  23
ENDBRANCH   1  22
BRANCH   2  31
HETATM   31  C   UNL     1      30.698  51.614  39.446  1.00  0.00     0.120 A 
HETATM   32  S   UNL     1      30.516  52.948  40.485  1.00  0.00     0.020 SA
HETATM   33  N   UNL     1      32.084  53.461  40.420  1.00  0.00    -0.203 NA
HETATM   34  C   UNL     1      32.745  52.735  39.501  1.00  0.00     0.160 A 
HETATM   35  C   UNL     1      31.971  51.665  38.910  1.00  0.00     0.085 A 
BRANCH  34  36
HETATM   36  C   UNL     1      34.137  53.067  39.152  1.00  0.00     0.271 C 
HETATM   37  N   UNL     1      34.466  54.393  39.245  1.00  0.00    -0.365 N 
HETATM   38  H   UNL     1      33.758  55.079  39.475  1.00  0.00     0.159 HD
HETATM   39  H   UNL     1      35.386  54.689  38.956  1.00  0.00     0.159 HD
HETATM   40  O   UNL     1      34.963  52.235  38.786  1.00  0.00    -0.266 OA
ENDBRANCH  34  36
BRANCH  35  41
HETATM   41  N   UNL     1      32.426  50.809  37.960  1.00  0.00    -0.396 N 
HETATM   42  H   UNL     1      32.477  51.138  36.988  1.00  0.00     0.156 HD
HETATM   43  H   UNL     1      32.194  49.816  38.001  1.00  0.00     0.156 HD
ENDBRANCH  35  41
ENDBRANCH   2  31
TORSDOF 11
ENDMDL
MODEL 6
REMARK VINA RESULT:      -7.5     11.840     14.213
REMARK  11 active torsions:
REMARK  status: ('A' for Active; 'I' for Inactive)
REMARK    1  A    between atoms: O_2  and  C_3 
REMARK    2  A    between atoms: C_6  and  C_7 
REMARK    3  A    between atoms: C_7  and  N_8 
REMARK    4  A    between atoms: C_7  and  C_29 
REMARK       I    between atoms: N_8  and  C_9 
REMARK    5  A    between atoms: N_8  and  C_20 
REMARK    6  A    between atoms: C_9  and  C_10 
REMARK    7  A    between atoms: C_13  and  C_14 
REMARK       I    between atoms: C_14  and  N_15 
REMARK    8  A    between atoms: C_17  and  N_18 
REMARK    9  A    between atoms: C_20  and  C_21 
REMARK   10  A    between atoms: C_21  and  N_22 
REMARK       I    between atoms: C_29  and  N_30 
REMARK   11  A    between atoms: N_30  and  C_31 
ROOT
HETATM    1  N   UNL     1      33.472  50.743  41.581  1.00  0.00    -0.328 N 
HETATM    2  C   UNL     1      33.032  49.408  41.375  1.00  0.00     0.265 C 
HETATM    3  O   UNL     1      33.849  48.486  41.421  1.00  0.00    -0.267 OA
ENDROOT
BRANCH   1   4
HETATM    4  C   UNL     1      34.937  50.933  41.745  1.00  0.00     0.213 C 
BRANCH   4   5
HETATM    5  C   UNL     1      35.705  51.374  40.501  1.00  0.00    -0.026 A 
HETATM    6  C   UNL     1      35.732  52.728  40.126  1.00  0.00     0.012 A 
HETATM    7  C   UNL     1      36.495  53.166  39.037  1.00  0.00     0.037 A 
HETATM    8  C   UNL     1      37.261  52.261  38.307  1.00  0.00     0.068 A 
HETATM    9  C   UNL     1      37.260  50.917  38.681  1.00  0.00     0.037 A 
HETATM   10  C   UNL     1      36.499  50.477  39.767  1.00  0.00     0.012 A 
BRANCH   8  11
HETATM   11  O   UNL     1      38.052  52.553  37.233  1.00  0.00    -0.356 OA
HETATM   12  C   UNL     1      38.640  51.453  36.548  1.00  0.00     0.210 C 
ENDBRANCH   8  11
ENDBRANCH   4   5
BRANCH   4  13
HETATM   13  C   UNL     1      35.297  51.638  43.073  1.00  0.00     0.245 C 
HETATM   14  N   UNL     1      36.633  51.806  43.335  1.00  0.00    -0.354 N 
HETATM   15  H   UNL     1      37.297  51.337  42.714  1.00  0.00     0.162 HD
HETATM   16  O   UNL     1      34.400  52.051  43.810  1.00  0.00    -0.271 OA
BRANCH  14  17
HETATM   17  C   UNL     1      37.123  52.357  44.578  1.00  0.00     0.084 C 
HETATM   18  C   UNL     1      38.554  51.917  44.874  1.00  0.00     0.025 C 
HETATM   19  C   UNL     1      39.045  52.985  45.835  1.00  0.00     0.002 C 
HETATM   20  C   UNL     1      38.489  54.275  45.248  1.00  0.00     0.002 C 
HETATM   21  C   UNL     1      37.176  53.888  44.567  1.00  0.00     0.025 C 
ENDBRANCH  14  17
ENDBRANCH   4  13
ENDBRANCH   1   4
BRANCH   1  22
HETATM   22  C   UNL     1      32.712  51.920  41.101  1.00  0.00     0.155 C 
BRANCH  22  23
HETATM   23  C   UNL     1      31.586  52.395  42.054  1.00  0.00     0.255 C 
BRANCH  23  24
HETATM   24  N   UNL     1      30.301  52.761  41.337  1.00  0.00    -0.066 N 
HETATM   25  H   UNL     1      30.068  53.733  41.573  1.00  0.00     0.280 HD
HETATM   26  C   UNL     1      30.393  52.633  39.812  1.00  0.00     0.261 C 
HETATM   27  C   UNL     1      29.058  53.052  39.185  1.00  0.00     0.195 C 
HETATM   28  O   UNL     1      27.987  52.248  39.689  1.00  0.00    -0.388 OA
HETATM   29  C   UNL     1      27.838  52.383  41.106  1.00  0.00     0.195 C 
HETATM   30  C   UNL     1      29.111  51.933  41.834  1.00  0.00     0.261 C 
ENDBRANCH  23  24
ENDBRANCH  22  23
ENDBRANCH   1  22
BRANCH   2  31
HETATM   31  C   UNL     1      31.647  49.133  41.077  1.00  0.00     0.120 A 
HETATM   32  S   UNL     1      30.554  48.570  42.253  1.00  0.00     0.020 SA
HETATM   33  N   UNL     1      29.239  48.464  41.260  1.00  0.00    -0.203 NA
HETATM   34  C   UNL     1      29.625  48.703  39.994  1.00  0.00     0.160 A 
HETATM   35  C   UNL     1      31.014  49.083  39.850  1.00  0.00     0.085 A 
BRANCH  34  36
HETATM   36  C   UNL     1      28.667  48.552  38.884  1.00  0.00     0.271 C 
HETATM   37  N   UNL     1      28.104  49.714  38.432  1.00  0.00    -0.365 N 
HETATM   38  H   UNL     1      28.302  50.591  38.896  1.00  0.00     0.159 HD
HETATM   39  H   UNL     1      27.392  49.666  37.718  1.00  0.00     0.159 HD
HETATM   40  O   UNL     1      28.366  47.469  38.389  1.00  0.00    -0.266 OA
ENDBRANCH  34  36
BRANCH  35  41
HETATM   41  N   UNL     1      31.624  49.366  38.672  1.00  0.00    -0.396 N 
HETATM   42  H   UNL     1      31.108  49.196  37.799  1.00  0.00     0.156 HD
HETATM   43  H   UNL     1      32.622  49.192  38.548  1.00  0.00     0.156 HD
ENDBRANCH  35  41
ENDBRANCH   2  31
TORSDOF 11
ENDMDL
MODEL 7
REMARK VINA RESULT:      -7.3      2.954      5.884
REMARK  11 active torsions:
REMARK  status: ('A' for Active; 'I' for Inactive)
REMARK    1  A    between atoms: O_2  and  C_3 
REMARK    2  A    between atoms: C_6  and  C_7 
REMARK    3  A    between atoms: C_7  and  N_8 
REMARK    4  A    between atoms: C_7  and  C_29 
REMARK       I    between atoms: N_8  and  C_9 
REMARK    5  A    between atoms: N_8  and  C_20 
REMARK    6  A    between atoms: C_9  and  C_10 
REMARK    7  A    between atoms: C_13  and  C_14 
REMARK       I    between atoms: C_14  and  N_15 
REMARK    8  A    between atoms: C_17  and  N_18 
REMARK    9  A    between atoms: C_20  and  C_21 
REMARK   10  A    between atoms: C_21  and  N_22 
REMARK       I    between atoms: C_29  and  N_30 
REMARK   11  A    between atoms: N_30  and  C_31 
ROOT
HETATM    1  N   UNL     1      26.042  44.491  50.968  1.00  0.00    -0.328 N 
HETATM    2  C   UNL     1      26.140  45.240  49.764  1.00  0.00     0.265 C 
HETATM    3  O   UNL     1      26.875  44.840  48.858  1.00  0.00    -0.267 OA
ENDROOT
BRANCH   1   4
HETATM    4  C   UNL     1      26.929  43.304  51.075  1.00  0.00     0.213 C 
BRANCH   4   5
HETATM    5  C   UNL     1      27.824  43.237  52.310  1.00  0.00    -0.026 A 
HETATM    6  C   UNL     1      27.300  42.819  53.545  1.00  0.00     0.012 A 
HETATM    7  C   UNL     1      28.119  42.675  54.671  1.00  0.00     0.037 A 
HETATM    8  C   UNL     1      29.484  42.930  54.584  1.00  0.00     0.068 A 
HETATM    9  C   UNL     1      30.022  43.326  53.359  1.00  0.00     0.037 A 
HETATM   10  C   UNL     1      29.207  43.472  52.233  1.00  0.00     0.012 A 
BRANCH   8  11
HETATM   11  O   UNL     1      30.394  42.822  55.597  1.00  0.00    -0.356 OA
HETATM   12  C   UNL     1      30.978  44.030  56.070  1.00  0.00     0.210 C 
ENDBRANCH   8  11
ENDBRANCH   4   5
BRANCH   4  13
HETATM   13  C   UNL     1      26.219  41.995  50.657  1.00  0.00     0.245 C 
HETATM   14  N   UNL     1      27.020  40.989  50.180  1.00  0.00    -0.354 N 
HETATM   15  H   UNL     1      28.001  41.214  50.000  1.00  0.00     0.162 HD
HETATM   16  O   UNL     1      25.000  41.886  50.803  1.00  0.00    -0.271 OA
BRANCH  14  17
HETATM   17  C   UNL     1      26.490  39.748  49.659  1.00  0.00     0.084 C 
HETATM   18  C   UNL     1      26.086  39.870  48.192  1.00  0.00     0.025 C 
HETATM   19  C   UNL     1      26.110  38.429  47.714  1.00  0.00     0.002 C 
HETATM   20  C   UNL     1      27.358  37.856  48.371  1.00  0.00     0.002 C 
HETATM   21  C   UNL     1      27.514  38.608  49.693  1.00  0.00     0.025 C 
ENDBRANCH  14  17
ENDBRANCH   4  13
ENDBRANCH   1   4
BRANCH   1  22
HETATM   22  C   UNL     1      25.589  45.085  52.247  1.00  0.00     0.155 C 
BRANCH  22  23
HETATM   23  C   UNL     1      26.295  46.409  52.630  1.00  0.00     0.255 C 
BRANCH  23  24
HETATM   24  N   UNL     1      26.509  46.572  54.122  1.00  0.00    -0.066 N 
HETATM   25  H   UNL     1      25.855  45.947  54.610  1.00  0.00     0.280 HD
HETATM   26  C   UNL     1      27.936  46.241  54.576  1.00  0.00     0.261 C 
HETATM   27  C   UNL     1      28.037  46.408  56.097  1.00  0.00     0.195 C 
HETATM   28  O   UNL     1      27.687  47.740  56.485  1.00  0.00    -0.388 OA
HETATM   29  C   UNL     1      26.342  48.066  56.123  1.00  0.00     0.195 C 
HETATM   30  C   UNL     1      26.149  47.982  54.603  1.00  0.00     0.261 C 
ENDBRANCH  23  24
ENDBRANCH  22  23
ENDBRANCH   1  22
BRANCH   2  31
HETATM   31  C   UNL     1      25.417  46.480  49.615  1.00  0.00     0.120 A 
HETATM   32  S   UNL     1      26.173  47.999  49.740  1.00  0.00     0.020 SA
HETATM   33  N   UNL     1      24.818  48.911  49.496  1.00  0.00    -0.203 NA
HETATM   34  C   UNL     1      23.745  48.102  49.466  1.00  0.00     0.160 A 
HETATM   35  C   UNL     1      24.053  46.690  49.543  1.00  0.00     0.085 A 
BRANCH  34  36
HETATM   36  C   UNL     1      22.388  48.670  49.383  1.00  0.00     0.271 C 
HETATM   37  N   UNL     1      22.235  49.910  49.942  1.00  0.00    -0.365 N 
HETATM   38  H   UNL     1      23.006  50.348  50.430  1.00  0.00     0.159 HD
HETATM   39  H   UNL     1      21.314  50.321  49.973  1.00  0.00     0.159 HD
HETATM   40  O   UNL     1      21.437  48.087  48.867  1.00  0.00    -0.266 OA
ENDBRANCH  34  36
BRANCH  35  41
HETATM   41  N   UNL     1      23.134  45.692  49.535  1.00  0.00    -0.396 N 
HETATM   42  H   UNL     1      23.298  44.869  50.130  1.00  0.00     0.156 HD
HETATM   43  H   UNL     1      22.656  45.431  48.672  1.00  0.00     0.156 HD
ENDBRANCH  35  41
ENDBRANCH   2  31
TORSDOF 11
ENDMDL
MODEL 8
REMARK VINA RESULT:      -7.2      9.259     13.066
REMARK  11 active torsions:
REMARK  status: ('A' for Active; 'I' for Inactive)
REMARK    1  A    between atoms: O_2  and  C_3 
REMARK    2  A    between atoms: C_6  and  C_7 
REMARK    3  A    between atoms: C_7  and  N_8 
REMARK    4  A    between atoms: C_7  and  C_29 
REMARK       I    between atoms: N_8  and  C_9 
REMARK    5  A    between atoms: N_8  and  C_20 
REMARK    6  A    between atoms: C_9  and  C_10 
REMARK    7  A    between atoms: C_13  and  C_14 
REMARK       I    between atoms: C_14  and  N_15 
REMARK    8  A    between atoms: C_17  and  N_18 
REMARK    9  A    between atoms: C_20  and  C_21 
REMARK   10  A    between atoms: C_21  and  N_22 
REMARK       I    between atoms: C_29  and  N_30 
REMARK   11  A    between atoms: N_30  and  C_31 
ROOT
HETATM    1  N   UNL     1      29.091  48.620  39.803  1.00  0.00    -0.328 N 
HETATM    2  C   UNL     1      30.407  48.445  39.297  1.00  0.00     0.265 C 
HETATM    3  O   UNL     1      30.587  47.731  38.308  1.00  0.00    -0.267 OA
ENDROOT
BRANCH   1   4
HETATM    4  C   UNL     1      28.022  47.831  39.137  1.00  0.00     0.213 C 
BRANCH   4   5
HETATM    5  C   UNL     1      27.466  46.646  39.924  1.00  0.00    -0.026 A 
HETATM    6  C   UNL     1      28.055  45.375  39.806  1.00  0.00     0.012 A 
HETATM    7  C   UNL     1      27.612  44.294  40.577  1.00  0.00     0.037 A 
HETATM    8  C   UNL     1      26.580  44.463  41.496  1.00  0.00     0.068 A 
HETATM    9  C   UNL     1      26.001  45.724  41.639  1.00  0.00     0.037 A 
HETATM   10  C   UNL     1      26.440  46.805  40.870  1.00  0.00     0.012 A 
BRANCH   8  11
HETATM   11  O   UNL     1      26.059  43.501  42.313  1.00  0.00    -0.356 OA
HETATM   12  C   UNL     1      26.942  42.469  42.737  1.00  0.00     0.210 C 
ENDBRANCH   8  11
ENDBRANCH   4   5
BRANCH   4  13
HETATM   13  C   UNL     1      26.995  48.726  38.406  1.00  0.00     0.245 C 
HETATM   14  N   UNL     1      25.683  48.332  38.473  1.00  0.00    -0.354 N 
HETATM   15  H   UNL     1      25.487  47.412  38.874  1.00  0.00     0.162 HD
HETATM   16  O   UNL     1      27.371  49.754  37.842  1.00  0.00    -0.271 OA
BRANCH  14  17
HETATM   17  C   UNL     1      24.625  49.011  37.758  1.00  0.00     0.084 C 
HETATM   18  C   UNL     1      23.735  48.036  36.992  1.00  0.00     0.025 C 
HETATM   19  C   UNL     1      22.449  48.823  36.810  1.00  0.00     0.002 C 
HETATM   20  C   UNL     1      22.262  49.516  38.152  1.00  0.00     0.002 C 
HETATM   21  C   UNL     1      23.672  49.767  38.689  1.00  0.00     0.025 C 
ENDBRANCH  14  17
ENDBRANCH   4  13
ENDBRANCH   1   4
BRANCH   1  22
HETATM   22  C   UNL     1      28.818  49.042  41.197  1.00  0.00     0.155 C 
BRANCH  22  23
HETATM   23  C   UNL     1      27.838  50.234  41.331  1.00  0.00     0.255 C 
BRANCH  23  24
HETATM   24  N   UNL     1      28.529  51.583  41.380  1.00  0.00    -0.066 N 
HETATM   25  H   UNL     1      27.940  52.225  41.925  1.00  0.00     0.280 HD
HETATM   26  C   UNL     1      29.922  51.534  42.017  1.00  0.00     0.261 C 
HETATM   27  C   UNL     1      30.519  52.946  42.046  1.00  0.00     0.195 C 
HETATM   28  O   UNL     1      30.593  53.491  40.725  1.00  0.00    -0.388 OA
HETATM   29  C   UNL     1      29.302  53.600  40.117  1.00  0.00     0.195 C 
HETATM   30  C   UNL     1      28.639  52.223  39.992  1.00  0.00     0.261 C 
ENDBRANCH  23  24
ENDBRANCH  22  23
ENDBRANCH   1  22
BRANCH   2  31
HETATM   31  C   UNL     1      31.531  49.066  39.956  1.00  0.00     0.120 A 
HETATM   32  S   UNL     1      32.266  48.393  41.334  1.00  0.00     0.020 SA
HETATM   33  N   UNL     1      33.400  49.574  41.545  1.00  0.00    -0.203 NA
HETATM   34  C   UNL     1      33.159  50.574  40.679  1.00  0.00     0.160 A 
HETATM   35  C   UNL     1      32.078  50.318  39.751  1.00  0.00     0.085 A 
BRANCH  34  36
HETATM   36  C   UNL     1      33.952  51.814  40.735  1.00  0.00     0.271 C 
HETATM   37  N   UNL     1      34.856  51.887  41.760  1.00  0.00    -0.365 N 
HETATM   38  H   UNL     1      34.903  51.150  42.452  1.00  0.00     0.159 HD
HETATM   39  H   UNL     1      35.382  52.739  41.887  1.00  0.00     0.159 HD
HETATM   40  O   UNL     1      33.821  52.742  39.940  1.00  0.00    -0.266 OA
ENDBRANCH  34  36
BRANCH  35  41
HETATM   41  N   UNL     1      31.653  51.182  38.795  1.00  0.00    -0.396 N 
HETATM   42  H   UNL     1      30.911  50.876  38.153  1.00  0.00     0.156 HD
HETATM   43  H   UNL     1      32.313  51.803  38.325  1.00  0.00     0.156 HD
ENDBRANCH  35  41
ENDBRANCH   2  31
TORSDOF 11
ENDMDL
MODEL 9
REMARK VINA RESULT:      -7.2      7.782     12.839
REMARK  11 active torsions:
REMARK  status: ('A' for Active; 'I' for Inactive)
REMARK    1  A    between atoms: O_2  and  C_3 
REMARK    2  A    between atoms: C_6  and  C_7 
REMARK    3  A    between atoms: C_7  and  N_8 
REMARK    4  A    between atoms: C_7  and  C_29 
REMARK       I    between atoms: N_8  and  C_9 
REMARK    5  A    between atoms: N_8  and  C_20 
REMARK    6  A    between atoms: C_9  and  C_10 
REMARK    7  A    between atoms: C_13  and  C_14 
REMARK       I    between atoms: C_14  and  N_15 
REMARK    8  A    between atoms: C_17  and  N_18 
REMARK    9  A    between atoms: C_20  and  C_21 
REMARK   10  A    between atoms: C_21  and  N_22 
REMARK       I    between atoms: C_29  and  N_30 
REMARK   11  A    between atoms: N_30  and  C_31 
ROOT
HETATM    1  N   UNL     1      18.056  49.693  47.968  1.00  0.00    -0.328 N 
HETATM    2  C   UNL     1      18.901  48.910  48.801  1.00  0.00     0.265 C 
HETATM    3  O   UNL     1      18.444  48.413  49.832  1.00  0.00    -0.267 OA
ENDROOT
BRANCH   1   4
HETATM    4  C   UNL     1      16.678  49.931  48.471  1.00  0.00     0.213 C 
BRANCH   4   5
HETATM    5  C   UNL     1      16.316  51.379  48.792  1.00  0.00    -0.026 A 
HETATM    6  C   UNL     1      15.281  52.024  48.093  1.00  0.00     0.012 A 
HETATM    7  C   UNL     1      14.880  53.324  48.425  1.00  0.00     0.037 A 
HETATM    8  C   UNL     1      15.494  54.002  49.474  1.00  0.00     0.068 A 
HETATM    9  C   UNL     1      16.508  53.366  50.189  1.00  0.00     0.037 A 
HETATM   10  C   UNL     1      16.912  52.070  49.860  1.00  0.00     0.012 A 
BRANCH   8  11
HETATM   11  O   UNL     1      15.197  55.263  49.905  1.00  0.00    -0.356 OA
HETATM   12  C   UNL     1      14.183  55.965  49.195  1.00  0.00     0.210 C 
ENDBRANCH   8  11
ENDBRANCH   4   5
BRANCH   4  13
HETATM   13  C   UNL     1      15.619  49.100  47.710  1.00  0.00     0.245 C 
HETATM   14  N   UNL     1      15.209  49.593  46.498  1.00  0.00    -0.354 N 
HETATM   15  H   UNL     1      15.518  50.534  46.243  1.00  0.00     0.162 HD
HETATM   16  O   UNL     1      15.222  48.033  48.182  1.00  0.00    -0.271 OA
BRANCH  14  17
HETATM   17  C   UNL     1      14.155  48.980  45.720  1.00  0.00     0.084 C 
HETATM   18  C   UNL     1      13.438  49.992  44.830  1.00  0.00     0.025 C 
HETATM   19  C   UNL     1      12.821  49.118  43.753  1.00  0.00     0.002 C 
HETATM   20  C   UNL     1      13.914  48.104  43.447  1.00  0.00     0.002 C 
HETATM   21  C   UNL     1      14.677  47.908  44.757  1.00  0.00     0.025 C 
ENDBRANCH  14  17
ENDBRANCH   4  13
ENDBRANCH   1   4
BRANCH   1  22
HETATM   22  C   UNL     1      18.580  50.688  47.004  1.00  0.00     0.155 C 
BRANCH  22  23
HETATM   23  C   UNL     1      18.614  50.208  45.532  1.00  0.00     0.255 C 
BRANCH  23  24
HETATM   24  N   UNL     1      18.011  51.201  44.557  1.00  0.00    -0.066 N 
HETATM   25  H   UNL     1      18.777  51.629  44.022  1.00  0.00     0.280 HD
HETATM   26  C   UNL     1      17.018  50.568  43.575  1.00  0.00     0.261 C 
HETATM   27  C   UNL     1      16.493  51.646  42.619  1.00  0.00     0.195 C 
HETATM   28  O   UNL     1      15.867  52.707  43.346  1.00  0.00    -0.388 OA
HETATM   29  C   UNL     1      16.780  53.356  44.237  1.00  0.00     0.195 C 
HETATM   30  C   UNL     1      17.325  52.367  45.276  1.00  0.00     0.261 C 
ENDBRANCH  23  24
ENDBRANCH  22  23
ENDBRANCH   1  22
BRANCH   2  31
HETATM   31  C   UNL     1      20.293  48.730  48.465  1.00  0.00     0.120 A 
HETATM   32  S   UNL     1      20.814  47.588  47.318  1.00  0.00     0.020 SA
HETATM   33  N   UNL     1      22.430  47.902  47.452  1.00  0.00    -0.203 NA
HETATM   34  C   UNL     1      22.626  48.763  48.467  1.00  0.00     0.160 A 
HETATM   35  C   UNL     1      21.412  49.254  49.082  1.00  0.00     0.085 A 
BRANCH  34  36
HETATM   36  C   UNL     1      23.993  49.120  48.884  1.00  0.00     0.271 C 
HETATM   37  N   UNL     1      24.636  50.023  48.082  1.00  0.00    -0.365 N 
HETATM   38  H   UNL     1      24.197  50.351  47.230  1.00  0.00     0.159 HD
HETATM   39  H   UNL     1      25.597  50.256  48.281  1.00  0.00     0.159 HD
HETATM   40  O   UNL     1      24.549  48.644  49.871  1.00  0.00    -0.266 OA
ENDBRANCH  34  36
BRANCH  35  41
HETATM   41  N   UNL     1      21.365  50.124  50.123  1.00  0.00    -0.396 N 
HETATM   42  H   UNL     1      22.093  50.847  50.190  1.00  0.00     0.156 HD
HETATM   43  H   UNL     1      21.071  49.812  51.049  1.00  0.00     0.156 HD
ENDBRANCH  35  41
ENDBRANCH   2  31
TORSDOF 11
ENDMDL
MODEL 10
REMARK VINA RESULT:      -7.2      8.383     12.573
REMARK  11 active torsions:
REMARK  status: ('A' for Active; 'I' for Inactive)
REMARK    1  A    between atoms: O_2  and  C_3 
REMARK    2  A    between atoms: C_6  and  C_7 
REMARK    3  A    between atoms: C_7  and  N_8 
REMARK    4  A    between atoms: C_7  and  C_29 
REMARK       I    between atoms: N_8  and  C_9 
REMARK    5  A    between atoms: N_8  and  C_20 
REMARK    6  A    between atoms: C_9  and  C_10 
REMARK    7  A    between atoms: C_13  and  C_14 
REMARK       I    between atoms: C_14  and  N_15 
REMARK    8  A    between atoms: C_17  and  N_18 
REMARK    9  A    between atoms: C_20  and  C_21 
REMARK   10  A    between atoms: C_21  and  N_22 
REMARK       I    between atoms: C_29  and  N_30 
REMARK   11  A    between atoms: N_30  and  C_31 
ROOT
HETATM    1  N   UNL     1      27.567  47.550  39.744  1.00  0.00    -0.328 N 
HETATM    2  C   UNL     1      28.949  47.300  39.961  1.00  0.00     0.265 C 
HETATM    3  O   UNL     1      29.370  46.142  39.916  1.00  0.00    -0.267 OA
ENDROOT
BRANCH   1   4
HETATM    4  C   UNL     1      26.703  46.353  39.570  1.00  0.00     0.213 C 
BRANCH   4   5
HETATM    5  C   UNL     1      25.924  45.897  40.801  1.00  0.00    -0.026 A 
HETATM    6  C   UNL     1      24.562  46.218  40.939  1.00  0.00     0.012 A 
HETATM    7  C   UNL     1      23.809  45.743  42.019  1.00  0.00     0.037 A 
HETATM    8  C   UNL     1      24.396  44.922  42.978  1.00  0.00     0.068 A 
HETATM    9  C   UNL     1      25.741  44.579  42.843  1.00  0.00     0.037 A 
HETATM   10  C   UNL     1      26.497  45.052  41.766  1.00  0.00     0.012 A 
BRANCH   8  11
HETATM   11  O   UNL     1      23.779  44.386  44.071  1.00  0.00    -0.356 OA
HETATM   12  C   UNL     1      22.517  44.936  44.432  1.00  0.00     0.210 C 
ENDBRANCH   8  11
ENDBRANCH   4   5
BRANCH   4  13
HETATM   13  C   UNL     1      25.939  46.366  38.226  1.00  0.00     0.245 C 
HETATM   14  N   UNL     1      24.758  47.065  38.200  1.00  0.00    -0.354 N 
HETATM   15  H   UNL     1      24.394  47.407  39.092  1.00  0.00     0.162 HD
HETATM   16  O   UNL     1      26.421  45.804  37.242  1.00  0.00    -0.271 OA
BRANCH  14  17
HETATM   17  C   UNL     1      23.887  47.084  37.046  1.00  0.00     0.084 C 
HETATM   18  C   UNL     1      22.568  46.363  37.315  1.00  0.00     0.025 C 
HETATM   19  C   UNL     1      21.639  46.959  36.271  1.00  0.00     0.002 C 
HETATM   20  C   UNL     1      21.998  48.438  36.277  1.00  0.00     0.002 C 
HETATM   21  C   UNL     1      23.484  48.503  36.633  1.00  0.00     0.025 C 
ENDBRANCH  14  17
ENDBRANCH   4  13
ENDBRANCH   1   4
BRANCH   1  22
HETATM   22  C   UNL     1      26.891  48.778  40.222  1.00  0.00     0.155 C 
BRANCH  22  23
HETATM   23  C   UNL     1      26.711  49.878  39.145  1.00  0.00     0.255 C 
BRANCH  23  24
HETATM   24  N   UNL     1      27.281  51.223  39.553  1.00  0.00    -0.066 N 
HETATM   25  H   UNL     1      26.589  51.947  39.323  1.00  0.00     0.280 HD
HETATM   26  C   UNL     1      27.615  51.319  41.046  1.00  0.00     0.261 C 
HETATM   27  C   UNL     1      28.153  52.720  41.358  1.00  0.00     0.195 C 
HETATM   28  O   UNL     1      29.312  53.005  40.568  1.00  0.00    -0.388 OA
HETATM   29  C   UNL     1      29.025  52.976  39.166  1.00  0.00     0.195 C 
HETATM   30  C   UNL     1      28.527  51.589  38.740  1.00  0.00     0.261 C 
ENDBRANCH  23  24
ENDBRANCH  22  23
ENDBRANCH   1  22
BRANCH   2  31
HETATM   31  C   UNL     1      29.848  48.386  40.269  1.00  0.00     0.120 A 
HETATM   32  S   UNL     1      30.935  49.023  39.127  1.00  0.00     0.020 SA
HETATM   33  N   UNL     1      31.616  50.154  40.118  1.00  0.00    -0.203 NA
HETATM   34  C   UNL     1      31.151  49.980  41.367  1.00  0.00     0.160 A 
HETATM   35  C   UNL     1      30.134  48.958  41.493  1.00  0.00     0.085 A 
BRANCH  34  36
HETATM   36  C   UNL     1      31.690  50.782  42.480  1.00  0.00     0.271 C 
HETATM   37  N   UNL     1      31.885  52.109  42.207  1.00  0.00    -0.365 N 
HETATM   38  H   UNL     1      31.723  52.467  41.274  1.00  0.00     0.159 HD
HETATM   39  H   UNL     1      32.313  52.694  42.909  1.00  0.00     0.159 HD
HETATM   40  O   UNL     1      31.969  50.315  43.581  1.00  0.00    -0.266 OA
ENDBRANCH  34  36
BRANCH  35  41
HETATM   41  N   UNL     1      29.526  48.606  42.654  1.00  0.00    -0.396 N 
HETATM   42  H   UNL     1      29.962  47.877  43.234  1.00  0.00     0.156 HD
HETATM   43  H   UNL     1      28.508  48.566  42.717  1.00  0.00     0.156 HD
ENDBRANCH  35  41
ENDBRANCH   2  31
TORSDOF 11
ENDMDL
