MODEL 1
REMARK VINA RESULT:      -9.3      0.000      0.000
REMARK  8 active torsions:
REMARK  status: ('A' for Active; 'I' for Inactive)
REMARK    1  A    between atoms: N_4  and  C_5 
REMARK    2  A    between atoms: C_5  and  C_6 
REMARK    3  A    between atoms: C_11  and  C_12 
REMARK    4  A    between atoms: C_12  and  C_13 
REMARK       I    between atoms: C_13  and  N_14 
REMARK    5  A    between atoms: N_14  and  N_15 
REMARK       I    between atoms: N_15  and  C_16 
REMARK    6  A    between atoms: C_16  and  C_17 
REMARK    7  A    between atoms: C_21  and  C_22 
REMARK    8  A    between atoms: C_25  and  O_26 
ROOT
HETATM    1  N   UNL     1      24.262  45.851  50.588  1.00  0.00    -0.262 N 
HETATM    2  C   UNL     1      25.298  44.979  50.332  1.00  0.00     0.288 C 
HETATM    3  O   UNL     1      25.560  44.603  49.190  1.00  0.00    -0.264 OA
HETATM    4  H   UNL     1      24.006  46.178  51.516  1.00  0.00     0.190 HD
ENDROOT
BRANCH   1   5
HETATM    5  N   UNL     1      23.444  46.259  49.533  1.00  0.00    -0.267 N 
HETATM    6  C   UNL     1      23.445  47.590  49.173  1.00  0.00     0.240 C 
HETATM    7  O   UNL     1      24.170  48.422  49.725  1.00  0.00    -0.272 OA
HETATM    8  H   UNL     1      22.875  45.543  49.085  1.00  0.00     0.190 HD
BRANCH   6   9
HETATM    9  C   UNL     1      22.450  47.946  48.088  1.00  0.00     0.147 C 
BRANCH   9  10
HETATM   10  C   UNL     1      21.211  48.574  48.631  1.00  0.00     0.001 A 
HETATM   11  C   UNL     1      19.972  47.946  48.929  1.00  0.00     0.059 A 
HETATM   12  C   UNL     1      19.579  46.525  48.753  1.00  0.00     0.073 C 
HETATM   13  N   UNL     1      19.089  48.810  49.430  1.00  0.00    -0.177 NA
HETATM   14  N   UNL     1      19.753  49.977  49.500  1.00  0.00    -0.273 N 
HETATM   15  C   UNL     1      21.026  49.902  48.988  1.00  0.00     0.035 A 
HETATM   16  C   UNL     1      21.966  51.051  48.911  1.00  0.00     0.070 C 
BRANCH  14  17
HETATM   17  C   UNL     1      19.075  51.113  50.104  1.00  0.00     0.155 C 
BRANCH  17  18
HETATM   18  C   UNL     1      18.050  51.780  49.169  1.00  0.00    -0.003 C 
HETATM   19  C   UNL     1      17.031  52.619  49.943  1.00  0.00     0.011 C 
HETATM   20  C   UNL     1      18.774  52.657  48.145  1.00  0.00     0.011 C 
ENDBRANCH  17  18
ENDBRANCH  14  17
ENDBRANCH   9  10
ENDBRANCH   6   9
ENDBRANCH   1   5
BRANCH   2  21
HETATM   21  C   UNL     1      26.036  44.537  51.482  1.00  0.00     0.121 A 
HETATM   22  N   UNL     1      25.589  43.520  52.277  1.00  0.00    -0.272 N 
HETATM   23  H   UNL     1      24.737  42.982  52.157  1.00  0.00     0.189 HD
HETATM   24  N   UNL     1      26.392  43.238  53.312  1.00  0.00    -0.174 NA
HETATM   25  C   UNL     1      27.408  44.110  53.207  1.00  0.00     0.089 A 
HETATM   26  C   UNL     1      27.222  44.938  52.063  1.00  0.00     0.071 A 
BRANCH  25  27
HETATM   27  C   UNL     1      28.509  44.132  54.179  1.00  0.00    -0.005 A 
HETATM   28  C   UNL     1      28.649  45.205  55.071  1.00  0.00     0.016 A 
HETATM   29  C   UNL     1      29.690  45.230  56.003  1.00  0.00     0.037 A 
HETATM   30  C   UNL     1      30.615  44.187  56.067  1.00  0.00     0.068 A 
HETATM   31  C   UNL     1      30.493  43.120  55.179  1.00  0.00     0.037 A 
HETATM   32  C   UNL     1      29.448  43.094  54.243  1.00  0.00     0.016 A 
BRANCH  30  33
HETATM   33  O   UNL     1      31.579  44.333  57.024  1.00  0.00    -0.356 OA
HETATM   34  C   UNL     1      31.166  44.867  58.276  1.00  0.00     0.210 C 
ENDBRANCH  30  33
ENDBRANCH  25  27
ENDBRANCH   2  21
TORSDOF 8
ENDMDL
MODEL 2
REMARK VINA RESULT:      -9.2      1.526      1.901
REMARK  8 active torsions:
REMARK  status: ('A' for Active; 'I' for Inactive)
REMARK    1  A    between atoms: N_4  and  C_5 
REMARK    2  A    between atoms: C_5  and  C_6 
REMARK    3  A    between atoms: C_11  and  C_12 
REMARK    4  A    between atoms: C_12  and  C_13 
REMARK       I    between atoms: C_13  and  N_14 
REMARK    5  A    between atoms: N_14  and  N_15 
REMARK       I    between atoms: N_15  and  C_16 
REMARK    6  A    between atoms: C_16  and  C_17 
REMARK    7  A    between atoms: C_21  and  C_22 
REMARK    8  A    between atoms: C_25  and  O_26 
ROOT
HETATM    1  N   UNL     1      24.444  47.305  50.956  1.00  0.00    -0.262 N 
HETATM    2  C   UNL     1      24.870  46.107  51.487  1.00  0.00     0.288 C 
HETATM    3  O   UNL     1      24.525  45.028  51.007  1.00  0.00    -0.264 OA
HETATM    4  H   UNL     1      24.697  48.217  51.327  1.00  0.00     0.190 HD
ENDROOT
BRANCH   1   5
HETATM    5  N   UNL     1      23.541  47.291  49.892  1.00  0.00    -0.267 N 
HETATM    6  C   UNL     1      23.401  48.431  49.128  1.00  0.00     0.240 C 
HETATM    7  O   UNL     1      24.074  49.445  49.329  1.00  0.00    -0.272 OA
HETATM    8  H   UNL     1      23.017  46.431  49.740  1.00  0.00     0.190 HD
BRANCH   6   9
HETATM    9  C   UNL     1      22.324  48.345  48.066  1.00  0.00     0.147 C 
BRANCH   9  10
HETATM   10  C   UNL     1      20.963  48.631  48.607  1.00  0.00     0.001 A 
HETATM   11  C   UNL     1      19.921  47.705  48.881  1.00  0.00     0.059 A 
HETATM   12  C   UNL     1      19.900  46.235  48.676  1.00  0.00     0.073 C 
HETATM   13  N   UNL     1      18.845  48.310  49.387  1.00  0.00    -0.177 NA
HETATM   14  N   UNL     1      19.194  49.605  49.484  1.00  0.00    -0.273 N 
HETATM   15  C   UNL     1      20.448  49.862  48.985  1.00  0.00     0.035 A 
HETATM   16  C   UNL     1      21.069  51.212  48.938  1.00  0.00     0.070 C 
BRANCH  14  17
HETATM   17  C   UNL     1      18.249  50.522  50.100  1.00  0.00     0.155 C 
BRANCH  17  18
HETATM   18  C   UNL     1      17.510  51.411  49.084  1.00  0.00    -0.003 C 
HETATM   19  C   UNL     1      16.218  50.760  48.586  1.00  0.00     0.011 C 
HETATM   20  C   UNL     1      17.196  52.770  49.714  1.00  0.00     0.011 C 
ENDBRANCH  17  18
ENDBRANCH  14  17
ENDBRANCH   9  10
ENDBRANCH   6   9
ENDBRANCH   1   5
BRANCH   2  21
HETATM   21  C   UNL     1      25.727  46.207  52.635  1.00  0.00     0.121 A 
HETATM   22  N   UNL     1      25.636  47.249  53.513  1.00  0.00    -0.272 N 
HETATM   23  H   UNL     1      24.988  48.030  53.467  1.00  0.00     0.189 HD
HETATM   24  N   UNL     1      26.513  47.194  54.524  1.00  0.00    -0.174 NA
HETATM   25  C   UNL     1      27.223  46.076  54.303  1.00  0.00     0.089 A 
HETATM   26  C   UNL     1      26.751  45.424  53.128  1.00  0.00     0.071 A 
BRANCH  25  27
HETATM   27  C   UNL     1      28.312  45.664  55.199  1.00  0.00    -0.005 A 
HETATM   28  C   UNL     1      29.134  44.578  54.867  1.00  0.00     0.016 A 
HETATM   29  C   UNL     1      30.176  44.184  55.712  1.00  0.00     0.037 A 
HETATM   30  C   UNL     1      30.421  44.863  56.905  1.00  0.00     0.068 A 
HETATM   31  C   UNL     1      29.605  45.938  57.252  1.00  0.00     0.037 A 
HETATM   32  C   UNL     1      28.559  46.334  56.405  1.00  0.00     0.016 A 
BRANCH  30  33
HETATM   33  O   UNL     1      31.471  44.380  57.636  1.00  0.00    -0.356 OA
HETATM   34  C   UNL     1      32.037  43.148  57.209  1.00  0.00     0.210 C 
ENDBRANCH  30  33
ENDBRANCH  25  27
ENDBRANCH   2  21
TORSDOF 8
ENDMDL
MODEL 3
REMARK VINA RESULT:      -9.2      0.637      1.897
REMARK  8 active torsions:
REMARK  status: ('A' for Active; 'I' for Inactive)
REMARK    1  A    between atoms: N_4  and  C_5 
REMARK    2  A    between atoms: C_5  and  C_6 
REMARK    3  A    between atoms: C_11  and  C_12 
REMARK    4  A    between atoms: C_12  and  C_13 
REMARK       I    between atoms: C_13  and  N_14 
REMARK    5  A    between atoms: N_14  and  N_15 
REMARK       I    between atoms: N_15  and  C_16 
REMARK    6  A    between atoms: C_16  and  C_17 
REMARK    7  A    between atoms: C_21  and  C_22 
REMARK    8  A    between atoms: C_25  and  O_26 
ROOT
HETATM    1  N   UNL     1      24.257  45.868  50.587  1.00  0.00    -0.262 N 
HETATM    2  C   UNL     1      25.106  44.835  50.254  1.00  0.00     0.288 C 
HETATM    3  O   UNL     1      25.118  44.345  49.126  1.00  0.00    -0.264 OA
HETATM    4  H   UNL     1      24.208  46.294  51.508  1.00  0.00     0.190 HD
ENDROOT
BRANCH   1   5
HETATM    5  N   UNL     1      23.335  46.318  49.639  1.00  0.00    -0.267 N 
HETATM    6  C   UNL     1      23.405  47.631  49.222  1.00  0.00     0.240 C 
HETATM    7  O   UNL     1      24.275  48.405  49.626  1.00  0.00    -0.272 OA
HETATM    8  H   UNL     1      22.644  45.647  49.310  1.00  0.00     0.190 HD
BRANCH   6   9
HETATM    9  C   UNL     1      22.300  48.045  48.272  1.00  0.00     0.147 C 
BRANCH   9  10
HETATM   10  C   UNL     1      21.487  49.178  48.800  1.00  0.00     0.001 A 
HETATM   11  C   UNL     1      21.831  50.556  48.838  1.00  0.00     0.059 A 
HETATM   12  C   UNL     1      23.086  51.217  48.398  1.00  0.00     0.073 C 
HETATM   13  N   UNL     1      20.849  51.296  49.353  1.00  0.00    -0.177 NA
HETATM   14  N   UNL     1      19.859  50.422  49.607  1.00  0.00    -0.273 N 
HETATM   15  C   UNL     1      20.207  49.122  49.334  1.00  0.00     0.035 A 
HETATM   16  C   UNL     1      19.315  47.952  49.553  1.00  0.00     0.070 C 
BRANCH  14  17
HETATM   17  C   UNL     1      18.594  50.947  50.097  1.00  0.00     0.155 C 
BRANCH  17  18
HETATM   18  C   UNL     1      18.124  52.206  49.347  1.00  0.00    -0.003 C 
HETATM   19  C   UNL     1      17.913  51.940  47.855  1.00  0.00     0.011 C 
HETATM   20  C   UNL     1      16.827  52.727  49.969  1.00  0.00     0.011 C 
ENDBRANCH  17  18
ENDBRANCH  14  17
ENDBRANCH   9  10
ENDBRANCH   6   9
ENDBRANCH   1   5
BRANCH   2  21
HETATM   21  C   UNL     1      25.961  44.370  51.310  1.00  0.00     0.121 A 
HETATM   22  N   UNL     1      25.914  43.081  51.759  1.00  0.00    -0.272 N 
HETATM   23  H   UNL     1      25.311  42.339  51.419  1.00  0.00     0.189 HD
HETATM   24  N   UNL     1      26.772  42.814  52.753  1.00  0.00    -0.174 NA
HETATM   25  C   UNL     1      27.407  43.975  52.982  1.00  0.00     0.089 A 
HETATM   26  C   UNL     1      26.929  44.975  52.087  1.00  0.00     0.071 A 
BRANCH  25  27
HETATM   27  C   UNL     1      28.433  44.102  54.025  1.00  0.00    -0.005 A 
HETATM   28  C   UNL     1      29.369  43.078  54.230  1.00  0.00     0.016 A 
HETATM   29  C   UNL     1      30.352  43.194  55.217  1.00  0.00     0.037 A 
HETATM   30  C   UNL     1      30.424  44.332  56.021  1.00  0.00     0.068 A 
HETATM   31  C   UNL     1      29.493  45.352  55.834  1.00  0.00     0.037 A 
HETATM   32  C   UNL     1      28.506  45.237  54.843  1.00  0.00     0.016 A 
BRANCH  30  33
HETATM   33  O   UNL     1      31.433  44.321  56.943  1.00  0.00    -0.356 OA
HETATM   34  C   UNL     1      31.133  44.845  58.230  1.00  0.00     0.210 C 
ENDBRANCH  30  33
ENDBRANCH  25  27
ENDBRANCH   2  21
TORSDOF 8
ENDMDL
MODEL 4
REMARK VINA RESULT:      -8.5      2.326     11.630
REMARK  8 active torsions:
REMARK  status: ('A' for Active; 'I' for Inactive)
REMARK    1  A    between atoms: N_4  and  C_5 
REMARK    2  A    between atoms: C_5  and  C_6 
REMARK    3  A    between atoms: C_11  and  C_12 
REMARK    4  A    between atoms: C_12  and  C_13 
REMARK       I    between atoms: C_13  and  N_14 
REMARK    5  A    between atoms: N_14  and  N_15 
REMARK       I    between atoms: N_15  and  C_16 
REMARK    6  A    between atoms: C_16  and  C_17 
REMARK    7  A    between atoms: C_21  and  C_22 
REMARK    8  A    between atoms: C_25  and  O_26 
ROOT
HETATM    1  N   UNL     1      22.900  46.721  49.578  1.00  0.00    -0.262 N 
HETATM    2  C   UNL     1      22.595  47.854  48.856  1.00  0.00     0.288 C 
HETATM    3  O   UNL     1      23.426  48.407  48.137  1.00  0.00    -0.264 OA
HETATM    4  H   UNL     1      22.247  46.240  50.190  1.00  0.00     0.190 HD
ENDROOT
BRANCH   1   5
HETATM    5  N   UNL     1      24.208  46.233  49.550  1.00  0.00    -0.267 N 
HETATM    6  C   UNL     1      25.069  46.593  50.565  1.00  0.00     0.240 C 
HETATM    7  O   UNL     1      24.713  47.297  51.513  1.00  0.00    -0.272 OA
HETATM    8  H   UNL     1      24.463  45.637  48.765  1.00  0.00     0.190 HD
BRANCH   6   9
HETATM    9  C   UNL     1      26.489  46.095  50.387  1.00  0.00     0.147 C 
BRANCH   9  10
HETATM   10  C   UNL     1      26.774  44.877  51.200  1.00  0.00     0.001 A 
HETATM   11  C   UNL     1      26.857  43.530  50.755  1.00  0.00     0.059 A 
HETATM   12  C   UNL     1      26.654  42.984  49.389  1.00  0.00     0.073 C 
HETATM   13  N   UNL     1      27.159  42.699  51.752  1.00  0.00    -0.177 NA
HETATM   14  N   UNL     1      27.316  43.494  52.825  1.00  0.00    -0.273 N 
HETATM   15  C   UNL     1      27.051  44.815  52.558  1.00  0.00     0.035 A 
HETATM   16  C   UNL     1      27.114  45.903  53.570  1.00  0.00     0.070 C 
BRANCH  14  17
HETATM   17  C   UNL     1      27.749  42.881  54.071  1.00  0.00     0.155 C 
BRANCH  17  18
HETATM   18  C   UNL     1      29.279  42.839  54.232  1.00  0.00    -0.003 C 
HETATM   19  C   UNL     1      29.999  42.908  52.884  1.00  0.00     0.011 C 
HETATM   20  C   UNL     1      29.739  43.994  55.125  1.00  0.00     0.011 C 
ENDBRANCH  17  18
ENDBRANCH  14  17
ENDBRANCH   9  10
ENDBRANCH   6   9
ENDBRANCH   1   5
BRANCH   2  21
HETATM   21  C   UNL     1      21.253  48.343  49.007  1.00  0.00     0.121 A 
HETATM   22  N   UNL     1      20.215  47.512  49.318  1.00  0.00    -0.272 N 
HETATM   23  H   UNL     1      20.262  46.510  49.475  1.00  0.00     0.189 HD
HETATM   24  N   UNL     1      19.029  48.127  49.415  1.00  0.00    -0.174 NA
HETATM   25  C   UNL     1      19.287  49.418  49.148  1.00  0.00     0.089 A 
HETATM   26  C   UNL     1      20.678  49.593  48.895  1.00  0.00     0.071 A 
BRANCH  25  27
HETATM   27  C   UNL     1      18.224  50.432  49.140  1.00  0.00    -0.005 A 
HETATM   28  C   UNL     1      18.436  51.688  49.726  1.00  0.00     0.016 A 
HETATM   29  C   UNL     1      17.431  52.660  49.717  1.00  0.00     0.037 A 
HETATM   30  C   UNL     1      16.195  52.402  49.125  1.00  0.00     0.068 A 
HETATM   31  C   UNL     1      15.969  51.154  48.548  1.00  0.00     0.037 A 
HETATM   32  C   UNL     1      16.976  50.177  48.556  1.00  0.00     0.016 A 
BRANCH  30  33
HETATM   33  O   UNL     1      15.304  53.437  49.181  1.00  0.00    -0.356 OA
HETATM   34  C   UNL     1      15.494  54.393  50.217  1.00  0.00     0.210 C 
ENDBRANCH  30  33
ENDBRANCH  25  27
ENDBRANCH   2  21
TORSDOF 8
ENDMDL
MODEL 5
REMARK VINA RESULT:      -8.4      1.663      2.204
REMARK  8 active torsions:
REMARK  status: ('A' for Active; 'I' for Inactive)
REMARK    1  A    between atoms: N_4  and  C_5 
REMARK    2  A    between atoms: C_5  and  C_6 
REMARK    3  A    between atoms: C_11  and  C_12 
REMARK    4  A    between atoms: C_12  and  C_13 
REMARK       I    between atoms: C_13  and  N_14 
REMARK    5  A    between atoms: N_14  and  N_15 
REMARK       I    between atoms: N_15  and  C_16 
REMARK    6  A    between atoms: C_16  and  C_17 
REMARK    7  A    between atoms: C_21  and  C_22 
REMARK    8  A    between atoms: C_25  and  O_26 
ROOT
HETATM    1  N   UNL     1      24.067  45.374  51.065  1.00  0.00    -0.262 N 
HETATM    2  C   UNL     1      24.795  46.474  51.462  1.00  0.00     0.288 C 
HETATM    3  O   UNL     1      24.618  47.583  50.959  1.00  0.00    -0.264 OA
HETATM    4  H   UNL     1      24.188  44.440  51.447  1.00  0.00     0.190 HD
ENDROOT
BRANCH   1   5
HETATM    5  N   UNL     1      23.158  45.507  50.013  1.00  0.00    -0.267 N 
HETATM    6  C   UNL     1      23.578  45.204  48.736  1.00  0.00     0.240 C 
HETATM    7  O   UNL     1      24.712  44.784  48.497  1.00  0.00    -0.272 OA
HETATM    8  H   UNL     1      22.223  45.835  50.249  1.00  0.00     0.190 HD
BRANCH   6   9
HETATM    9  C   UNL     1      22.549  45.479  47.658  1.00  0.00     0.147 C 
BRANCH   9  10
HETATM   10  C   UNL     1      21.556  46.515  48.065  1.00  0.00     0.001 A 
HETATM   11  C   UNL     1      20.180  46.333  48.370  1.00  0.00     0.059 A 
HETATM   12  C   UNL     1      19.372  45.088  48.332  1.00  0.00     0.073 C 
HETATM   13  N   UNL     1      19.599  47.479  48.727  1.00  0.00    -0.177 NA
HETATM   14  N   UNL     1      20.588  48.388  48.701  1.00  0.00    -0.273 N 
HETATM   15  C   UNL     1      21.783  47.869  48.264  1.00  0.00     0.035 A 
HETATM   16  C   UNL     1      23.032  48.661  48.108  1.00  0.00     0.070 C 
BRANCH  14  17
HETATM   17  C   UNL     1      20.284  49.740  49.141  1.00  0.00     0.155 C 
BRANCH  17  18
HETATM   18  C   UNL     1      20.235  50.761  47.989  1.00  0.00    -0.003 C 
HETATM   19  C   UNL     1      19.394  50.259  46.814  1.00  0.00     0.011 C 
HETATM   20  C   UNL     1      19.675  52.091  48.498  1.00  0.00     0.011 C 
ENDBRANCH  17  18
ENDBRANCH  14  17
ENDBRANCH   9  10
ENDBRANCH   6   9
ENDBRANCH   1   5
BRANCH   2  21
HETATM   21  C   UNL     1      25.771  46.235  52.488  1.00  0.00     0.121 A 
HETATM   22  N   UNL     1      25.849  47.018  53.604  1.00  0.00    -0.272 N 
HETATM   23  H   UNL     1      25.260  47.813  53.833  1.00  0.00     0.189 HD
HETATM   24  N   UNL     1      26.819  46.664  54.458  1.00  0.00    -0.174 NA
HETATM   25  C   UNL     1      27.417  45.609  53.881  1.00  0.00     0.089 A 
HETATM   26  C   UNL     1      26.779  45.305  52.644  1.00  0.00     0.071 A 
BRANCH  25  27
HETATM   27  C   UNL     1      28.558  44.930  54.509  1.00  0.00    -0.005 A 
HETATM   28  C   UNL     1      29.189  45.488  55.629  1.00  0.00     0.016 A 
HETATM   29  C   UNL     1      30.272  44.844  56.236  1.00  0.00     0.037 A 
HETATM   30  C   UNL     1      30.748  43.630  55.740  1.00  0.00     0.068 A 
HETATM   31  C   UNL     1      30.135  43.070  54.621  1.00  0.00     0.037 A 
HETATM   32  C   UNL     1      29.049  43.715  54.011  1.00  0.00     0.016 A 
BRANCH  30  33
HETATM   33  O   UNL     1      31.806  43.105  56.427  1.00  0.00    -0.356 OA
HETATM   34  C   UNL     1      32.053  43.629  57.725  1.00  0.00     0.210 C 
ENDBRANCH  30  33
ENDBRANCH  25  27
ENDBRANCH   2  21
TORSDOF 8
ENDMDL
MODEL 6
REMARK VINA RESULT:      -8.2      2.006      2.895
REMARK  8 active torsions:
REMARK  status: ('A' for Active; 'I' for Inactive)
REMARK    1  A    between atoms: N_4  and  C_5 
REMARK    2  A    between atoms: C_5  and  C_6 
REMARK    3  A    between atoms: C_11  and  C_12 
REMARK    4  A    between atoms: C_12  and  C_13 
REMARK       I    between atoms: C_13  and  N_14 
REMARK    5  A    between atoms: N_14  and  N_15 
REMARK       I    between atoms: N_15  and  C_16 
REMARK    6  A    between atoms: C_16  and  C_17 
REMARK    7  A    between atoms: C_21  and  C_22 
REMARK    8  A    between atoms: C_25  and  O_26 
ROOT
HETATM    1  N   UNL     1      22.673  47.295  49.143  1.00  0.00    -0.262 N 
HETATM    2  C   UNL     1      23.787  47.830  49.755  1.00  0.00     0.288 C 
HETATM    3  O   UNL     1      24.120  49.002  49.581  1.00  0.00    -0.264 OA
HETATM    4  H   UNL     1      22.369  46.332  49.252  1.00  0.00     0.190 HD
ENDROOT
BRANCH   1   5
HETATM    5  N   UNL     1      21.950  48.083  48.246  1.00  0.00    -0.267 N 
HETATM    6  C   UNL     1      20.629  48.362  48.529  1.00  0.00     0.240 C 
HETATM    7  O   UNL     1      20.080  47.974  49.562  1.00  0.00    -0.272 OA
HETATM    8  H   UNL     1      22.440  48.405  47.414  1.00  0.00     0.190 HD
BRANCH   6   9
HETATM    9  C   UNL     1      19.908  49.136  47.445  1.00  0.00     0.147 C 
BRANCH   9  10
HETATM   10  C   UNL     1      18.643  49.759  47.932  1.00  0.00     0.001 A 
HETATM   11  C   UNL     1      17.333  49.208  47.908  1.00  0.00     0.059 A 
HETATM   12  C   UNL     1      16.880  47.900  47.371  1.00  0.00     0.073 C 
HETATM   13  N   UNL     1      16.441  50.034  48.456  1.00  0.00    -0.177 NA
HETATM   14  N   UNL     1      17.162  51.090  48.873  1.00  0.00    -0.273 N 
HETATM   15  C   UNL     1      18.492  50.996  48.541  1.00  0.00     0.035 A 
HETATM   16  C   UNL     1      19.507  52.038  48.851  1.00  0.00     0.070 C 
BRANCH  14  17
HETATM   17  C   UNL     1      16.474  52.138  49.608  1.00  0.00     0.155 C 
BRANCH  17  18
HETATM   18  C   UNL     1      15.097  52.496  49.019  1.00  0.00    -0.003 C 
HETATM   19  C   UNL     1      14.408  53.610  49.809  1.00  0.00     0.011 C 
HETATM   20  C   UNL     1      15.252  52.917  47.556  1.00  0.00     0.011 C 
ENDBRANCH  17  18
ENDBRANCH  14  17
ENDBRANCH   9  10
ENDBRANCH   6   9
ENDBRANCH   1   5
BRANCH   2  21
HETATM   21  C   UNL     1      24.527  46.930  50.593  1.00  0.00     0.121 A 
HETATM   22  N   UNL     1      24.171  45.618  50.731  1.00  0.00    -0.272 N 
HETATM   23  H   UNL     1      23.392  45.147  50.281  1.00  0.00     0.189 HD
HETATM   24  N   UNL     1      24.962  44.918  51.555  1.00  0.00    -0.174 NA
HETATM   25  C   UNL     1      25.874  45.802  51.991  1.00  0.00     0.089 A 
HETATM   26  C   UNL     1      25.637  47.077  51.401  1.00  0.00     0.071 A 
BRANCH  25  27
HETATM   27  C   UNL     1      26.928  45.419  52.940  1.00  0.00    -0.005 A 
HETATM   28  C   UNL     1      27.163  46.188  54.089  1.00  0.00     0.016 A 
HETATM   29  C   UNL     1      28.160  45.826  55.000  1.00  0.00     0.037 A 
HETATM   30  C   UNL     1      28.943  44.692  54.787  1.00  0.00     0.068 A 
HETATM   31  C   UNL     1      28.725  43.925  53.643  1.00  0.00     0.037 A 
HETATM   32  C   UNL     1      27.725  44.287  52.728  1.00  0.00     0.016 A 
BRANCH  30  33
HETATM   33  O   UNL     1      29.878  44.448  55.754  1.00  0.00    -0.356 OA
HETATM   34  C   UNL     1      30.246  45.544  56.581  1.00  0.00     0.210 C 
ENDBRANCH  30  33
ENDBRANCH  25  27
ENDBRANCH   2  21
TORSDOF 8
ENDMDL
MODEL 7
REMARK VINA RESULT:      -8.1      1.622      2.260
REMARK  8 active torsions:
REMARK  status: ('A' for Active; 'I' for Inactive)
REMARK    1  A    between atoms: N_4  and  C_5 
REMARK    2  A    between atoms: C_5  and  C_6 
REMARK    3  A    between atoms: C_11  and  C_12 
REMARK    4  A    between atoms: C_12  and  C_13 
REMARK       I    between atoms: C_13  and  N_14 
REMARK    5  A    between atoms: N_14  and  N_15 
REMARK       I    between atoms: N_15  and  C_16 
REMARK    6  A    between atoms: C_16  and  C_17 
REMARK    7  A    between atoms: C_21  and  C_22 
REMARK    8  A    between atoms: C_25  and  O_26 
ROOT
HETATM    1  N   UNL     1      22.785  45.421  49.573  1.00  0.00    -0.262 N 
HETATM    2  C   UNL     1      23.065  44.151  50.028  1.00  0.00     0.288 C 
HETATM    3  O   UNL     1      22.299  43.209  49.829  1.00  0.00    -0.264 OA
HETATM    4  H   UNL     1      23.384  46.228  49.724  1.00  0.00     0.190 HD
ENDROOT
BRANCH   1   5
HETATM    5  N   UNL     1      21.566  45.658  48.934  1.00  0.00    -0.267 N 
HETATM    6  C   UNL     1      21.580  46.099  47.628  1.00  0.00     0.240 C 
HETATM    7  O   UNL     1      22.627  46.254  46.995  1.00  0.00    -0.272 OA
HETATM    8  H   UNL     1      20.720  45.499  49.478  1.00  0.00     0.190 HD
BRANCH   6   9
HETATM    9  C   UNL     1      20.212  46.423  47.063  1.00  0.00     0.147 C 
BRANCH   9  10
HETATM   10  C   UNL     1      19.480  47.434  47.879  1.00  0.00     0.001 A 
HETATM   11  C   UNL     1      18.196  47.312  48.475  1.00  0.00     0.059 A 
HETATM   12  C   UNL     1      17.245  46.173  48.418  1.00  0.00     0.073 C 
HETATM   13  N   UNL     1      17.865  48.406  49.161  1.00  0.00    -0.177 NA
HETATM   14  N   UNL     1      18.933  49.215  49.054  1.00  0.00    -0.273 N 
HETATM   15  C   UNL     1      19.921  48.696  48.252  1.00  0.00     0.035 A 
HETATM   16  C   UNL     1      21.195  49.394  47.935  1.00  0.00     0.070 C 
BRANCH  14  17
HETATM   17  C   UNL     1      18.915  50.470  49.786  1.00  0.00     0.155 C 
BRANCH  17  18
HETATM   18  C   UNL     1      18.246  51.620  49.013  1.00  0.00    -0.003 C 
HETATM   19  C   UNL     1      17.366  52.485  49.918  1.00  0.00     0.011 C 
HETATM   20  C   UNL     1      19.314  52.489  48.345  1.00  0.00     0.011 C 
ENDBRANCH  17  18
ENDBRANCH  14  17
ENDBRANCH   9  10
ENDBRANCH   6   9
ENDBRANCH   1   5
BRANCH   2  21
HETATM   21  C   UNL     1      24.297  44.009  50.752  1.00  0.00     0.121 A 
HETATM   22  N   UNL     1      25.213  43.048  50.433  1.00  0.00    -0.272 N 
HETATM   23  H   UNL     1      25.142  42.362  49.687  1.00  0.00     0.189 HD
HETATM   24  N   UNL     1      26.303  43.048  51.211  1.00  0.00    -0.174 NA
HETATM   25  C   UNL     1      26.099  44.042  52.090  1.00  0.00     0.089 A 
HETATM   26  C   UNL     1      24.851  44.675  51.827  1.00  0.00     0.071 A 
BRANCH  25  27
HETATM   27  C   UNL     1      27.078  44.358  53.138  1.00  0.00    -0.005 A 
HETATM   28  C   UNL     1      28.086  43.442  53.471  1.00  0.00     0.016 A 
HETATM   29  C   UNL     1      29.025  43.739  54.463  1.00  0.00     0.037 A 
HETATM   30  C   UNL     1      28.981  44.956  55.145  1.00  0.00     0.068 A 
HETATM   31  C   UNL     1      27.978  45.870  54.831  1.00  0.00     0.037 A 
HETATM   32  C   UNL     1      27.035  45.573  53.835  1.00  0.00     0.016 A 
BRANCH  30  33
HETATM   33  O   UNL     1      29.958  45.122  56.086  1.00  0.00    -0.356 OA
HETATM   34  C   UNL     1      31.049  44.211  56.047  1.00  0.00     0.210 C 
ENDBRANCH  30  33
ENDBRANCH  25  27
ENDBRANCH   2  21
TORSDOF 8
ENDMDL
MODEL 8
REMARK VINA RESULT:      -8.0      2.501     11.829
REMARK  8 active torsions:
REMARK  status: ('A' for Active; 'I' for Inactive)
REMARK    1  A    between atoms: N_4  and  C_5 
REMARK    2  A    between atoms: C_5  and  C_6 
REMARK    3  A    between atoms: C_11  and  C_12 
REMARK    4  A    between atoms: C_12  and  C_13 
REMARK       I    between atoms: C_13  and  N_14 
REMARK    5  A    between atoms: N_14  and  N_15 
REMARK       I    between atoms: N_15  and  C_16 
REMARK    6  A    between atoms: C_16  and  C_17 
REMARK    7  A    between atoms: C_21  and  C_22 
REMARK    8  A    between atoms: C_25  and  O_26 
ROOT
HETATM    1  N   UNL     1      22.562  46.521  49.543  1.00  0.00    -0.262 N 
HETATM    2  C   UNL     1      21.923  47.049  48.442  1.00  0.00     0.288 C 
HETATM    3  O   UNL     1      22.419  46.995  47.318  1.00  0.00    -0.264 OA
HETATM    4  H   UNL     1      22.192  46.554  50.489  1.00  0.00     0.190 HD
ENDROOT
BRANCH   1   5
HETATM    5  N   UNL     1      23.839  45.978  49.389  1.00  0.00    -0.267 N 
HETATM    6  C   UNL     1      24.165  44.845  50.104  1.00  0.00     0.240 C 
HETATM    7  O   UNL     1      23.358  44.276  50.842  1.00  0.00    -0.272 OA
HETATM    8  H   UNL     1      24.473  46.460  48.754  1.00  0.00     0.190 HD
BRANCH   6   9
HETATM    9  C   UNL     1      25.603  44.397  49.943  1.00  0.00     0.147 C 
BRANCH   9  10
HETATM   10  C   UNL     1      26.352  44.401  51.233  1.00  0.00     0.001 A 
HETATM   11  C   UNL     1      26.507  45.476  52.149  1.00  0.00     0.059 A 
HETATM   12  C   UNL     1      25.998  46.868  52.049  1.00  0.00     0.073 C 
HETATM   13  N   UNL     1      27.217  45.115  53.218  1.00  0.00    -0.177 NA
HETATM   14  N   UNL     1      27.486  43.812  53.026  1.00  0.00    -0.273 N 
HETATM   15  C   UNL     1      27.025  43.340  51.821  1.00  0.00     0.035 A 
HETATM   16  C   UNL     1      27.214  41.945  51.341  1.00  0.00     0.070 C 
BRANCH  14  17
HETATM   17  C   UNL     1      28.180  43.096  54.084  1.00  0.00     0.155 C 
BRANCH  17  18
HETATM   18  C   UNL     1      29.676  43.448  54.181  1.00  0.00    -0.003 C 
HETATM   19  C   UNL     1      30.256  43.110  55.555  1.00  0.00     0.011 C 
HETATM   20  C   UNL     1      30.455  42.706  53.092  1.00  0.00     0.011 C 
ENDBRANCH  17  18
ENDBRANCH  14  17
ENDBRANCH   9  10
ENDBRANCH   6   9
ENDBRANCH   1   5
BRANCH   2  21
HETATM   21  C   UNL     1      20.653  47.669  48.700  1.00  0.00     0.121 A 
HETATM   22  N   UNL     1      19.575  46.949  49.129  1.00  0.00    -0.272 N 
HETATM   23  H   UNL     1      19.542  45.950  49.311  1.00  0.00     0.189 HD
HETATM   24  N   UNL     1      18.466  47.677  49.314  1.00  0.00    -0.174 NA
HETATM   25  C   UNL     1      18.818  48.931  48.986  1.00  0.00     0.089 A 
HETATM   26  C   UNL     1      20.190  48.965  48.602  1.00  0.00     0.071 A 
BRANCH  25  27
HETATM   27  C   UNL     1      17.860  50.042  49.044  1.00  0.00    -0.005 A 
HETATM   28  C   UNL     1      16.625  49.953  48.385  1.00  0.00     0.016 A 
HETATM   29  C   UNL     1      15.706  51.004  48.442  1.00  0.00     0.037 A 
HETATM   30  C   UNL     1      15.996  52.167  49.155  1.00  0.00     0.068 A 
HETATM   31  C   UNL     1      17.224  52.272  49.806  1.00  0.00     0.037 A 
HETATM   32  C   UNL     1      18.148  51.218  49.750  1.00  0.00     0.016 A 
BRANCH  30  33
HETATM   33  O   UNL     1      15.011  53.115  49.134  1.00  0.00    -0.356 OA
HETATM   34  C   UNL     1      14.774  53.821  50.345  1.00  0.00     0.210 C 
ENDBRANCH  30  33
ENDBRANCH  25  27
ENDBRANCH   2  21
TORSDOF 8
ENDMDL
MODEL 9
REMARK VINA RESULT:      -7.9      7.374      9.785
REMARK  8 active torsions:
REMARK  status: ('A' for Active; 'I' for Inactive)
REMARK    1  A    between atoms: N_4  and  C_5 
REMARK    2  A    between atoms: C_5  and  C_6 
REMARK    3  A    between atoms: C_11  and  C_12 
REMARK    4  A    between atoms: C_12  and  C_13 
REMARK       I    between atoms: C_13  and  N_14 
REMARK    5  A    between atoms: N_14  and  N_15 
REMARK       I    between atoms: N_15  and  C_16 
REMARK    6  A    between atoms: C_16  and  C_17 
REMARK    7  A    between atoms: C_21  and  C_22 
REMARK    8  A    between atoms: C_25  and  O_26 
ROOT
HETATM    1  N   UNL     1      26.384  39.312  50.686  1.00  0.00    -0.262 N 
HETATM    2  C   UNL     1      26.542  40.616  50.269  1.00  0.00     0.288 C 
HETATM    3  O   UNL     1      26.408  40.939  49.090  1.00  0.00    -0.264 OA
HETATM    4  H   UNL     1      26.497  39.001  51.647  1.00  0.00     0.190 HD
ENDROOT
BRANCH   1   5
HETATM    5  N   UNL     1      26.138  38.322  49.732  1.00  0.00    -0.267 N 
HETATM    6  C   UNL     1      27.169  37.480  49.372  1.00  0.00     0.240 C 
HETATM    7  O   UNL     1      28.286  37.546  49.891  1.00  0.00    -0.272 OA
HETATM    8  H   UNL     1      25.199  38.280  49.340  1.00  0.00     0.190 HD
BRANCH   6   9
HETATM    9  C   UNL     1      26.826  36.511  48.260  1.00  0.00     0.147 C 
BRANCH   9  10
HETATM   10  C   UNL     1      26.832  37.157  46.916  1.00  0.00     0.001 A 
HETATM   11  C   UNL     1      25.720  37.638  46.173  1.00  0.00     0.059 A 
HETATM   12  C   UNL     1      24.277  37.596  46.520  1.00  0.00     0.073 C 
HETATM   13  N   UNL     1      26.098  38.187  45.018  1.00  0.00    -0.177 NA
HETATM   14  N   UNL     1      27.441  38.107  45.024  1.00  0.00    -0.273 N 
HETATM   15  C   UNL     1      27.935  37.453  46.127  1.00  0.00     0.035 A 
HETATM   16  C   UNL     1      29.379  37.196  46.370  1.00  0.00     0.070 C 
BRANCH  14  17
HETATM   17  C   UNL     1      28.165  38.716  43.921  1.00  0.00     0.155 C 
BRANCH  17  18
HETATM   18  C   UNL     1      28.168  40.255  43.967  1.00  0.00    -0.003 C 
HETATM   19  C   UNL     1      28.173  40.785  45.402  1.00  0.00     0.011 C 
HETATM   20  C   UNL     1      29.384  40.795  43.211  1.00  0.00     0.011 C 
ENDBRANCH  17  18
ENDBRANCH  14  17
ENDBRANCH   9  10
ENDBRANCH   6   9
ENDBRANCH   1   5
BRANCH   2  21
HETATM   21  C   UNL     1      26.881  41.558  51.298  1.00  0.00     0.121 A 
HETATM   22  N   UNL     1      26.031  42.563  51.662  1.00  0.00    -0.272 N 
HETATM   23  H   UNL     1      25.110  42.752  51.277  1.00  0.00     0.189 HD
HETATM   24  N   UNL     1      26.503  43.359  52.631  1.00  0.00    -0.174 NA
HETATM   25  C   UNL     1      27.721  42.869  52.916  1.00  0.00     0.089 A 
HETATM   26  C   UNL     1      27.990  41.731  52.102  1.00  0.00     0.071 A 
BRANCH  25  27
HETATM   27  C   UNL     1      28.581  43.485  53.935  1.00  0.00    -0.005 A 
HETATM   28  C   UNL     1      28.191  44.671  54.573  1.00  0.00     0.016 A 
HETATM   29  C   UNL     1      29.002  45.259  55.548  1.00  0.00     0.037 A 
HETATM   30  C   UNL     1      30.218  44.679  55.909  1.00  0.00     0.068 A 
HETATM   31  C   UNL     1      30.621  43.505  55.275  1.00  0.00     0.037 A 
HETATM   32  C   UNL     1      29.809  42.914  54.296  1.00  0.00     0.016 A 
BRANCH  30  33
HETATM   33  O   UNL     1      30.910  45.351  56.877  1.00  0.00    -0.356 OA
HETATM   34  C   UNL     1      30.147  45.936  57.924  1.00  0.00     0.210 C 
ENDBRANCH  30  33
ENDBRANCH  25  27
ENDBRANCH   2  21
TORSDOF 8
ENDMDL
MODEL 10
REMARK VINA RESULT:      -7.9      1.785      2.769
REMARK  8 active torsions:
REMARK  status: ('A' for Active; 'I' for Inactive)
REMARK    1  A    between atoms: N_4  and  C_5 
REMARK    2  A    between atoms: C_5  and  C_6 
REMARK    3  A    between atoms: C_11  and  C_12 
REMARK    4  A    between atoms: C_12  and  C_13 
REMARK       I    between atoms: C_13  and  N_14 
REMARK    5  A    between atoms: N_14  and  N_15 
REMARK       I    between atoms: N_15  and  C_16 
REMARK    6  A    between atoms: C_16  and  C_17 
REMARK    7  A    between atoms: C_21  and  C_22 
REMARK    8  A    between atoms: C_25  and  O_26 
ROOT
HETATM    1  N   UNL     1      23.301  46.649  49.492  1.00  0.00    -0.262 N 
HETATM    2  C   UNL     1      24.216  47.403  50.194  1.00  0.00     0.288 C 
HETATM    3  O   UNL     1      24.400  48.593  49.946  1.00  0.00    -0.264 OA
HETATM    4  H   UNL     1      23.125  45.662  49.658  1.00  0.00     0.190 HD
ENDROOT
BRANCH   1   5
HETATM    5  N   UNL     1      22.619  47.234  48.423  1.00  0.00    -0.267 N 
HETATM    6  C   UNL     1      21.248  47.105  48.364  1.00  0.00     0.240 C 
HETATM    7  O   UNL     1      20.602  46.527  49.240  1.00  0.00    -0.272 OA
HETATM    8  H   UNL     1      23.181  47.724  47.729  1.00  0.00     0.190 HD
BRANCH   6   9
HETATM    9  C   UNL     1      20.619  47.688  47.115  1.00  0.00     0.147 C 
BRANCH   9  10
HETATM   10  C   UNL     1      20.094  49.068  47.328  1.00  0.00     0.001 A 
HETATM   11  C   UNL     1      20.835  50.254  47.579  1.00  0.00     0.059 A 
HETATM   12  C   UNL     1      22.303  50.425  47.724  1.00  0.00     0.073 C 
HETATM   13  N   UNL     1      20.039  51.318  47.691  1.00  0.00    -0.177 NA
HETATM   14  N   UNL     1      18.800  50.844  47.472  1.00  0.00    -0.273 N 
HETATM   15  C   UNL     1      18.770  49.482  47.292  1.00  0.00     0.035 A 
HETATM   16  C   UNL     1      17.530  48.695  47.065  1.00  0.00     0.070 C 
BRANCH  14  17
HETATM   17  C   UNL     1      17.703  51.796  47.433  1.00  0.00     0.155 C 
BRANCH  17  18
HETATM   18  C   UNL     1      17.088  52.076  48.816  1.00  0.00    -0.003 C 
HETATM   19  C   UNL     1      15.657  51.546  48.925  1.00  0.00     0.011 C 
HETATM   20  C   UNL     1      17.957  51.450  49.908  1.00  0.00     0.011 C 
ENDBRANCH  17  18
ENDBRANCH  14  17
ENDBRANCH   9  10
ENDBRANCH   6   9
ENDBRANCH   1   5
BRANCH   2  21
HETATM   21  C   UNL     1      24.938  46.703  51.220  1.00  0.00     0.121 A 
HETATM   22  N   UNL     1      24.529  45.487  51.687  1.00  0.00    -0.272 N 
HETATM   23  H   UNL     1      23.718  44.958  51.381  1.00  0.00     0.189 HD
HETATM   24  N   UNL     1      25.311  44.976  52.647  1.00  0.00    -0.174 NA
HETATM   25  C   UNL     1      26.272  45.894  52.834  1.00  0.00     0.089 A 
HETATM   26  C   UNL     1      26.075  46.992  51.947  1.00  0.00     0.071 A 
BRANCH  25  27
HETATM   27  C   UNL     1      27.334  45.708  53.832  1.00  0.00    -0.005 A 
HETATM   28  C   UNL     1      28.060  44.510  53.884  1.00  0.00     0.016 A 
HETATM   29  C   UNL     1      29.076  44.328  54.827  1.00  0.00     0.037 A 
HETATM   30  C   UNL     1      29.390  45.336  55.739  1.00  0.00     0.068 A 
HETATM   31  C   UNL     1      28.669  46.528  55.704  1.00  0.00     0.037 A 
HETATM   32  C   UNL     1      27.649  46.712  54.758  1.00  0.00     0.016 A 
BRANCH  30  33
HETATM   33  O   UNL     1      30.405  45.033  56.602  1.00  0.00    -0.356 OA
HETATM   34  C   UNL     1      30.287  45.527  57.930  1.00  0.00     0.210 C 
ENDBRANCH  30  33
ENDBRANCH  25  27
ENDBRANCH   2  21
TORSDOF 8
ENDMDL
