MODEL 1
REMARK VINA RESULT:     -10.5      0.000      0.000
REMARK  3 active torsions:
REMARK  status: ('A' for Active; 'I' for Inactive)
REMARK    1  A    between atoms: C_4  and  N_5 
REMARK       I    between atoms: N_5  and  C_6 
REMARK    2  A    between atoms: C_6  and  C_7 
REMARK    3  A    between atoms: C_7  and  N_8 
ROOT
HETATM    1  N   UNL     1      26.405  45.133  53.229  1.00  0.00    -0.224 N 
HETATM    2  N   UNL     1      27.323  44.207  52.700  1.00  0.00    -0.180 NA
HETATM    3  C   UNL     1      28.397  43.917  53.380  1.00  0.00     0.153 A 
HETATM    4  C   UNL     1      28.665  44.539  54.647  1.00  0.00     0.028 A 
HETATM    5  C   UNL     1      27.765  45.452  55.136  1.00  0.00     0.116 A 
HETATM    6  N   UNL     1      28.215  45.900  56.343  1.00  0.00    -0.350 N 
HETATM    7  H   UNL     1      27.732  46.572  56.925  1.00  0.00     0.166 HD
HETATM    8  C   UNL     1      29.417  45.293  56.642  1.00  0.00     0.044 A 
HETATM    9  C   UNL     1      29.724  44.427  55.584  1.00  0.00     0.005 A 
HETATM   10  C   UNL     1      30.246  45.443  57.760  1.00  0.00     0.030 A 
HETATM   11  C   UNL     1      31.422  44.690  57.798  1.00  0.00     0.002 A 
HETATM   12  C   UNL     1      31.756  43.822  56.762  1.00  0.00     0.001 A 
HETATM   13  C   UNL     1      30.917  43.680  55.650  1.00  0.00     0.014 A 
HETATM   14  C   UNL     1      26.568  45.821  54.446  1.00  0.00     0.291 A 
HETATM   15  O   UNL     1      25.785  46.665  54.873  1.00  0.00    -0.264 OA
ENDROOT
BRANCH   1  16
HETATM   16  C   UNL     1      25.196  45.387  52.459  1.00  0.00     0.258 C 
BRANCH  16  17
HETATM   17  C   UNL     1      25.283  46.735  51.723  1.00  0.00     0.244 C 
HETATM   18  N   UNL     1      25.063  46.701  50.328  1.00  0.00    -0.320 N 
HETATM   19  C   UNL     1      24.603  45.499  49.642  1.00  0.00     0.159 C 
HETATM   20  O   UNL     1      25.493  47.780  52.346  1.00  0.00    -0.271 OA
BRANCH  18  21
HETATM   21  C   UNL     1      25.356  47.863  49.525  1.00  0.00     0.043 A 
HETATM   22  C   UNL     1      24.281  48.693  49.143  1.00  0.00     0.037 A 
HETATM   23  C   UNL     1      24.473  49.882  48.428  1.00  0.00    -0.060 A 
HETATM   24  C   UNL     1      23.307  50.741  48.038  1.00  0.00     0.048 C 
HETATM   25  C   UNL     1      25.770  50.267  48.101  1.00  0.00     0.007 A 
HETATM   26  C   UNL     1      26.849  49.457  48.453  1.00  0.00     0.009 A 
HETATM   27  C   UNL     1      26.661  48.241  49.141  1.00  0.00    -0.035 A 
HETATM   28  C   UNL     1      27.886  47.397  49.367  1.00  0.00     0.050 C 
ENDBRANCH  18  21
ENDBRANCH  16  17
ENDBRANCH   1  16
TORSDOF 3
ENDMDL
MODEL 2
REMARK VINA RESULT:     -10.4      1.935      8.450
REMARK  3 active torsions:
REMARK  status: ('A' for Active; 'I' for Inactive)
REMARK    1  A    between atoms: C_4  and  N_5 
REMARK       I    between atoms: N_5  and  C_6 
REMARK    2  A    between atoms: C_6  and  C_7 
REMARK    3  A    between atoms: C_7  and  N_8 
ROOT
HETATM    1  N   UNL     1      25.555  45.168  50.546  1.00  0.00    -0.224 N 
HETATM    2  N   UNL     1      26.487  46.217  50.445  1.00  0.00    -0.180 NA
HETATM    3  C   UNL     1      26.100  47.368  49.971  1.00  0.00     0.153 A 
HETATM    4  C   UNL     1      24.747  47.575  49.535  1.00  0.00     0.028 A 
HETATM    5  C   UNL     1      23.858  46.534  49.626  1.00  0.00     0.116 A 
HETATM    6  N   UNL     1      22.645  46.957  49.170  1.00  0.00    -0.350 N 
HETATM    7  H   UNL     1      21.809  46.388  49.140  1.00  0.00     0.166 HD
HETATM    8  C   UNL     1      22.738  48.273  48.766  1.00  0.00     0.044 A 
HETATM    9  C   UNL     1      24.058  48.688  48.987  1.00  0.00     0.005 A 
HETATM   10  C   UNL     1      21.760  49.119  48.231  1.00  0.00     0.030 A 
HETATM   11  C   UNL     1      22.141  50.425  47.908  1.00  0.00     0.002 A 
HETATM   12  C   UNL     1      23.446  50.866  48.113  1.00  0.00     0.001 A 
HETATM   13  C   UNL     1      24.414  50.009  48.653  1.00  0.00     0.014 A 
HETATM   14  C   UNL     1      24.211  45.243  50.132  1.00  0.00     0.291 A 
HETATM   15  O   UNL     1      23.420  44.305  50.177  1.00  0.00    -0.264 OA
ENDROOT
BRANCH   1  16
HETATM   16  C   UNL     1      26.019  43.916  51.127  1.00  0.00     0.258 C 
BRANCH  16  17
HETATM   17  C   UNL     1      27.216  44.152  52.064  1.00  0.00     0.244 C 
HETATM   18  N   UNL     1      26.912  44.366  53.426  1.00  0.00    -0.320 N 
HETATM   19  C   UNL     1      25.564  44.198  53.958  1.00  0.00     0.159 C 
HETATM   20  O   UNL     1      28.372  44.109  51.631  1.00  0.00    -0.271 OA
BRANCH  18  21
HETATM   21  C   UNL     1      27.938  44.827  54.328  1.00  0.00     0.043 A 
HETATM   22  C   UNL     1      28.905  43.897  54.764  1.00  0.00     0.037 A 
HETATM   23  C   UNL     1      29.983  44.267  55.580  1.00  0.00    -0.060 A 
HETATM   24  C   UNL     1      30.992  43.251  56.026  1.00  0.00     0.048 C 
HETATM   25  C   UNL     1      30.114  45.600  55.957  1.00  0.00     0.007 A 
HETATM   26  C   UNL     1      29.164  46.537  55.552  1.00  0.00     0.009 A 
HETATM   27  C   UNL     1      28.057  46.167  54.761  1.00  0.00    -0.035 A 
HETATM   28  C   UNL     1      27.038  47.238  54.481  1.00  0.00     0.050 C 
ENDBRANCH  18  21
ENDBRANCH  16  17
ENDBRANCH   1  16
TORSDOF 3
ENDMDL
MODEL 3
REMARK VINA RESULT:     -10.1      2.468      3.746
REMARK  3 active torsions:
REMARK  status: ('A' for Active; 'I' for Inactive)
REMARK    1  A    between atoms: C_4  and  N_5 
REMARK       I    between atoms: N_5  and  C_6 
REMARK    2  A    between atoms: C_6  and  C_7 
REMARK    3  A    between atoms: C_7  and  N_8 
ROOT
HETATM    1  N   UNL     1      26.903  45.704  53.214  1.00  0.00    -0.224 N 
HETATM    2  N   UNL     1      27.598  44.553  52.795  1.00  0.00    -0.180 NA
HETATM    3  C   UNL     1      28.553  44.080  53.544  1.00  0.00     0.153 A 
HETATM    4  C   UNL     1      28.920  44.721  54.777  1.00  0.00     0.028 A 
HETATM    5  C   UNL     1      28.241  45.851  55.158  1.00  0.00     0.116 A 
HETATM    6  N   UNL     1      28.746  46.278  56.351  1.00  0.00    -0.350 N 
HETATM    7  H   UNL     1      28.414  47.086  56.862  1.00  0.00     0.166 HD
HETATM    8  C   UNL     1      29.765  45.437  56.748  1.00  0.00     0.044 A 
HETATM    9  C   UNL     1      29.894  44.443  55.769  1.00  0.00     0.005 A 
HETATM   10  C   UNL     1      30.570  45.480  57.892  1.00  0.00     0.030 A 
HETATM   11  C   UNL     1      31.539  44.483  58.038  1.00  0.00     0.002 A 
HETATM   12  C   UNL     1      31.694  43.484  57.081  1.00  0.00     0.001 A 
HETATM   13  C   UNL     1      30.879  43.451  55.943  1.00  0.00     0.014 A 
HETATM   14  C   UNL     1      27.184  46.430  54.387  1.00  0.00     0.291 A 
HETATM   15  O   UNL     1      26.606  47.462  54.717  1.00  0.00    -0.264 OA
ENDROOT
BRANCH   1  16
HETATM   16  C   UNL     1      25.811  46.167  52.372  1.00  0.00     0.258 C 
BRANCH  16  17
HETATM   17  C   UNL     1      25.056  44.984  51.742  1.00  0.00     0.244 C 
HETATM   18  N   UNL     1      25.303  44.740  50.374  1.00  0.00    -0.320 N 
HETATM   19  C   UNL     1      26.345  45.446  49.634  1.00  0.00     0.159 C 
HETATM   20  O   UNL     1      24.313  44.275  52.429  1.00  0.00    -0.271 OA
BRANCH  18  21
HETATM   21  C   UNL     1      24.473  43.814  49.646  1.00  0.00     0.043 A 
HETATM   22  C   UNL     1      23.384  44.333  48.913  1.00  0.00     0.037 A 
HETATM   23  C   UNL     1      22.567  43.522  48.115  1.00  0.00    -0.060 A 
HETATM   24  C   UNL     1      21.417  44.107  47.350  1.00  0.00     0.048 C 
HETATM   25  C   UNL     1      22.851  42.162  48.026  1.00  0.00     0.007 A 
HETATM   26  C   UNL     1      23.911  41.621  48.751  1.00  0.00     0.009 A 
HETATM   27  C   UNL     1      24.717  42.424  49.585  1.00  0.00    -0.035 A 
HETATM   28  C   UNL     1      25.758  41.713  50.406  1.00  0.00     0.050 C 
ENDBRANCH  18  21
ENDBRANCH  16  17
ENDBRANCH   1  16
TORSDOF 3
ENDMDL
MODEL 4
REMARK VINA RESULT:      -9.9      2.459      8.752
REMARK  3 active torsions:
REMARK  status: ('A' for Active; 'I' for Inactive)
REMARK    1  A    between atoms: C_4  and  N_5 
REMARK       I    between atoms: N_5  and  C_6 
REMARK    2  A    between atoms: C_6  and  C_7 
REMARK    3  A    between atoms: C_7  and  N_8 
ROOT
HETATM    1  N   UNL     1      24.764  45.815  49.302  1.00  0.00    -0.224 N 
HETATM    2  N   UNL     1      25.418  47.039  49.539  1.00  0.00    -0.180 NA
HETATM    3  C   UNL     1      24.729  48.145  49.507  1.00  0.00     0.153 A 
HETATM    4  C   UNL     1      23.322  48.135  49.215  1.00  0.00     0.028 A 
HETATM    5  C   UNL     1      22.708  46.933  48.970  1.00  0.00     0.116 A 
HETATM    6  N   UNL     1      21.385  47.163  48.730  1.00  0.00    -0.350 N 
HETATM    7  H   UNL     1      20.701  46.443  48.533  1.00  0.00     0.166 HD
HETATM    8  C   UNL     1      21.131  48.517  48.804  1.00  0.00     0.044 A 
HETATM    9  C   UNL     1      22.340  49.154  49.110  1.00  0.00     0.005 A 
HETATM   10  C   UNL     1      19.931  49.216  48.628  1.00  0.00     0.030 A 
HETATM   11  C   UNL     1      19.968  50.607  48.764  1.00  0.00     0.002 A 
HETATM   12  C   UNL     1      21.155  51.270  49.066  1.00  0.00     0.001 A 
HETATM   13  C   UNL     1      22.347  50.557  49.242  1.00  0.00     0.014 A 
HETATM   14  C   UNL     1      23.399  45.681  48.986  1.00  0.00     0.291 A 
HETATM   15  O   UNL     1      22.850  44.613  48.730  1.00  0.00    -0.264 OA
ENDROOT
BRANCH   1  16
HETATM   16  C   UNL     1      25.563  44.603  49.398  1.00  0.00     0.258 C 
BRANCH  16  17
HETATM   17  C   UNL     1      26.633  44.730  50.496  1.00  0.00     0.244 C 
HETATM   18  N   UNL     1      26.220  44.425  51.811  1.00  0.00    -0.320 N 
HETATM   19  C   UNL     1      24.912  43.848  52.101  1.00  0.00     0.159 C 
HETATM   20  O   UNL     1      27.793  45.044  50.210  1.00  0.00    -0.271 OA
BRANCH  18  21
HETATM   21  C   UNL     1      27.077  44.742  52.927  1.00  0.00     0.043 A 
HETATM   22  C   UNL     1      28.087  43.819  53.270  1.00  0.00     0.037 A 
HETATM   23  C   UNL     1      29.016  44.072  54.288  1.00  0.00    -0.060 A 
HETATM   24  C   UNL     1      30.077  43.068  54.628  1.00  0.00     0.048 C 
HETATM   25  C   UNL     1      28.951  45.284  54.971  1.00  0.00     0.007 A 
HETATM   26  C   UNL     1      27.953  46.207  54.662  1.00  0.00     0.009 A 
HETATM   27  C   UNL     1      26.993  45.945  53.663  1.00  0.00    -0.035 A 
HETATM   28  C   UNL     1      25.898  46.962  53.494  1.00  0.00     0.050 C 
ENDBRANCH  18  21
ENDBRANCH  16  17
ENDBRANCH   1  16
TORSDOF 3
ENDMDL
MODEL 5
REMARK VINA RESULT:      -9.7      3.072      4.949
REMARK  3 active torsions:
REMARK  status: ('A' for Active; 'I' for Inactive)
REMARK    1  A    between atoms: C_4  and  N_5 
REMARK       I    between atoms: N_5  and  C_6 
REMARK    2  A    between atoms: C_6  and  C_7 
REMARK    3  A    between atoms: C_7  and  N_8 
ROOT
HETATM    1  N   UNL     1      27.213  44.912  52.694  1.00  0.00    -0.224 N 
HETATM    2  N   UNL     1      28.056  43.807  52.471  1.00  0.00    -0.180 NA
HETATM    3  C   UNL     1      28.963  43.510  53.359  1.00  0.00     0.153 A 
HETATM    4  C   UNL     1      29.127  44.301  54.547  1.00  0.00     0.028 A 
HETATM    5  C   UNL     1      28.306  45.384  54.736  1.00  0.00     0.116 A 
HETATM    6  N   UNL     1      28.632  45.974  55.922  1.00  0.00    -0.350 N 
HETATM    7  H   UNL     1      28.170  46.787  56.308  1.00  0.00     0.166 HD
HETATM    8  C   UNL     1      29.675  45.287  56.507  1.00  0.00     0.044 A 
HETATM    9  C   UNL     1      30.007  44.224  55.657  1.00  0.00     0.005 A 
HETATM   10  C   UNL     1      30.341  45.524  57.716  1.00  0.00     0.030 A 
HETATM   11  C   UNL     1      31.377  44.654  58.064  1.00  0.00     0.002 A 
HETATM   12  C   UNL     1      31.732  43.590  57.239  1.00  0.00     0.001 A 
HETATM   13  C   UNL     1      31.056  43.362  56.034  1.00  0.00     0.014 A 
HETATM   14  C   UNL     1      27.291  45.772  53.805  1.00  0.00     0.291 A 
HETATM   15  O   UNL     1      26.584  46.763  53.964  1.00  0.00    -0.264 OA
ENDROOT
BRANCH   1  16
HETATM   16  C   UNL     1      26.182  45.175  51.700  1.00  0.00     0.258 C 
BRANCH  16  17
HETATM   17  C   UNL     1      26.431  44.365  50.416  1.00  0.00     0.244 C 
HETATM   18  N   UNL     1      25.698  43.167  50.280  1.00  0.00    -0.320 N 
HETATM   19  C   UNL     1      24.632  42.797  51.206  1.00  0.00     0.159 C 
HETATM   20  O   UNL     1      27.204  44.784  49.549  1.00  0.00    -0.271 OA
BRANCH  18  21
HETATM   21  C   UNL     1      26.035  42.231  49.236  1.00  0.00     0.043 A 
HETATM   22  C   UNL     1      27.234  41.499  49.363  1.00  0.00     0.037 A 
HETATM   23  C   UNL     1      27.610  40.514  48.441  1.00  0.00    -0.060 A 
HETATM   24  C   UNL     1      28.894  39.755  48.606  1.00  0.00     0.048 C 
HETATM   25  C   UNL     1      26.761  40.234  47.374  1.00  0.00     0.007 A 
HETATM   26  C   UNL     1      25.577  40.953  47.216  1.00  0.00     0.009 A 
HETATM   27  C   UNL     1      25.209  41.971  48.120  1.00  0.00    -0.035 A 
HETATM   28  C   UNL     1      23.968  42.754  47.787  1.00  0.00     0.050 C 
ENDBRANCH  18  21
ENDBRANCH  16  17
ENDBRANCH   1  16
TORSDOF 3
ENDMDL
MODEL 6
REMARK VINA RESULT:      -9.7      2.605      8.608
REMARK  3 active torsions:
REMARK  status: ('A' for Active; 'I' for Inactive)
REMARK    1  A    between atoms: C_4  and  N_5 
REMARK       I    between atoms: N_5  and  C_6 
REMARK    2  A    between atoms: C_6  and  C_7 
REMARK    3  A    between atoms: C_7  and  N_8 
ROOT
HETATM    1  N   UNL     1      24.707  45.737  49.280  1.00  0.00    -0.224 N 
HETATM    2  N   UNL     1      25.372  46.946  49.559  1.00  0.00    -0.180 NA
HETATM    3  C   UNL     1      24.695  48.059  49.558  1.00  0.00     0.153 A 
HETATM    4  C   UNL     1      23.290  48.074  49.260  1.00  0.00     0.028 A 
HETATM    5  C   UNL     1      22.664  46.887  48.974  1.00  0.00     0.116 A 
HETATM    6  N   UNL     1      21.345  47.139  48.734  1.00  0.00    -0.350 N 
HETATM    7  H   UNL     1      20.654  46.433  48.512  1.00  0.00     0.166 HD
HETATM    8  C   UNL     1      21.105  48.492  48.850  1.00  0.00     0.044 A 
HETATM    9  C   UNL     1      22.320  49.107  49.182  1.00  0.00     0.005 A 
HETATM   10  C   UNL     1      19.914  49.210  48.690  1.00  0.00     0.030 A 
HETATM   11  C   UNL     1      19.965  50.595  48.870  1.00  0.00     0.002 A 
HETATM   12  C   UNL     1      21.158  51.235  49.198  1.00  0.00     0.001 A 
HETATM   13  C   UNL     1      22.341  50.504  49.358  1.00  0.00     0.014 A 
HETATM   14  C   UNL     1      23.342  45.628  48.953  1.00  0.00     0.291 A 
HETATM   15  O   UNL     1      22.783  44.574  48.661  1.00  0.00    -0.264 OA
ENDROOT
BRANCH   1  16
HETATM   16  C   UNL     1      25.492  44.513  49.342  1.00  0.00     0.258 C 
BRANCH  16  17
HETATM   17  C   UNL     1      26.629  44.637  50.371  1.00  0.00     0.244 C 
HETATM   18  N   UNL     1      26.323  44.244  51.692  1.00  0.00    -0.320 N 
HETATM   19  C   UNL     1      25.066  43.588  52.037  1.00  0.00     0.159 C 
HETATM   20  O   UNL     1      27.751  45.022  50.026  1.00  0.00    -0.271 OA
BRANCH  18  21
HETATM   21  C   UNL     1      27.240  44.544  52.764  1.00  0.00     0.043 A 
HETATM   22  C   UNL     1      27.018  45.715  53.519  1.00  0.00     0.037 A 
HETATM   23  C   UNL     1      27.808  46.052  54.625  1.00  0.00    -0.060 A 
HETATM   24  C   UNL     1      27.544  47.306  55.405  1.00  0.00     0.048 C 
HETATM   25  C   UNL     1      28.835  45.192  55.004  1.00  0.00     0.007 A 
HETATM   26  C   UNL     1      29.086  44.036  54.266  1.00  0.00     0.009 A 
HETATM   27  C   UNL     1      28.318  43.708  53.130  1.00  0.00    -0.035 A 
HETATM   28  C   UNL     1      28.752  42.498  52.347  1.00  0.00     0.050 C 
ENDBRANCH  18  21
ENDBRANCH  16  17
ENDBRANCH   1  16
TORSDOF 3
ENDMDL
MODEL 7
REMARK VINA RESULT:      -9.5      4.823      8.757
REMARK  3 active torsions:
REMARK  status: ('A' for Active; 'I' for Inactive)
REMARK    1  A    between atoms: C_4  and  N_5 
REMARK       I    between atoms: N_5  and  C_6 
REMARK    2  A    between atoms: C_6  and  C_7 
REMARK    3  A    between atoms: C_7  and  N_8 
ROOT
HETATM    1  N   UNL     1      27.161  42.249  50.839  1.00  0.00    -0.224 N 
HETATM    2  N   UNL     1      27.679  41.066  51.398  1.00  0.00    -0.180 NA
HETATM    3  C   UNL     1      28.034  40.092  50.609  1.00  0.00     0.153 A 
HETATM    4  C   UNL     1      27.889  40.199  49.183  1.00  0.00     0.028 A 
HETATM    5  C   UNL     1      27.365  41.355  48.660  1.00  0.00     0.116 A 
HETATM    6  N   UNL     1      27.330  41.238  47.301  1.00  0.00    -0.350 N 
HETATM    7  H   UNL     1      26.999  41.956  46.669  1.00  0.00     0.166 HD
HETATM    8  C   UNL     1      27.817  40.001  46.932  1.00  0.00     0.044 A 
HETATM    9  C   UNL     1      28.177  39.325  48.104  1.00  0.00     0.005 A 
HETATM   10  C   UNL     1      27.966  39.439  45.658  1.00  0.00     0.030 A 
HETATM   11  C   UNL     1      28.495  38.148  45.580  1.00  0.00     0.002 A 
HETATM   12  C   UNL     1      28.861  37.449  46.727  1.00  0.00     0.001 A 
HETATM   13  C   UNL     1      28.709  38.025  47.995  1.00  0.00     0.014 A 
HETATM   14  C   UNL     1      26.951  42.463  49.464  1.00  0.00     0.291 A 
HETATM   15  O   UNL     1      26.451  43.480  48.990  1.00  0.00    -0.264 OA
ENDROOT
BRANCH   1  16
HETATM   16  C   UNL     1      26.825  43.328  51.755  1.00  0.00     0.258 C 
BRANCH  16  17
HETATM   17  C   UNL     1      28.023  43.688  52.650  1.00  0.00     0.244 C 
HETATM   18  N   UNL     1      27.758  43.814  54.031  1.00  0.00    -0.320 N 
HETATM   19  C   UNL     1      26.469  43.450  54.612  1.00  0.00     0.159 C 
HETATM   20  O   UNL     1      29.153  43.813  52.168  1.00  0.00    -0.271 OA
BRANCH  18  21
HETATM   21  C   UNL     1      28.755  44.375  54.908  1.00  0.00     0.043 A 
HETATM   22  C   UNL     1      29.729  43.508  55.447  1.00  0.00     0.037 A 
HETATM   23  C   UNL     1      30.781  43.971  56.247  1.00  0.00    -0.060 A 
HETATM   24  C   UNL     1      31.799  43.020  56.805  1.00  0.00     0.048 C 
HETATM   25  C   UNL     1      30.881  45.336  56.502  1.00  0.00     0.007 A 
HETATM   26  C   UNL     1      29.924  46.213  55.994  1.00  0.00     0.009 A 
HETATM   27  C   UNL     1      28.841  45.751  55.218  1.00  0.00    -0.035 A 
HETATM   28  C   UNL     1      27.810  46.772  54.820  1.00  0.00     0.050 C 
ENDBRANCH  18  21
ENDBRANCH  16  17
ENDBRANCH   1  16
TORSDOF 3
ENDMDL
MODEL 8
REMARK VINA RESULT:      -9.5      2.152      3.640
REMARK  3 active torsions:
REMARK  status: ('A' for Active; 'I' for Inactive)
REMARK    1  A    between atoms: C_4  and  N_5 
REMARK       I    between atoms: N_5  and  C_6 
REMARK    2  A    between atoms: C_6  and  C_7 
REMARK    3  A    between atoms: C_7  and  N_8 
ROOT
HETATM    1  N   UNL     1      25.556  45.378  50.710  1.00  0.00    -0.224 N 
HETATM    2  N   UNL     1      25.318  46.005  51.947  1.00  0.00    -0.180 NA
HETATM    3  C   UNL     1      26.132  45.782  52.941  1.00  0.00     0.153 A 
HETATM    4  C   UNL     1      27.253  44.894  52.798  1.00  0.00     0.028 A 
HETATM    5  C   UNL     1      27.457  44.280  51.588  1.00  0.00     0.116 A 
HETATM    6  N   UNL     1      28.572  43.500  51.680  1.00  0.00    -0.350 N 
HETATM    7  H   UNL     1      28.953  42.947  50.923  1.00  0.00     0.166 HD
HETATM    8  C   UNL     1      29.094  43.590  52.954  1.00  0.00     0.044 A 
HETATM    9  C   UNL     1      28.278  44.466  53.681  1.00  0.00     0.005 A 
HETATM   10  C   UNL     1      30.219  42.970  53.509  1.00  0.00     0.030 A 
HETATM   11  C   UNL     1      30.517  43.249  54.846  1.00  0.00     0.002 A 
HETATM   12  C   UNL     1      29.724  44.114  55.595  1.00  0.00     0.001 A 
HETATM   13  C   UNL     1      28.602  44.730  55.026  1.00  0.00     0.014 A 
HETATM   14  C   UNL     1      26.605  44.475  50.455  1.00  0.00     0.291 A 
HETATM   15  O   UNL     1      26.773  43.894  49.386  1.00  0.00    -0.264 OA
ENDROOT
BRANCH   1  16
HETATM   16  C   UNL     1      24.651  45.697  49.616  1.00  0.00     0.258 C 
BRANCH  16  17
HETATM   17  C   UNL     1      24.038  47.096  49.794  1.00  0.00     0.244 C 
HETATM   18  N   UNL     1      22.975  47.429  48.926  1.00  0.00    -0.320 N 
HETATM   19  C   UNL     1      22.365  46.450  48.033  1.00  0.00     0.159 C 
HETATM   20  O   UNL     1      24.444  47.852  50.682  1.00  0.00    -0.271 OA
BRANCH  18  21
HETATM   21  C   UNL     1      22.501  48.789  48.858  1.00  0.00     0.043 A 
HETATM   22  C   UNL     1      21.161  49.043  49.219  1.00  0.00     0.037 A 
HETATM   23  C   UNL     1      20.630  50.339  49.257  1.00  0.00    -0.060 A 
HETATM   24  C   UNL     1      19.199  50.573  49.644  1.00  0.00     0.048 C 
HETATM   25  C   UNL     1      21.459  51.414  48.947  1.00  0.00     0.007 A 
HETATM   26  C   UNL     1      22.782  51.189  48.573  1.00  0.00     0.009 A 
HETATM   27  C   UNL     1      23.315  49.886  48.497  1.00  0.00    -0.035 A 
HETATM   28  C   UNL     1      24.719  49.759  47.973  1.00  0.00     0.050 C 
ENDBRANCH  18  21
ENDBRANCH  16  17
ENDBRANCH   1  16
TORSDOF 3
ENDMDL
MODEL 9
REMARK VINA RESULT:      -9.4      3.014      9.288
REMARK  3 active torsions:
REMARK  status: ('A' for Active; 'I' for Inactive)
REMARK    1  A    between atoms: C_4  and  N_5 
REMARK       I    between atoms: N_5  and  C_6 
REMARK    2  A    between atoms: C_6  and  C_7 
REMARK    3  A    between atoms: C_7  and  N_8 
ROOT
HETATM    1  N   UNL     1      23.272  46.058  48.979  1.00  0.00    -0.224 N 
HETATM    2  N   UNL     1      21.989  45.593  48.632  1.00  0.00    -0.180 NA
HETATM    3  C   UNL     1      21.016  46.451  48.502  1.00  0.00     0.153 A 
HETATM    4  C   UNL     1      21.228  47.855  48.724  1.00  0.00     0.028 A 
HETATM    5  C   UNL     1      22.483  48.284  49.077  1.00  0.00     0.116 A 
HETATM    6  N   UNL     1      22.452  49.640  49.224  1.00  0.00    -0.350 N 
HETATM    7  H   UNL     1      23.250  50.212  49.470  1.00  0.00     0.166 HD
HETATM    8  C   UNL     1      21.175  50.101  48.980  1.00  0.00     0.044 A 
HETATM    9  C   UNL     1      20.381  48.991  48.661  1.00  0.00     0.005 A 
HETATM   10  C   UNL     1      20.669  51.406  49.015  1.00  0.00     0.030 A 
HETATM   11  C   UNL     1      19.315  51.583  48.720  1.00  0.00     0.002 A 
HETATM   12  C   UNL     1      18.500  50.499  48.401  1.00  0.00     0.001 A 
HETATM   13  C   UNL     1      19.019  49.199  48.367  1.00  0.00     0.014 A 
HETATM   14  C   UNL     1      23.597  47.402  49.241  1.00  0.00     0.291 A 
HETATM   15  O   UNL     1      24.708  47.789  49.593  1.00  0.00    -0.264 OA
ENDROOT
BRANCH   1  16
HETATM   16  C   UNL     1      24.338  45.071  49.063  1.00  0.00     0.258 C 
BRANCH  16  17
HETATM   17  C   UNL     1      24.758  44.834  50.524  1.00  0.00     0.244 C 
HETATM   18  N   UNL     1      26.136  44.957  50.807  1.00  0.00    -0.320 N 
HETATM   19  C   UNL     1      27.090  45.457  49.823  1.00  0.00     0.159 C 
HETATM   20  O   UNL     1      23.912  44.591  51.390  1.00  0.00    -0.271 OA
BRANCH  18  21
HETATM   21  C   UNL     1      26.650  44.525  52.083  1.00  0.00     0.043 A 
HETATM   22  C   UNL     1      27.127  43.201  52.191  1.00  0.00     0.037 A 
HETATM   23  C   UNL     1      27.714  42.713  53.366  1.00  0.00    -0.060 A 
HETATM   24  C   UNL     1      28.210  41.299  53.447  1.00  0.00     0.048 C 
HETATM   25  C   UNL     1      27.850  43.569  54.456  1.00  0.00     0.007 A 
HETATM   26  C   UNL     1      27.374  44.877  54.379  1.00  0.00     0.009 A 
HETATM   27  C   UNL     1      26.749  45.366  53.214  1.00  0.00    -0.035 A 
HETATM   28  C   UNL     1      26.174  46.754  53.286  1.00  0.00     0.050 C 
ENDBRANCH  18  21
ENDBRANCH  16  17
ENDBRANCH   1  16
TORSDOF 3
ENDMDL
MODEL 10
REMARK VINA RESULT:      -9.2      4.015      9.584
REMARK  3 active torsions:
REMARK  status: ('A' for Active; 'I' for Inactive)
REMARK    1  A    between atoms: C_4  and  N_5 
REMARK       I    between atoms: N_5  and  C_6 
REMARK    2  A    between atoms: C_6  and  C_7 
REMARK    3  A    between atoms: C_7  and  N_8 
ROOT
HETATM    1  N   UNL     1      22.774  45.824  48.907  1.00  0.00    -0.224 N 
HETATM    2  N   UNL     1      22.850  47.229  48.885  1.00  0.00    -0.180 NA
HETATM    3  C   UNL     1      21.753  47.923  48.773  1.00  0.00     0.153 A 
HETATM    4  C   UNL     1      20.474  47.279  48.655  1.00  0.00     0.028 A 
HETATM    5  C   UNL     1      20.424  45.908  48.662  1.00  0.00     0.116 A 
HETATM    6  N   UNL     1      19.121  45.520  48.549  1.00  0.00    -0.350 N 
HETATM    7  H   UNL     1      18.803  44.560  48.542  1.00  0.00     0.166 HD
HETATM    8  C   UNL     1      18.315  46.636  48.455  1.00  0.00     0.044 A 
HETATM    9  C   UNL     1      19.147  47.761  48.519  1.00  0.00     0.005 A 
HETATM   10  C   UNL     1      16.925  46.731  48.322  1.00  0.00     0.030 A 
HETATM   11  C   UNL     1      16.368  48.011  48.248  1.00  0.00     0.002 A 
HETATM   12  C   UNL     1      17.169  49.149  48.307  1.00  0.00     0.001 A 
HETATM   13  C   UNL     1      18.558  49.039  48.443  1.00  0.00     0.014 A 
HETATM   14  C   UNL     1      21.585  45.080  48.778  1.00  0.00     0.291 A 
HETATM   15  O   UNL     1      21.536  43.854  48.748  1.00  0.00    -0.264 OA
ENDROOT
BRANCH   1  16
HETATM   16  C   UNL     1      24.019  45.091  49.084  1.00  0.00     0.258 C 
BRANCH  16  17
HETATM   17  C   UNL     1      24.504  45.168  50.541  1.00  0.00     0.244 C 
HETATM   18  N   UNL     1      25.672  45.927  50.774  1.00  0.00    -0.320 N 
HETATM   19  C   UNL     1      26.288  46.743  49.733  1.00  0.00     0.159 C 
HETATM   20  O   UNL     1      23.866  44.621  51.447  1.00  0.00    -0.271 OA
BRANCH  18  21
HETATM   21  C   UNL     1      26.330  45.862  52.054  1.00  0.00     0.043 A 
HETATM   22  C   UNL     1      26.113  46.917  52.966  1.00  0.00     0.037 A 
HETATM   23  C   UNL     1      26.648  46.907  54.261  1.00  0.00    -0.060 A 
HETATM   24  C   UNL     1      26.397  48.046  55.205  1.00  0.00     0.048 C 
HETATM   25  C   UNL     1      27.402  45.810  54.668  1.00  0.00     0.007 A 
HETATM   26  C   UNL     1      27.644  44.762  53.782  1.00  0.00     0.009 A 
HETATM   27  C   UNL     1      27.140  44.780  52.465  1.00  0.00    -0.035 A 
HETATM   28  C   UNL     1      27.560  43.651  51.564  1.00  0.00     0.050 C 
ENDBRANCH  18  21
ENDBRANCH  16  17
ENDBRANCH   1  16
TORSDOF 3
ENDMDL
