MODEL 1
REMARK VINA RESULT:     -10.6      0.000      0.000
REMARK  3 active torsions:
REMARK  status: ('A' for Active; 'I' for Inactive)
REMARK    1  A    between atoms: N_3  and  C_4 
REMARK    2  A    between atoms: C_6  and  C_7 
REMARK       I    between atoms: C_7  and  N_8 
REMARK    3  A    between atoms: N_8  and  C_9 
ROOT
HETATM    1  C   UNL     1      25.018  44.521  49.729  1.00  0.00     0.072 C 
HETATM    2  C   UNL     1      25.700  44.788  51.088  1.00  0.00     0.149 C 
HETATM    3  N   UNL     1      25.647  46.216  51.492  1.00  0.00    -0.267 N 
HETATM    4  C   UNL     1      25.588  46.581  52.836  1.00  0.00     0.326 C 
HETATM    5  O   UNL     1      25.625  47.730  53.273  1.00  0.00    -0.247 OA
HETATM    6  N   UNL     1      25.481  45.569  53.745  1.00  0.00    -0.334 N 
HETATM    7  O   UNL     1      27.076  44.368  50.939  1.00  0.00    -0.319 OA
HETATM    8  C   UNL     1      27.718  43.930  52.065  1.00  0.00     0.080 A 
HETATM    9  C   UNL     1      27.085  43.812  53.306  1.00  0.00    -0.002 A 
HETATM   10  C   UNL     1      29.057  43.572  51.921  1.00  0.00     0.037 A 
HETATM   11  C   UNL     1      29.777  43.107  53.022  1.00  0.00     0.003 A 
HETATM   12  C   UNL     1      29.158  43.007  54.268  1.00  0.00     0.001 A 
HETATM   13  C   UNL     1      27.816  43.363  54.412  1.00  0.00     0.012 A 
HETATM   14  C   UNL     1      24.952  43.911  52.102  1.00  0.00     0.092 C 
HETATM   15  C   UNL     1      25.633  44.178  53.421  1.00  0.00     0.127 C 
HETATM   16  H   UNL     1      25.577  45.877  54.704  1.00  0.00     0.165 HD
ENDROOT
BRANCH   3  17
HETATM   17  C   UNL     1      25.798  47.251  50.514  1.00  0.00     0.043 A 
HETATM   18  C   UNL     1      24.695  47.922  49.970  1.00  0.00     0.047 A 
HETATM   19  C   UNL     1      24.885  48.932  49.014  1.00  0.00     0.034 A 
HETATM   20  C   UNL     1      26.177  49.310  48.634  1.00  0.00     0.017 A 
HETATM   21  C   UNL     1      27.277  48.644  49.163  1.00  0.00     0.003 A 
HETATM   22  C   UNL     1      27.085  47.611  50.082  1.00  0.00     0.030 A 
BRANCH  19  23
HETATM   23  C   UNL     1      23.741  49.611  48.350  1.00  0.00     0.252 C 
HETATM   24  N   UNL     1      22.546  49.570  49.039  1.00  0.00    -0.352 N 
HETATM   25  H   UNL     1      22.502  48.973  49.856  1.00  0.00     0.163 HD
HETATM   26  O   UNL     1      23.885  50.095  47.235  1.00  0.00    -0.268 OA
BRANCH  24  27
HETATM   27  C   UNL     1      21.277  49.979  48.468  1.00  0.00     0.084 C 
HETATM   28  C   UNL     1      20.044  49.289  49.053  1.00  0.00     0.025 C 
HETATM   29  C   UNL     1      18.918  50.248  48.702  1.00  0.00     0.002 C 
HETATM   30  C   UNL     1      19.529  51.615  48.969  1.00  0.00     0.002 C 
HETATM   31  C   UNL     1      20.996  51.487  48.561  1.00  0.00     0.025 C 
ENDBRANCH  24  27
ENDBRANCH  19  23
ENDBRANCH   3  17
TORSDOF 3
ENDMDL
MODEL 2
REMARK VINA RESULT:      -8.9      2.315      9.150
REMARK  3 active torsions:
REMARK  status: ('A' for Active; 'I' for Inactive)
REMARK    1  A    between atoms: N_3  and  C_4 
REMARK    2  A    between atoms: C_6  and  C_7 
REMARK       I    between atoms: C_7  and  N_8 
REMARK    3  A    between atoms: N_8  and  C_9 
ROOT
HETATM    1  C   UNL     1      20.904  50.959  50.941  1.00  0.00     0.072 C 
HETATM    2  C   UNL     1      20.085  50.264  49.831  1.00  0.00     0.149 C 
HETATM    3  N   UNL     1      20.840  49.187  49.142  1.00  0.00    -0.267 N 
HETATM    4  C   UNL     1      20.188  48.069  48.626  1.00  0.00     0.326 C 
HETATM    5  O   UNL     1      20.710  47.168  47.970  1.00  0.00    -0.247 OA
HETATM    6  N   UNL     1      18.850  47.968  48.872  1.00  0.00    -0.334 N 
HETATM    7  O   UNL     1      19.728  51.299  48.886  1.00  0.00    -0.319 OA
HETATM    8  C   UNL     1      18.567  51.124  48.182  1.00  0.00     0.080 A 
HETATM    9  C   UNL     1      17.704  50.045  48.393  1.00  0.00    -0.002 A 
HETATM   10  C   UNL     1      18.255  52.102  47.240  1.00  0.00     0.037 A 
HETATM   11  C   UNL     1      17.083  51.998  46.490  1.00  0.00     0.003 A 
HETATM   12  C   UNL     1      16.227  50.913  46.678  1.00  0.00     0.001 A 
HETATM   13  C   UNL     1      16.538  49.935  47.624  1.00  0.00     0.012 A 
HETATM   14  C   UNL     1      18.846  49.691  50.532  1.00  0.00     0.092 C 
HETATM   15  C   UNL     1      18.055  49.023  49.436  1.00  0.00     0.127 C 
HETATM   16  H   UNL     1      18.402  47.215  48.365  1.00  0.00     0.165 HD
ENDROOT
BRANCH   3  17
HETATM   17  C   UNL     1      22.238  49.342  48.870  1.00  0.00     0.043 A 
HETATM   18  C   UNL     1      23.207  48.544  49.492  1.00  0.00     0.047 A 
HETATM   19  C   UNL     1      24.567  48.728  49.198  1.00  0.00     0.034 A 
HETATM   20  C   UNL     1      24.962  49.672  48.246  1.00  0.00     0.017 A 
HETATM   21  C   UNL     1      24.007  50.474  47.629  1.00  0.00     0.003 A 
HETATM   22  C   UNL     1      22.658  50.320  47.954  1.00  0.00     0.030 A 
BRANCH  19  23
HETATM   23  C   UNL     1      25.632  47.961  49.897  1.00  0.00     0.252 C 
HETATM   24  N   UNL     1      25.207  47.188  50.958  1.00  0.00    -0.352 N 
HETATM   25  H   UNL     1      24.251  47.309  51.267  1.00  0.00     0.163 HD
HETATM   26  O   UNL     1      26.800  48.097  49.559  1.00  0.00    -0.268 OA
BRANCH  24  27
HETATM   27  C   UNL     1      26.111  46.545  51.893  1.00  0.00     0.084 C 
HETATM   28  C   UNL     1      26.207  47.204  53.270  1.00  0.00     0.025 C 
HETATM   29  C   UNL     1      26.736  46.082  54.149  1.00  0.00     0.002 C 
HETATM   30  C   UNL     1      25.961  44.866  53.666  1.00  0.00     0.002 C 
HETATM   31  C   UNL     1      25.800  45.063  52.159  1.00  0.00     0.025 C 
ENDBRANCH  24  27
ENDBRANCH  19  23
ENDBRANCH   3  17
TORSDOF 3
ENDMDL
MODEL 3
REMARK VINA RESULT:      -8.7      3.033      9.717
REMARK  3 active torsions:
REMARK  status: ('A' for Active; 'I' for Inactive)
REMARK    1  A    between atoms: N_3  and  C_4 
REMARK    2  A    between atoms: C_6  and  C_7 
REMARK       I    between atoms: C_7  and  N_8 
REMARK    3  A    between atoms: N_8  and  C_9 
ROOT
HETATM    1  C   UNL     1      18.713  48.790  50.703  1.00  0.00     0.072 C 
HETATM    2  C   UNL     1      18.296  48.630  49.224  1.00  0.00     0.149 C 
HETATM    3  N   UNL     1      19.445  48.355  48.325  1.00  0.00    -0.267 N 
HETATM    4  C   UNL     1      19.290  47.579  47.178  1.00  0.00     0.326 C 
HETATM    5  O   UNL     1      20.155  47.363  46.331  1.00  0.00    -0.247 OA
HETATM    6  N   UNL     1      18.066  47.008  46.981  1.00  0.00    -0.334 N 
HETATM    7  O   UNL     1      17.661  49.874  48.848  1.00  0.00    -0.319 OA
HETATM    8  C   UNL     1      16.705  49.813  47.871  1.00  0.00     0.080 A 
HETATM    9  C   UNL     1      16.282  48.613  47.293  1.00  0.00    -0.002 A 
HETATM   10  C   UNL     1      16.132  51.022  47.482  1.00  0.00     0.037 A 
HETATM   11  C   UNL     1      15.143  51.040  46.498  1.00  0.00     0.003 A 
HETATM   12  C   UNL     1      14.732  49.849  45.900  1.00  0.00     0.001 A 
HETATM   13  C   UNL     1      15.303  48.638  46.292  1.00  0.00     0.012 A 
HETATM   14  C   UNL     1      17.300  47.462  49.202  1.00  0.00     0.092 C 
HETATM   15  C   UNL     1      16.899  47.324  47.756  1.00  0.00     0.127 C 
HETATM   16  H   UNL     1      17.967  46.570  46.074  1.00  0.00     0.165 HD
ENDROOT
BRANCH   3  17
HETATM   17  C   UNL     1      20.706  48.999  48.543  1.00  0.00     0.043 A 
HETATM   18  C   UNL     1      21.843  48.285  48.944  1.00  0.00     0.047 A 
HETATM   19  C   UNL     1      23.060  48.953  49.146  1.00  0.00     0.034 A 
HETATM   20  C   UNL     1      23.161  50.326  48.901  1.00  0.00     0.017 A 
HETATM   21  C   UNL     1      22.035  51.044  48.511  1.00  0.00     0.003 A 
HETATM   22  C   UNL     1      20.815  50.386  48.351  1.00  0.00     0.030 A 
BRANCH  19  23
HETATM   23  C   UNL     1      24.268  48.249  49.652  1.00  0.00     0.252 C 
HETATM   24  N   UNL     1      24.024  47.106  50.386  1.00  0.00    -0.352 N 
HETATM   25  H   UNL     1      23.064  46.916  50.644  1.00  0.00     0.163 HD
HETATM   26  O   UNL     1      25.377  48.731  49.462  1.00  0.00    -0.268 OA
BRANCH  24  27
HETATM   27  C   UNL     1      25.046  46.406  51.142  1.00  0.00     0.084 C 
HETATM   28  C   UNL     1      25.465  47.075  52.452  1.00  0.00     0.025 C 
HETATM   29  C   UNL     1      26.074  45.927  53.241  1.00  0.00     0.002 C 
HETATM   30  C   UNL     1      25.129  44.770  52.958  1.00  0.00     0.002 C 
HETATM   31  C   UNL     1      24.684  44.958  51.508  1.00  0.00     0.025 C 
ENDBRANCH  24  27
ENDBRANCH  19  23
ENDBRANCH   3  17
TORSDOF 3
ENDMDL
MODEL 4
REMARK VINA RESULT:      -8.5     10.833     12.324
REMARK  3 active torsions:
REMARK  status: ('A' for Active; 'I' for Inactive)
REMARK    1  A    between atoms: N_3  and  C_4 
REMARK    2  A    between atoms: C_6  and  C_7 
REMARK       I    between atoms: C_7  and  N_8 
REMARK    3  A    between atoms: N_8  and  C_9 
ROOT
HETATM    1  C   UNL     1      27.886  52.577  41.323  1.00  0.00     0.072 C 
HETATM    2  C   UNL     1      29.230  51.985  40.845  1.00  0.00     0.149 C 
HETATM    3  N   UNL     1      29.062  50.909  39.837  1.00  0.00    -0.267 N 
HETATM    4  C   UNL     1      30.019  50.698  38.845  1.00  0.00     0.326 C 
HETATM    5  O   UNL     1      30.013  49.786  38.019  1.00  0.00    -0.247 OA
HETATM    6  N   UNL     1      31.053  51.586  38.787  1.00  0.00    -0.334 N 
HETATM    7  O   UNL     1      29.882  51.461  42.024  1.00  0.00    -0.319 OA
HETATM    8  C   UNL     1      31.251  51.441  42.021  1.00  0.00     0.080 A 
HETATM    9  C   UNL     1      32.017  51.962  40.975  1.00  0.00    -0.002 A 
HETATM   10  C   UNL     1      31.870  50.890  43.141  1.00  0.00     0.037 A 
HETATM   11  C   UNL     1      33.262  50.844  43.216  1.00  0.00     0.003 A 
HETATM   12  C   UNL     1      34.034  51.341  42.166  1.00  0.00     0.001 A 
HETATM   13  C   UNL     1      33.414  51.895  41.045  1.00  0.00     0.012 A 
HETATM   14  C   UNL     1      30.009  53.167  40.250  1.00  0.00     0.092 C 
HETATM   15  C   UNL     1      31.319  52.575  39.795  1.00  0.00     0.127 C 
HETATM   16  H   UNL     1      31.784  51.313  38.143  1.00  0.00     0.165 HD
ENDROOT
BRANCH   3  17
HETATM   17  C   UNL     1      27.983  49.973  39.948  1.00  0.00     0.043 A 
HETATM   18  C   UNL     1      26.740  50.201  39.344  1.00  0.00     0.047 A 
HETATM   19  C   UNL     1      25.708  49.259  39.477  1.00  0.00     0.034 A 
HETATM   20  C   UNL     1      25.929  48.064  40.169  1.00  0.00     0.017 A 
HETATM   21  C   UNL     1      27.157  47.833  40.778  1.00  0.00     0.003 A 
HETATM   22  C   UNL     1      28.169  48.790  40.682  1.00  0.00     0.030 A 
BRANCH  19  23
HETATM   23  C   UNL     1      24.350  49.499  38.924  1.00  0.00     0.252 C 
HETATM   24  N   UNL     1      23.496  50.214  39.739  1.00  0.00    -0.352 N 
HETATM   25  H   UNL     1      23.800  50.392  40.688  1.00  0.00     0.163 HD
HETATM   26  O   UNL     1      24.037  49.013  37.845  1.00  0.00    -0.268 OA
BRANCH  24  27
HETATM   27  C   UNL     1      22.076  50.363  39.478  1.00  0.00     0.084 C 
HETATM   28  C   UNL     1      21.209  49.168  39.874  1.00  0.00     0.025 C 
HETATM   29  C   UNL     1      19.824  49.781  40.007  1.00  0.00     0.002 C 
HETATM   30  C   UNL     1      20.095  51.104  40.706  1.00  0.00     0.002 C 
HETATM   31  C   UNL     1      21.433  51.588  40.148  1.00  0.00     0.025 C 
ENDBRANCH  24  27
ENDBRANCH  19  23
ENDBRANCH   3  17
TORSDOF 3
ENDMDL
MODEL 5
REMARK VINA RESULT:      -8.4      2.912      9.752
REMARK  3 active torsions:
REMARK  status: ('A' for Active; 'I' for Inactive)
REMARK    1  A    between atoms: N_3  and  C_4 
REMARK    2  A    between atoms: C_6  and  C_7 
REMARK       I    between atoms: C_7  and  N_8 
REMARK    3  A    between atoms: N_8  and  C_9 
ROOT
HETATM    1  C   UNL     1      21.774  50.893  48.167  1.00  0.00     0.072 C 
HETATM    2  C   UNL     1      20.264  50.669  48.404  1.00  0.00     0.149 C 
HETATM    3  N   UNL     1      19.944  49.281  48.821  1.00  0.00    -0.267 N 
HETATM    4  C   UNL     1      18.867  49.014  49.666  1.00  0.00     0.326 C 
HETATM    5  O   UNL     1      18.472  47.899  50.001  1.00  0.00    -0.247 OA
HETATM    6  N   UNL     1      18.195  50.092  50.164  1.00  0.00    -0.334 N 
HETATM    7  O   UNL     1      19.610  50.972  47.150  1.00  0.00    -0.319 OA
HETATM    8  C   UNL     1      18.324  51.435  47.216  1.00  0.00     0.080 A 
HETATM    9  C   UNL     1      17.666  51.687  48.423  1.00  0.00    -0.002 A 
HETATM   10  C   UNL     1      17.685  51.679  46.002  1.00  0.00     0.037 A 
HETATM   11  C   UNL     1      16.376  52.162  45.987  1.00  0.00     0.003 A 
HETATM   12  C   UNL     1      15.705  52.395  47.188  1.00  0.00     0.001 A 
HETATM   13  C   UNL     1      16.345  52.153  48.404  1.00  0.00     0.012 A 
HETATM   14  C   UNL     1      19.867  51.668  49.500  1.00  0.00     0.092 C 
HETATM   15  C   UNL     1      18.392  51.441  49.714  1.00  0.00     0.127 C 
HETATM   16  H   UNL     1      17.347  49.844  50.659  1.00  0.00     0.165 HD
ENDROOT
BRANCH   3  17
HETATM   17  C   UNL     1      20.648  48.172  48.251  1.00  0.00     0.043 A 
HETATM   18  C   UNL     1      21.658  47.498  48.949  1.00  0.00     0.047 A 
HETATM   19  C   UNL     1      22.325  46.415  48.355  1.00  0.00     0.034 A 
HETATM   20  C   UNL     1      21.953  45.969  47.083  1.00  0.00     0.017 A 
HETATM   21  C   UNL     1      20.957  46.638  46.379  1.00  0.00     0.003 A 
HETATM   22  C   UNL     1      20.324  47.741  46.954  1.00  0.00     0.030 A 
BRANCH  19  23
HETATM   23  C   UNL     1      23.458  45.726  49.027  1.00  0.00     0.252 C 
HETATM   24  N   UNL     1      23.800  46.220  50.269  1.00  0.00    -0.352 N 
HETATM   25  H   UNL     1      23.362  47.085  50.562  1.00  0.00     0.163 HD
HETATM   26  O   UNL     1      24.058  44.833  48.444  1.00  0.00    -0.268 OA
BRANCH  24  27
HETATM   27  C   UNL     1      25.002  45.832  50.983  1.00  0.00     0.084 C 
HETATM   28  C   UNL     1      25.550  46.875  51.959  1.00  0.00     0.025 C 
HETATM   29  C   UNL     1      26.402  46.043  52.904  1.00  0.00     0.002 C 
HETATM   30  C   UNL     1      25.559  44.798  53.129  1.00  0.00     0.002 C 
HETATM   31  C   UNL     1      24.868  44.532  51.792  1.00  0.00     0.025 C 
ENDBRANCH  24  27
ENDBRANCH  19  23
ENDBRANCH   3  17
TORSDOF 3
ENDMDL
MODEL 6
REMARK VINA RESULT:      -8.3      3.206     10.395
REMARK  3 active torsions:
REMARK  status: ('A' for Active; 'I' for Inactive)
REMARK    1  A    between atoms: N_3  and  C_4 
REMARK    2  A    between atoms: C_6  and  C_7 
REMARK       I    between atoms: C_7  and  N_8 
REMARK    3  A    between atoms: N_8  and  C_9 
ROOT
HETATM    1  C   UNL     1      18.050  48.447  49.990  1.00  0.00     0.072 C 
HETATM    2  C   UNL     1      17.695  49.597  49.022  1.00  0.00     0.149 C 
HETATM    3  N   UNL     1      18.748  49.843  48.005  1.00  0.00    -0.267 N 
HETATM    4  C   UNL     1      18.423  50.310  46.732  1.00  0.00     0.326 C 
HETATM    5  O   UNL     1      19.224  50.622  45.852  1.00  0.00    -0.247 OA
HETATM    6  N   UNL     1      17.095  50.430  46.441  1.00  0.00    -0.334 N 
HETATM    7  O   UNL     1      17.515  50.775  49.842  1.00  0.00    -0.319 OA
HETATM    8  C   UNL     1      16.651  51.729  49.379  1.00  0.00     0.080 A 
HETATM    9  C   UNL     1      15.903  51.575  48.208  1.00  0.00    -0.002 A 
HETATM   10  C   UNL     1      16.520  52.881  50.152  1.00  0.00     0.037 A 
HETATM   11  C   UNL     1      15.650  53.895  49.750  1.00  0.00     0.003 A 
HETATM   12  C   UNL     1      14.917  53.759  48.571  1.00  0.00     0.001 A 
HETATM   13  C   UNL     1      15.045  52.604  47.798  1.00  0.00     0.012 A 
HETATM   14  C   UNL     1      16.381  49.176  48.349  1.00  0.00     0.092 C 
HETATM   15  C   UNL     1      16.045  50.309  47.413  1.00  0.00     0.127 C 
HETATM   16  H   UNL     1      16.916  50.897  45.561  1.00  0.00     0.165 HD
ENDROOT
BRANCH   3  17
HETATM   17  C   UNL     1      20.133  49.740  48.356  1.00  0.00     0.043 A 
HETATM   18  C   UNL     1      20.811  48.515  48.341  1.00  0.00     0.047 A 
HETATM   19  C   UNL     1      22.169  48.456  48.692  1.00  0.00     0.034 A 
HETATM   20  C   UNL     1      22.867  49.626  49.010  1.00  0.00     0.017 A 
HETATM   21  C   UNL     1      22.199  50.845  49.034  1.00  0.00     0.003 A 
HETATM   22  C   UNL     1      20.838  50.897  48.727  1.00  0.00     0.030 A 
BRANCH  19  23
HETATM   23  C   UNL     1      22.905  47.167  48.771  1.00  0.00     0.252 C 
HETATM   24  N   UNL     1      23.758  47.036  49.847  1.00  0.00    -0.352 N 
HETATM   25  H   UNL     1      23.926  47.861  50.409  1.00  0.00     0.163 HD
HETATM   26  O   UNL     1      22.781  46.340  47.877  1.00  0.00    -0.268 OA
BRANCH  24  27
HETATM   27  C   UNL     1      24.718  45.957  49.982  1.00  0.00     0.084 C 
HETATM   28  C   UNL     1      26.175  46.338  49.714  1.00  0.00     0.025 C 
HETATM   29  C   UNL     1      26.951  45.245  50.431  1.00  0.00     0.002 C 
HETATM   30  C   UNL     1      26.179  45.064  51.729  1.00  0.00     0.002 C 
HETATM   31  C   UNL     1      24.711  45.270  51.357  1.00  0.00     0.025 C 
ENDBRANCH  24  27
ENDBRANCH  19  23
ENDBRANCH   3  17
TORSDOF 3
ENDMDL
MODEL 7
REMARK VINA RESULT:      -7.6      2.144      3.000
REMARK  3 active torsions:
REMARK  status: ('A' for Active; 'I' for Inactive)
REMARK    1  A    between atoms: N_3  and  C_4 
REMARK    2  A    between atoms: C_6  and  C_7 
REMARK       I    between atoms: C_7  and  N_8 
REMARK    3  A    between atoms: N_8  and  C_9 
ROOT
HETATM    1  C   UNL     1      25.140  43.829  53.983  1.00  0.00     0.072 C 
HETATM    2  C   UNL     1      26.428  44.661  54.172  1.00  0.00     0.149 C 
HETATM    3  N   UNL     1      26.539  45.782  53.206  1.00  0.00    -0.267 N 
HETATM    4  C   UNL     1      27.187  46.967  53.552  1.00  0.00     0.326 C 
HETATM    5  O   UNL     1      27.402  47.917  52.800  1.00  0.00    -0.247 OA
HETATM    6  N   UNL     1      27.618  47.079  54.841  1.00  0.00    -0.334 N 
HETATM    7  O   UNL     1      27.530  43.742  53.992  1.00  0.00    -0.319 OA
HETATM    8  C   UNL     1      28.689  44.024  54.663  1.00  0.00     0.080 A 
HETATM    9  C   UNL     1      28.815  45.099  55.548  1.00  0.00    -0.002 A 
HETATM   10  C   UNL     1      29.761  43.161  54.447  1.00  0.00     0.037 A 
HETATM   11  C   UNL     1      30.973  43.376  55.104  1.00  0.00     0.003 A 
HETATM   12  C   UNL     1      31.114  44.459  55.971  1.00  0.00     0.001 A 
HETATM   13  C   UNL     1      30.040  45.323  56.190  1.00  0.00     0.012 A 
HETATM   14  C   UNL     1      26.367  45.191  55.611  1.00  0.00     0.092 C 
HETATM   15  C   UNL     1      27.632  45.993  55.781  1.00  0.00     0.127 C 
HETATM   16  H   UNL     1      28.196  47.894  55.003  1.00  0.00     0.165 HD
ENDROOT
BRANCH   3  17
HETATM   17  C   UNL     1      26.106  45.617  51.850  1.00  0.00     0.043 A 
HETATM   18  C   UNL     1      25.010  46.319  51.332  1.00  0.00     0.047 A 
HETATM   19  C   UNL     1      24.618  46.129  49.998  1.00  0.00     0.034 A 
HETATM   20  C   UNL     1      25.347  45.277  49.162  1.00  0.00     0.017 A 
HETATM   21  C   UNL     1      26.431  44.570  49.671  1.00  0.00     0.003 A 
HETATM   22  C   UNL     1      26.795  44.727  51.010  1.00  0.00     0.030 A 
BRANCH  19  23
HETATM   23  C   UNL     1      23.412  46.789  49.432  1.00  0.00     0.252 C 
HETATM   24  N   UNL     1      23.356  48.159  49.591  1.00  0.00    -0.352 N 
HETATM   25  H   UNL     1      24.050  48.585  50.192  1.00  0.00     0.163 HD
HETATM   26  O   UNL     1      22.524  46.110  48.933  1.00  0.00    -0.268 OA
BRANCH  24  27
HETATM   27  C   UNL     1      22.175  48.951  49.306  1.00  0.00     0.084 C 
HETATM   28  C   UNL     1      22.225  50.400  49.794  1.00  0.00     0.025 C 
HETATM   29  C   UNL     1      21.185  51.089  48.925  1.00  0.00     0.002 C 
HETATM   30  C   UNL     1      21.420  50.480  47.552  1.00  0.00     0.002 C 
HETATM   31  C   UNL     1      21.803  49.024  47.817  1.00  0.00     0.025 C 
ENDBRANCH  24  27
ENDBRANCH  19  23
ENDBRANCH   3  17
TORSDOF 3
ENDMDL
MODEL 8
REMARK VINA RESULT:      -7.6      5.281      8.600
REMARK  3 active torsions:
REMARK  status: ('A' for Active; 'I' for Inactive)
REMARK    1  A    between atoms: N_3  and  C_4 
REMARK    2  A    between atoms: C_6  and  C_7 
REMARK       I    between atoms: C_7  and  N_8 
REMARK    3  A    between atoms: N_8  and  C_9 
ROOT
HETATM    1  C   UNL     1      18.944  48.505  45.722  1.00  0.00     0.072 C 
HETATM    2  C   UNL     1      19.774  48.379  47.018  1.00  0.00     0.149 C 
HETATM    3  N   UNL     1      18.937  48.373  48.244  1.00  0.00    -0.267 N 
HETATM    4  C   UNL     1      19.329  47.664  49.378  1.00  0.00     0.326 C 
HETATM    5  O   UNL     1      18.750  47.663  50.463  1.00  0.00    -0.247 OA
HETATM    6  N   UNL     1      20.456  46.903  49.270  1.00  0.00    -0.334 N 
HETATM    7  O   UNL     1      20.668  49.516  47.036  1.00  0.00    -0.319 OA
HETATM    8  C   UNL     1      21.863  49.357  47.684  1.00  0.00     0.080 A 
HETATM    9  C   UNL     1      22.266  48.144  48.251  1.00  0.00    -0.002 A 
HETATM   10  C   UNL     1      22.697  50.471  47.737  1.00  0.00     0.037 A 
HETATM   11  C   UNL     1      23.937  50.384  48.373  1.00  0.00     0.003 A 
HETATM   12  C   UNL     1      24.337  49.185  48.961  1.00  0.00     0.001 A 
HETATM   13  C   UNL     1      23.502  48.067  48.905  1.00  0.00     0.012 A 
HETATM   14  C   UNL     1      20.546  47.059  46.883  1.00  0.00     0.092 C 
HETATM   15  C   UNL     1      21.356  46.954  48.151  1.00  0.00     0.127 C 
HETATM   16  H   UNL     1      20.770  46.519  50.152  1.00  0.00     0.165 HD
ENDROOT
BRANCH   3  17
HETATM   17  C   UNL     1      17.779  49.211  48.334  1.00  0.00     0.043 A 
HETATM   18  C   UNL     1      17.826  50.478  48.928  1.00  0.00     0.047 A 
HETATM   19  C   UNL     1      16.668  51.269  48.997  1.00  0.00     0.034 A 
HETATM   20  C   UNL     1      15.472  50.819  48.429  1.00  0.00     0.017 A 
HETATM   21  C   UNL     1      15.414  49.558  47.845  1.00  0.00     0.003 A 
HETATM   22  C   UNL     1      16.556  48.755  47.815  1.00  0.00     0.030 A 
BRANCH  19  23
HETATM   23  C   UNL     1      16.655  52.583  49.692  1.00  0.00     0.252 C 
HETATM   24  N   UNL     1      15.404  53.122  49.916  1.00  0.00    -0.352 N 
HETATM   25  H   UNL     1      14.616  52.666  49.474  1.00  0.00     0.163 HD
HETATM   26  O   UNL     1      17.711  53.139  49.962  1.00  0.00    -0.268 OA
BRANCH  24  27
HETATM   27  C   UNL     1      15.189  54.480  50.378  1.00  0.00     0.084 C 
HETATM   28  C   UNL     1      14.489  55.407  49.382  1.00  0.00     0.025 C 
HETATM   29  C   UNL     1      13.928  56.503  50.274  1.00  0.00     0.002 C 
HETATM   30  C   UNL     1      13.402  55.738  51.478  1.00  0.00     0.002 C 
HETATM   31  C   UNL     1      14.386  54.586  51.684  1.00  0.00     0.025 C 
ENDBRANCH  24  27
ENDBRANCH  19  23
ENDBRANCH   3  17
TORSDOF 3
ENDMDL
