MODEL 1
REMARK VINA RESULT:      -9.2      0.000      0.000
REMARK  1 active torsions:
REMARK  status: ('A' for Active; 'I' for Inactive)
REMARK    1  A    between atoms: C_8  and  C_9 
ROOT
HETATM    1  C   UNL     1      20.871  46.731  45.889  1.00  0.00     0.073 C 
HETATM    2  C   UNL     1      20.390  46.674  47.294  1.00  0.00     0.062 C 
HETATM    3  N   UNL     1      20.094  45.487  47.833  1.00  0.00    -0.178 NA
HETATM    4  N   UNL     1      19.757  45.783  49.091  1.00  0.00    -0.262 N 
HETATM    5  H   UNL     1      19.503  45.020  49.706  1.00  0.00     0.191 HD
HETATM    6  C   UNL     1      19.694  47.127  49.343  1.00  0.00     0.134 C 
HETATM    7  C   UNL     1      20.206  47.754  48.224  1.00  0.00     0.032 C 
HETATM    8  C   UNL     1      20.576  49.183  47.969  1.00  0.00     0.119 C 
HETATM    9  S   UNL     1      19.787  50.530  48.896  1.00  0.00    -0.141 SA
HETATM   10  C   UNL     1      18.329  49.765  49.647  1.00  0.00     0.136 C 
HETATM   11  C   UNL     1      17.290  49.236  48.665  1.00  0.00     0.031 C 
HETATM   12  C   UNL     1      18.685  48.815  50.783  1.00  0.00     0.236 C 
HETATM   13  O   UNL     1      18.407  49.096  51.955  1.00  0.00    -0.272 OA
HETATM   14  N   UNL     1      19.215  47.581  50.544  1.00  0.00    -0.311 N 
HETATM   15  H   UNL     1      19.179  46.964  51.347  1.00  0.00     0.170 HD
ENDROOT
BRANCH   8  16
HETATM   16  C   UNL     1      22.090  49.238  48.177  1.00  0.00    -0.039 A 
HETATM   17  C   UNL     1      22.764  48.289  48.973  1.00  0.00     0.021 A 
HETATM   18  C   UNL     1      24.152  48.347  49.180  1.00  0.00    -0.025 A 
HETATM   19  C   UNL     1      24.896  49.379  48.571  1.00  0.00    -0.026 A 
HETATM   20  C   UNL     1      24.810  47.402  49.984  1.00  0.00     0.012 A 
HETATM   21  C   UNL     1      24.232  50.328  47.779  1.00  0.00     0.013 A 
HETATM   22  C   UNL     1      26.285  49.436  48.780  1.00  0.00     0.012 A 
HETATM   23  C   UNL     1      22.847  50.263  47.589  1.00  0.00     0.009 A 
HETATM   24  C   UNL     1      26.926  48.489  49.582  1.00  0.00     0.001 A 
HETATM   25  C   UNL     1      26.189  47.475  50.184  1.00  0.00     0.001 A 
ENDBRANCH   8  16
TORSDOF 1
ENDMDL
MODEL 2
REMARK VINA RESULT:      -8.8      6.136      8.564
REMARK  1 active torsions:
REMARK  status: ('A' for Active; 'I' for Inactive)
REMARK    1  A    between atoms: C_8  and  C_9 
ROOT
HETATM    1  C   UNL     1      25.708  47.463  53.250  1.00  0.00     0.073 C 
HETATM    2  C   UNL     1      25.979  46.861  51.918  1.00  0.00     0.062 C 
HETATM    3  N   UNL     1      26.347  47.656  50.908  1.00  0.00    -0.178 NA
HETATM    4  N   UNL     1      26.561  46.809  49.898  1.00  0.00    -0.262 N 
HETATM    5  H   UNL     1      26.870  47.194  49.013  1.00  0.00     0.191 HD
HETATM    6  C   UNL     1      26.216  45.515  50.179  1.00  0.00     0.134 C 
HETATM    7  C   UNL     1      25.929  45.478  51.530  1.00  0.00     0.032 C 
HETATM    8  C   UNL     1      25.682  44.331  52.461  1.00  0.00     0.119 C 
HETATM    9  S   UNL     1      25.046  42.748  51.840  1.00  0.00    -0.141 SA
HETATM   10  C   UNL     1      24.416  43.132  50.188  1.00  0.00     0.136 C 
HETATM   11  C   UNL     1      23.259  44.122  50.143  1.00  0.00     0.031 C 
HETATM   12  C   UNL     1      25.532  43.399  49.184  1.00  0.00     0.236 C 
HETATM   13  O   UNL     1      25.760  42.603  48.265  1.00  0.00    -0.272 OA
HETATM   14  N   UNL     1      26.238  44.565  49.193  1.00  0.00    -0.311 N 
HETATM   15  H   UNL     1      26.770  44.721  48.344  1.00  0.00     0.170 HD
ENDROOT
BRANCH   8  16
HETATM   16  C   UNL     1      27.019  44.104  53.166  1.00  0.00    -0.039 A 
HETATM   17  C   UNL     1      27.414  44.880  54.275  1.00  0.00     0.021 A 
HETATM   18  C   UNL     1      28.649  44.685  54.914  1.00  0.00    -0.025 A 
HETATM   19  C   UNL     1      29.520  43.682  54.439  1.00  0.00    -0.026 A 
HETATM   20  C   UNL     1      29.036  45.472  56.012  1.00  0.00     0.012 A 
HETATM   21  C   UNL     1      29.135  42.908  53.334  1.00  0.00     0.013 A 
HETATM   22  C   UNL     1      30.756  43.489  55.079  1.00  0.00     0.012 A 
HETATM   23  C   UNL     1      27.904  43.119  52.702  1.00  0.00     0.009 A 
HETATM   24  C   UNL     1      31.126  44.279  56.170  1.00  0.00     0.001 A 
HETATM   25  C   UNL     1      30.267  45.269  56.634  1.00  0.00     0.001 A 
ENDBRANCH   8  16
TORSDOF 1
ENDMDL
MODEL 3
REMARK VINA RESULT:      -8.2     11.887     13.646
REMARK  1 active torsions:
REMARK  status: ('A' for Active; 'I' for Inactive)
REMARK    1  A    between atoms: C_8  and  C_9 
ROOT
HETATM    1  C   UNL     1      30.212  53.327  40.487  1.00  0.00     0.073 C 
HETATM    2  C   UNL     1      30.607  52.051  39.835  1.00  0.00     0.062 C 
HETATM    3  N   UNL     1      30.873  52.044  38.525  1.00  0.00    -0.178 NA
HETATM    4  N   UNL     1      31.243  50.785  38.281  1.00  0.00    -0.262 N 
HETATM    5  H   UNL     1      31.510  50.543  37.334  1.00  0.00     0.191 HD
HETATM    6  C   UNL     1      31.097  49.949  39.355  1.00  0.00     0.134 C 
HETATM    7  C   UNL     1      30.785  50.755  40.432  1.00  0.00     0.032 C 
HETATM    8  C   UNL     1      30.696  50.463  41.898  1.00  0.00     0.119 C 
HETATM    9  S   UNL     1      30.332  48.787  42.494  1.00  0.00    -0.141 SA
HETATM   10  C   UNL     1      29.693  47.921  41.039  1.00  0.00     0.136 C 
HETATM   11  C   UNL     1      28.397  48.478  40.464  1.00  0.00     0.031 C 
HETATM   12  C   UNL     1      30.779  47.624  40.011  1.00  0.00     0.236 C 
HETATM   13  O   UNL     1      31.152  46.463  39.803  1.00  0.00    -0.272 OA
HETATM   14  N   UNL     1      31.293  48.601  39.211  1.00  0.00    -0.311 N 
HETATM   15  H   UNL     1      31.816  48.241  38.421  1.00  0.00     0.170 HD
ENDROOT
BRANCH   8  16
HETATM   16  C   UNL     1      32.034  50.930  42.472  1.00  0.00    -0.039 A 
HETATM   17  C   UNL     1      33.254  50.668  41.816  1.00  0.00     0.021 A 
HETATM   18  C   UNL     1      34.486  51.080  42.349  1.00  0.00    -0.025 A 
HETATM   19  C   UNL     1      34.507  51.782  43.573  1.00  0.00    -0.026 A 
HETATM   20  C   UNL     1      35.696  50.804  41.691  1.00  0.00     0.012 A 
HETATM   21  C   UNL     1      33.296  52.044  44.233  1.00  0.00     0.013 A 
HETATM   22  C   UNL     1      35.741  52.194  44.105  1.00  0.00     0.012 A 
HETATM   23  C   UNL     1      32.077  51.620  43.694  1.00  0.00     0.009 A 
HETATM   24  C   UNL     1      36.935  51.911  43.439  1.00  0.00     0.001 A 
HETATM   25  C   UNL     1      36.912  51.216  42.235  1.00  0.00     0.001 A 
ENDBRANCH   8  16
TORSDOF 1
ENDMDL
MODEL 4
REMARK VINA RESULT:      -8.0      2.609      3.528
REMARK  1 active torsions:
REMARK  status: ('A' for Active; 'I' for Inactive)
REMARK    1  A    between atoms: C_8  and  C_9 
ROOT
HETATM    1  C   UNL     1      19.908  51.260  50.312  1.00  0.00     0.073 C 
HETATM    2  C   UNL     1      19.548  50.779  48.952  1.00  0.00     0.062 C 
HETATM    3  N   UNL     1      18.899  51.602  48.122  1.00  0.00    -0.178 NA
HETATM    4  N   UNL     1      18.786  50.895  46.996  1.00  0.00    -0.262 N 
HETATM    5  H   UNL     1      18.330  51.332  46.204  1.00  0.00     0.191 HD
HETATM    6  C   UNL     1      19.216  49.601  47.111  1.00  0.00     0.134 C 
HETATM    7  C   UNL     1      19.826  49.506  48.347  1.00  0.00     0.032 C 
HETATM    8  C   UNL     1      20.652  48.421  48.966  1.00  0.00     0.119 C 
HETATM    9  S   UNL     1      20.459  46.692  48.446  1.00  0.00    -0.141 SA
HETATM   10  C   UNL     1      18.888  46.665  47.547  1.00  0.00     0.136 C 
HETATM   11  C   UNL     1      17.657  47.019  48.372  1.00  0.00     0.031 C 
HETATM   12  C   UNL     1      18.977  47.356  46.192  1.00  0.00     0.236 C 
HETATM   13  O   UNL     1      18.907  46.705  45.143  1.00  0.00    -0.272 OA
HETATM   14  N   UNL     1      19.022  48.715  46.085  1.00  0.00    -0.311 N 
HETATM   15  H   UNL     1      18.835  49.051  45.147  1.00  0.00     0.170 HD
ENDROOT
BRANCH   8  16
HETATM   16  C   UNL     1      22.101  48.860  48.751  1.00  0.00    -0.039 A 
HETATM   17  C   UNL     1      23.180  48.170  49.341  1.00  0.00     0.021 A 
HETATM   18  C   UNL     1      24.510  48.581  49.160  1.00  0.00    -0.025 A 
HETATM   19  C   UNL     1      24.779  49.713  48.362  1.00  0.00    -0.026 A 
HETATM   20  C   UNL     1      25.576  47.891  49.761  1.00  0.00     0.012 A 
HETATM   21  C   UNL     1      23.710  50.406  47.774  1.00  0.00     0.013 A 
HETATM   22  C   UNL     1      26.111  50.123  48.182  1.00  0.00     0.012 A 
HETATM   23  C   UNL     1      22.389  49.990  47.970  1.00  0.00     0.009 A 
HETATM   24  C   UNL     1      27.160  49.427  48.786  1.00  0.00     0.001 A 
HETATM   25  C   UNL     1      26.892  48.313  49.575  1.00  0.00     0.001 A 
ENDBRANCH   8  16
TORSDOF 1
ENDMDL
MODEL 5
REMARK VINA RESULT:      -7.9      6.114      8.392
REMARK  1 active torsions:
REMARK  status: ('A' for Active; 'I' for Inactive)
REMARK    1  A    between atoms: C_8  and  C_9 
ROOT
HETATM    1  C   UNL     1      26.333  47.890  50.912  1.00  0.00     0.073 C 
HETATM    2  C   UNL     1      26.579  46.502  50.441  1.00  0.00     0.062 C 
HETATM    3  N   UNL     1      27.240  46.312  49.295  1.00  0.00    -0.178 NA
HETATM    4  N   UNL     1      27.337  44.983  49.199  1.00  0.00    -0.262 N 
HETATM    5  H   UNL     1      27.824  44.599  48.398  1.00  0.00     0.191 HD
HETATM    6  C   UNL     1      26.645  44.309  50.169  1.00  0.00     0.134 C 
HETATM    7  C   UNL     1      26.219  45.262  51.073  1.00  0.00     0.032 C 
HETATM    8  C   UNL     1      25.592  45.136  52.427  1.00  0.00     0.119 C 
HETATM    9  S   UNL     1      24.643  43.656  52.880  1.00  0.00    -0.141 SA
HETATM   10  C   UNL     1      24.308  42.836  51.302  1.00  0.00     0.136 C 
HETATM   11  C   UNL     1      23.452  43.628  50.322  1.00  0.00     0.031 C 
HETATM   12  C   UNL     1      25.553  42.196  50.699  1.00  0.00     0.236 C 
HETATM   13  O   UNL     1      25.665  40.966  50.637  1.00  0.00    -0.272 OA
HETATM   14  N   UNL     1      26.528  42.945  50.110  1.00  0.00    -0.311 N 
HETATM   15  H   UNL     1      27.168  42.400  49.543  1.00  0.00     0.170 HD
ENDROOT
BRANCH   8  16
HETATM   16  C   UNL     1      26.747  45.324  53.412  1.00  0.00    -0.039 A 
HETATM   17  C   UNL     1      27.715  44.319  53.620  1.00  0.00     0.021 A 
HETATM   18  C   UNL     1      28.766  44.482  54.536  1.00  0.00    -0.025 A 
HETATM   19  C   UNL     1      28.863  45.684  55.268  1.00  0.00    -0.026 A 
HETATM   20  C   UNL     1      29.718  43.470  54.741  1.00  0.00     0.012 A 
HETATM   21  C   UNL     1      27.902  46.687  55.068  1.00  0.00     0.013 A 
HETATM   22  C   UNL     1      29.916  45.844  56.185  1.00  0.00     0.012 A 
HETATM   23  C   UNL     1      26.855  46.508  54.157  1.00  0.00     0.009 A 
HETATM   24  C   UNL     1      30.855  44.829  56.378  1.00  0.00     0.001 A 
HETATM   25  C   UNL     1      30.755  43.643  55.658  1.00  0.00     0.001 A 
ENDBRANCH   8  16
TORSDOF 1
ENDMDL
MODEL 6
REMARK VINA RESULT:      -7.9      2.625      6.046
REMARK  1 active torsions:
REMARK  status: ('A' for Active; 'I' for Inactive)
REMARK    1  A    between atoms: C_8  and  C_9 
ROOT
HETATM    1  C   UNL     1      23.092  50.349  47.584  1.00  0.00     0.073 C 
HETATM    2  C   UNL     1      22.544  49.111  48.199  1.00  0.00     0.062 C 
HETATM    3  N   UNL     1      23.221  48.524  49.191  1.00  0.00    -0.178 NA
HETATM    4  N   UNL     1      22.442  47.498  49.545  1.00  0.00    -0.262 N 
HETATM    5  H   UNL     1      22.753  46.907  50.306  1.00  0.00     0.191 HD
HETATM    6  C   UNL     1      21.357  47.323  48.729  1.00  0.00     0.134 C 
HETATM    7  C   UNL     1      21.320  48.423  47.894  1.00  0.00     0.032 C 
HETATM    8  C   UNL     1      20.280  48.902  46.930  1.00  0.00     0.119 C 
HETATM    9  S   UNL     1      19.111  47.741  46.166  1.00  0.00    -0.141 SA
HETATM   10  C   UNL     1      19.840  46.111  46.461  1.00  0.00     0.136 C 
HETATM   11  C   UNL     1      21.194  45.871  45.805  1.00  0.00     0.031 C 
HETATM   12  C   UNL     1      19.746  45.683  47.921  1.00  0.00     0.236 C 
HETATM   13  O   UNL     1      19.002  44.756  48.262  1.00  0.00    -0.272 OA
HETATM   14  N   UNL     1      20.554  46.223  48.877  1.00  0.00    -0.311 N 
HETATM   15  H   UNL     1      20.565  45.693  49.742  1.00  0.00     0.170 HD
ENDROOT
BRANCH   8  16
HETATM   16  C   UNL     1      19.506  49.979  47.691  1.00  0.00    -0.039 A 
HETATM   17  C   UNL     1      18.107  49.911  47.853  1.00  0.00     0.021 A 
HETATM   18  C   UNL     1      17.391  50.907  48.536  1.00  0.00    -0.025 A 
HETATM   19  C   UNL     1      18.088  52.005  49.082  1.00  0.00    -0.026 A 
HETATM   20  C   UNL     1      15.996  50.834  48.683  1.00  0.00     0.012 A 
HETATM   21  C   UNL     1      19.481  52.080  48.923  1.00  0.00     0.013 A 
HETATM   22  C   UNL     1      17.370  53.001  49.766  1.00  0.00     0.012 A 
HETATM   23  C   UNL     1      20.180  51.085  48.232  1.00  0.00     0.009 A 
HETATM   24  C   UNL     1      15.983  52.915  49.903  1.00  0.00     0.001 A 
HETATM   25  C   UNL     1      15.297  51.833  49.361  1.00  0.00     0.001 A 
ENDBRANCH   8  16
TORSDOF 1
ENDMDL
MODEL 7
REMARK VINA RESULT:      -7.8     11.796     13.141
REMARK  1 active torsions:
REMARK  status: ('A' for Active; 'I' for Inactive)
REMARK    1  A    between atoms: C_8  and  C_9 
ROOT
HETATM    1  C   UNL     1      31.331  48.800  42.775  1.00  0.00     0.073 C 
HETATM    2  C   UNL     1      31.422  49.649  41.558  1.00  0.00     0.062 C 
HETATM    3  N   UNL     1      32.611  50.144  41.198  1.00  0.00    -0.178 NA
HETATM    4  N   UNL     1      32.354  50.795  40.061  1.00  0.00    -0.262 N 
HETATM    5  H   UNL     1      33.127  51.247  39.587  1.00  0.00     0.191 HD
HETATM    6  C   UNL     1      31.023  50.852  39.746  1.00  0.00     0.134 C 
HETATM    7  C   UNL     1      30.379  50.021  40.642  1.00  0.00     0.032 C 
HETATM    8  C   UNL     1      28.969  49.519  40.693  1.00  0.00     0.119 C 
HETATM    9  S   UNL     1      27.617  50.457  39.926  1.00  0.00    -0.141 SA
HETATM   10  C   UNL     1      28.314  52.104  39.648  1.00  0.00     0.136 C 
HETATM   11  C   UNL     1      28.721  52.862  40.905  1.00  0.00     0.031 C 
HETATM   12  C   UNL     1      29.342  52.122  38.522  1.00  0.00     0.236 C 
HETATM   13  O   UNL     1      29.099  52.694  37.453  1.00  0.00    -0.272 OA
HETATM   14  N   UNL     1      30.596  51.614  38.691  1.00  0.00    -0.311 N 
HETATM   15  H   UNL     1      31.247  51.901  37.970  1.00  0.00     0.170 HD
ENDROOT
BRANCH   8  16
HETATM   16  C   UNL     1      29.030  48.118  40.083  1.00  0.00    -0.039 A 
HETATM   17  C   UNL     1      28.313  47.037  40.636  1.00  0.00     0.021 A 
HETATM   18  C   UNL     1      28.381  45.746  40.088  1.00  0.00    -0.025 A 
HETATM   19  C   UNL     1      29.183  45.522  38.950  1.00  0.00    -0.026 A 
HETATM   20  C   UNL     1      27.670  44.674  40.654  1.00  0.00     0.012 A 
HETATM   21  C   UNL     1      29.901  46.593  38.396  1.00  0.00     0.013 A 
HETATM   22  C   UNL     1      29.249  44.228  38.403  1.00  0.00     0.012 A 
HETATM   23  C   UNL     1      29.831  47.872  38.957  1.00  0.00     0.009 A 
HETATM   24  C   UNL     1      28.537  43.173  38.976  1.00  0.00     0.001 A 
HETATM   25  C   UNL     1      27.750  43.396  40.101  1.00  0.00     0.001 A 
ENDBRANCH   8  16
TORSDOF 1
ENDMDL
MODEL 8
REMARK VINA RESULT:      -7.8     22.316     24.112
REMARK  1 active torsions:
REMARK  status: ('A' for Active; 'I' for Inactive)
REMARK    1  A    between atoms: C_8  and  C_9 
ROOT
HETATM    1  C   UNL     1      40.235  44.309  67.796  1.00  0.00     0.073 C 
HETATM    2  C   UNL     1      40.002  45.417  66.833  1.00  0.00     0.062 C 
HETATM    3  N   UNL     1      40.972  46.312  66.624  1.00  0.00    -0.178 NA
HETATM    4  N   UNL     1      40.468  47.115  65.683  1.00  0.00    -0.262 N 
HETATM    5  H   UNL     1      41.047  47.877  65.349  1.00  0.00     0.191 HD
HETATM    6  C   UNL     1      39.160  46.852  65.376  1.00  0.00     0.134 C 
HETATM    7  C   UNL     1      38.840  45.677  66.026  1.00  0.00     0.032 C 
HETATM    8  C   UNL     1      37.641  44.784  65.931  1.00  0.00     0.119 C 
HETATM    9  S   UNL     1      36.032  45.440  65.407  1.00  0.00    -0.141 SA
HETATM   10  C   UNL     1      36.205  47.235  65.561  1.00  0.00     0.136 C 
HETATM   11  C   UNL     1      36.453  47.749  66.973  1.00  0.00     0.031 C 
HETATM   12  C   UNL     1      37.112  47.829  64.490  1.00  0.00     0.236 C 
HETATM   13  O   UNL     1      36.649  48.547  63.595  1.00  0.00    -0.272 OA
HETATM   14  N   UNL     1      38.467  47.688  64.542  1.00  0.00    -0.311 N 
HETATM   15  H   UNL     1      38.962  48.321  63.924  1.00  0.00     0.170 HD
ENDROOT
BRANCH   8  16
HETATM   16  C   UNL     1      38.066  43.657  64.989  1.00  0.00    -0.039 A 
HETATM   17  C   UNL     1      38.406  42.376  65.472  1.00  0.00     0.021 A 
HETATM   18  C   UNL     1      38.812  41.344  64.611  1.00  0.00    -0.025 A 
HETATM   19  C   UNL     1      38.879  41.590  63.223  1.00  0.00    -0.026 A 
HETATM   20  C   UNL     1      39.158  40.075  65.104  1.00  0.00     0.012 A 
HETATM   21  C   UNL     1      38.544  42.863  62.737  1.00  0.00     0.013 A 
HETATM   22  C   UNL     1      39.286  40.556  62.363  1.00  0.00     0.012 A 
HETATM   23  C   UNL     1      38.149  43.885  63.607  1.00  0.00     0.009 A 
HETATM   24  C   UNL     1      39.627  39.300  62.869  1.00  0.00     0.001 A 
HETATM   25  C   UNL     1      39.564  39.061  64.238  1.00  0.00     0.001 A 
ENDBRANCH   8  16
TORSDOF 1
ENDMDL
MODEL 9
REMARK VINA RESULT:      -7.7     11.255     13.542
REMARK  1 active torsions:
REMARK  status: ('A' for Active; 'I' for Inactive)
REMARK    1  A    between atoms: C_8  and  C_9 
ROOT
HETATM    1  C   UNL     1      30.488  51.505  38.016  1.00  0.00     0.073 C 
HETATM    2  C   UNL     1      30.776  51.975  39.397  1.00  0.00     0.062 C 
HETATM    3  N   UNL     1      30.320  53.169  39.785  1.00  0.00    -0.178 NA
HETATM    4  N   UNL     1      30.695  53.253  41.064  1.00  0.00    -0.262 N 
HETATM    5  H   UNL     1      30.440  54.087  41.580  1.00  0.00     0.191 HD
HETATM    6  C   UNL     1      31.492  52.219  41.475  1.00  0.00     0.134 C 
HETATM    7  C   UNL     1      31.486  51.296  40.446  1.00  0.00     0.032 C 
HETATM    8  C   UNL     1      32.001  49.892  40.370  1.00  0.00     0.119 C 
HETATM    9  S   UNL     1      33.360  49.339  41.439  1.00  0.00    -0.141 SA
HETATM   10  C   UNL     1      34.089  50.870  42.070  1.00  0.00     0.136 C 
HETATM   11  C   UNL     1      34.699  51.786  41.016  1.00  0.00     0.031 C 
HETATM   12  C   UNL     1      33.196  51.566  43.090  1.00  0.00     0.236 C 
HETATM   13  O   UNL     1      33.519  51.619  44.282  1.00  0.00    -0.272 OA
HETATM   14  N   UNL     1      32.076  52.247  42.713  1.00  0.00    -0.311 N 
HETATM   15  H   UNL     1      31.713  52.858  43.436  1.00  0.00     0.170 HD
ENDROOT
BRANCH   8  16
HETATM   16  C   UNL     1      30.774  49.011  40.606  1.00  0.00    -0.039 A 
HETATM   17  C   UNL     1      30.567  47.818  39.882  1.00  0.00     0.021 A 
HETATM   18  C   UNL     1      29.432  47.017  40.085  1.00  0.00    -0.025 A 
HETATM   19  C   UNL     1      28.473  47.409  41.041  1.00  0.00    -0.026 A 
HETATM   20  C   UNL     1      29.233  45.835  39.351  1.00  0.00     0.012 A 
HETATM   21  C   UNL     1      28.671  48.596  41.763  1.00  0.00     0.013 A 
HETATM   22  C   UNL     1      27.337  46.605  41.242  1.00  0.00     0.012 A 
HETATM   23  C   UNL     1      29.802  49.390  41.545  1.00  0.00     0.009 A 
HETATM   24  C   UNL     1      27.153  45.433  40.505  1.00  0.00     0.001 A 
HETATM   25  C   UNL     1      28.099  45.051  39.560  1.00  0.00     0.001 A 
ENDBRANCH   8  16
TORSDOF 1
ENDMDL
MODEL 10
REMARK VINA RESULT:      -7.6      3.738      7.225
REMARK  1 active torsions:
REMARK  status: ('A' for Active; 'I' for Inactive)
REMARK    1  A    between atoms: C_8  and  C_9 
ROOT
HETATM    1  C   UNL     1      20.016  51.209  49.944  1.00  0.00     0.073 C 
HETATM    2  C   UNL     1      19.297  49.909  50.011  1.00  0.00     0.062 C 
HETATM    3  N   UNL     1      18.920  49.435  51.202  1.00  0.00    -0.178 NA
HETATM    4  N   UNL     1      18.266  48.310  50.906  1.00  0.00    -0.262 N 
HETATM    5  H   UNL     1      17.868  47.776  51.669  1.00  0.00     0.191 HD
HETATM    6  C   UNL     1      18.324  47.971  49.581  1.00  0.00     0.134 C 
HETATM    7  C   UNL     1      18.899  49.046  48.932  1.00  0.00     0.032 C 
HETATM    8  C   UNL     1      19.054  49.361  47.476  1.00  0.00     0.119 C 
HETATM    9  S   UNL     1      19.099  48.034  46.237  1.00  0.00    -0.141 SA
HETATM   10  C   UNL     1      19.402  46.531  47.197  1.00  0.00     0.136 C 
HETATM   11  C   UNL     1      20.731  46.487  47.942  1.00  0.00     0.031 C 
HETATM   12  C   UNL     1      18.190  46.106  48.018  1.00  0.00     0.236 C 
HETATM   13  O   UNL     1      17.558  45.083  47.729  1.00  0.00    -0.272 OA
HETATM   14  N   UNL     1      17.829  46.767  49.155  1.00  0.00    -0.311 N 
HETATM   15  H   UNL     1      17.172  46.251  49.729  1.00  0.00     0.170 HD
ENDROOT
BRANCH   8  16
HETATM   16  C   UNL     1      17.905  50.319  47.158  1.00  0.00    -0.039 A 
HETATM   17  C   UNL     1      17.961  51.203  46.061  1.00  0.00     0.021 A 
HETATM   18  C   UNL     1      16.915  52.096  45.776  1.00  0.00    -0.025 A 
HETATM   19  C   UNL     1      15.774  52.108  46.605  1.00  0.00    -0.026 A 
HETATM   20  C   UNL     1      16.986  52.979  44.685  1.00  0.00     0.012 A 
HETATM   21  C   UNL     1      15.714  51.233  47.700  1.00  0.00     0.013 A 
HETATM   22  C   UNL     1      14.729  53.003  46.318  1.00  0.00     0.012 A 
HETATM   23  C   UNL     1      16.767  50.354  47.977  1.00  0.00     0.009 A 
HETATM   24  C   UNL     1      14.814  53.875  45.231  1.00  0.00     0.001 A 
HETATM   25  C   UNL     1      15.942  53.864  44.417  1.00  0.00     0.001 A 
ENDBRANCH   8  16
TORSDOF 1
ENDMDL
