MODEL 1
REMARK VINA RESULT:     -10.1      0.000      0.000
REMARK  5 active torsions:
REMARK  status: ('A' for Active; 'I' for Inactive)
REMARK    1  A    between atoms: O_2  and  C_3 
REMARK    2  A    between atoms: C_4  and  O_5 
REMARK    3  A    between atoms: C_8  and  C_9 
REMARK    4  A    between atoms: N_10  and  N_11 
REMARK       I    between atoms: N_11  and  C_12 
REMARK    5  A    between atoms: C_12  and  C_13 
ROOT
HETATM    1  N   UNL     1      25.828  46.800  51.619  1.00  0.00    -0.242 N 
HETATM    2  C   UNL     1      25.602  45.525  52.113  1.00  0.00     0.292 C 
HETATM    3  O   UNL     1      24.512  44.958  52.137  1.00  0.00    -0.264 OA
HETATM    4  H   UNL     1      26.782  47.151  51.650  1.00  0.00     0.192 HD
ENDROOT
BRANCH   2   5
HETATM    5  C   UNL     1      26.832  44.890  52.618  1.00  0.00     0.154 A 
HETATM    6  N   UNL     1      27.457  43.891  51.948  1.00  0.00    -0.168 NA
HETATM    7  N   UNL     1      28.501  43.564  52.743  1.00  0.00    -0.276 N 
HETATM    8  H   UNL     1      29.124  42.823  52.441  1.00  0.00     0.189 HD
HETATM    9  C   UNL     1      28.572  44.304  53.882  1.00  0.00     0.069 A 
HETATM   10  C   UNL     1      27.516  45.185  53.823  1.00  0.00     0.007 A 
HETATM   11  C   UNL     1      29.526  44.241  54.977  1.00  0.00    -0.001 A 
HETATM   12  C   UNL     1      27.246  46.156  54.918  1.00  0.00     0.048 C 
HETATM   13  C   UNL     1      28.540  46.483  55.700  1.00  0.00     0.044 C 
HETATM   14  C   UNL     1      29.475  45.298  55.919  1.00  0.00    -0.045 A 
HETATM   15  C   UNL     1      30.356  45.295  57.008  1.00  0.00     0.008 A 
HETATM   16  C   UNL     1      31.258  44.244  57.174  1.00  0.00     0.001 A 
HETATM   17  C   UNL     1      31.297  43.200  56.250  1.00  0.00     0.001 A 
HETATM   18  C   UNL     1      30.436  43.195  55.151  1.00  0.00     0.014 A 
ENDBRANCH   2   5
BRANCH   1  19
HETATM   19  N   UNL     1      24.810  47.518  51.070  1.00  0.00    -0.184 NA
HETATM   20  C   UNL     1      24.832  47.656  49.785  1.00  0.00     0.150 C 
BRANCH  20  21
HETATM   21  C   UNL     1      23.766  48.406  49.086  1.00  0.00    -0.014 A 
HETATM   22  C   UNL     1      24.069  49.605  48.429  1.00  0.00     0.016 A 
HETATM   23  C   UNL     1      23.061  50.315  47.781  1.00  0.00     0.040 A 
HETATM   24  C   UNL     1      21.766  49.813  47.794  1.00  0.00     0.099 A 
HETATM   25  C   UNL     1      21.448  48.609  48.437  1.00  0.00     0.102 A 
HETATM   26  C   UNL     1      22.457  47.904  49.095  1.00  0.00     0.052 A 
BRANCH  24  27
HETATM   27  O   UNL     1      20.792  50.528  47.151  1.00  0.00    -0.358 OA
HETATM   28  H   UNL     1      21.097  50.602  46.227  1.00  0.00     0.218 HD
ENDBRANCH  24  27
BRANCH  25  29
HETATM   29  O   UNL     1      20.128  48.245  48.353  1.00  0.00    -0.353 OA
HETATM   30  C   UNL     1      19.364  48.328  49.550  1.00  0.00     0.210 C 
ENDBRANCH  25  29
ENDBRANCH  20  21
ENDBRANCH   1  19
TORSDOF 5
ENDMDL
MODEL 2
REMARK VINA RESULT:      -9.4      1.462      2.095
REMARK  5 active torsions:
REMARK  status: ('A' for Active; 'I' for Inactive)
REMARK    1  A    between atoms: O_2  and  C_3 
REMARK    2  A    between atoms: C_4  and  O_5 
REMARK    3  A    between atoms: C_8  and  C_9 
REMARK    4  A    between atoms: N_10  and  N_11 
REMARK       I    between atoms: N_11  and  C_12 
REMARK    5  A    between atoms: C_12  and  C_13 
ROOT
HETATM    1  N   UNL     1      26.910  45.052  51.026  1.00  0.00    -0.242 N 
HETATM    2  C   UNL     1      26.801  43.912  51.809  1.00  0.00     0.292 C 
HETATM    3  O   UNL     1      25.836  43.150  51.820  1.00  0.00    -0.264 OA
HETATM    4  H   UNL     1      27.767  45.593  51.107  1.00  0.00     0.192 HD
ENDROOT
BRANCH   2   5
HETATM    5  C   UNL     1      27.989  43.690  52.650  1.00  0.00     0.154 A 
HETATM    6  N   UNL     1      28.966  42.816  52.305  1.00  0.00    -0.168 NA
HETATM    7  N   UNL     1      29.841  42.875  53.335  1.00  0.00    -0.276 N 
HETATM    8  H   UNL     1      30.670  42.292  53.297  1.00  0.00     0.189 HD
HETATM    9  C   UNL     1      29.472  43.743  54.315  1.00  0.00     0.069 A 
HETATM   10  C   UNL     1      28.286  44.301  53.894  1.00  0.00     0.007 A 
HETATM   11  C   UNL     1      30.130  44.069  55.568  1.00  0.00    -0.001 A 
HETATM   12  C   UNL     1      27.552  45.295  54.723  1.00  0.00     0.048 C 
HETATM   13  C   UNL     1      28.516  46.044  55.673  1.00  0.00     0.044 C 
HETATM   14  C   UNL     1      29.619  45.183  56.279  1.00  0.00    -0.045 A 
HETATM   15  C   UNL     1      30.197  45.546  57.501  1.00  0.00     0.008 A 
HETATM   16  C   UNL     1      31.251  44.798  58.026  1.00  0.00     0.001 A 
HETATM   17  C   UNL     1      31.744  43.695  57.329  1.00  0.00     0.001 A 
HETATM   18  C   UNL     1      31.189  43.329  56.101  1.00  0.00     0.014 A 
ENDBRANCH   2   5
BRANCH   1  19
HETATM   19  N   UNL     1      25.920  45.387  50.154  1.00  0.00    -0.184 NA
HETATM   20  C   UNL     1      25.116  46.326  50.532  1.00  0.00     0.150 C 
BRANCH  20  21
HETATM   21  C   UNL     1      24.014  46.777  49.655  1.00  0.00    -0.014 A 
HETATM   22  C   UNL     1      23.292  45.843  48.900  1.00  0.00     0.016 A 
HETATM   23  C   UNL     1      22.262  46.272  48.067  1.00  0.00     0.040 A 
HETATM   24  C   UNL     1      21.964  47.626  48.004  1.00  0.00     0.099 A 
HETATM   25  C   UNL     1      22.668  48.573  48.761  1.00  0.00     0.102 A 
HETATM   26  C   UNL     1      23.707  48.144  49.588  1.00  0.00     0.052 A 
BRANCH  24  27
HETATM   27  O   UNL     1      20.947  48.024  47.178  1.00  0.00    -0.358 OA
HETATM   28  H   UNL     1      20.856  48.984  47.328  1.00  0.00     0.218 HD
ENDBRANCH  24  27
BRANCH  25  29
HETATM   29  O   UNL     1      22.248  49.868  48.594  1.00  0.00    -0.353 OA
HETATM   30  C   UNL     1      23.101  50.888  49.099  1.00  0.00     0.210 C 
ENDBRANCH  25  29
ENDBRANCH  20  21
ENDBRANCH   1  19
TORSDOF 5
ENDMDL
MODEL 3
REMARK VINA RESULT:      -9.3      2.803     10.392
REMARK  5 active torsions:
REMARK  status: ('A' for Active; 'I' for Inactive)
REMARK    1  A    between atoms: O_2  and  C_3 
REMARK    2  A    between atoms: C_4  and  O_5 
REMARK    3  A    between atoms: C_8  and  C_9 
REMARK    4  A    between atoms: N_10  and  N_11 
REMARK       I    between atoms: N_11  and  C_12 
REMARK    5  A    between atoms: C_12  and  C_13 
ROOT
HETATM    1  N   UNL     1      24.365  47.029  50.580  1.00  0.00    -0.242 N 
HETATM    2  C   UNL     1      24.490  48.057  49.657  1.00  0.00     0.292 C 
HETATM    3  O   UNL     1      25.514  48.704  49.453  1.00  0.00    -0.264 OA
HETATM    4  H   UNL     1      23.461  46.568  50.646  1.00  0.00     0.192 HD
ENDROOT
BRANCH   2   5
HETATM    5  C   UNL     1      23.240  48.304  48.917  1.00  0.00     0.154 A 
HETATM    6  N   UNL     1      22.765  47.437  47.991  1.00  0.00    -0.168 NA
HETATM    7  N   UNL     1      21.644  48.034  47.525  1.00  0.00    -0.276 N 
HETATM    8  H   UNL     1      21.108  47.560  46.806  1.00  0.00     0.189 HD
HETATM    9  C   UNL     1      21.382  49.234  48.108  1.00  0.00     0.069 A 
HETATM   10  C   UNL     1      22.387  49.431  49.029  1.00  0.00     0.007 A 
HETATM   11  C   UNL     1      20.297  50.170  47.870  1.00  0.00    -0.001 A 
HETATM   12  C   UNL     1      22.456  50.663  49.860  1.00  0.00     0.048 C 
HETATM   13  C   UNL     1      21.054  51.292  50.035  1.00  0.00     0.044 C 
HETATM   14  C   UNL     1      20.165  51.233  48.798  1.00  0.00    -0.045 A 
HETATM   15  C   UNL     1      19.149  52.181  48.621  1.00  0.00     0.008 A 
HETATM   16  C   UNL     1      18.291  52.091  47.524  1.00  0.00     0.001 A 
HETATM   17  C   UNL     1      18.432  51.049  46.607  1.00  0.00     0.001 A 
HETATM   18  C   UNL     1      19.430  50.087  46.777  1.00  0.00     0.014 A 
ENDBRANCH   2   5
BRANCH   1  19
HETATM   19  N   UNL     1      25.435  46.635  51.323  1.00  0.00    -0.184 NA
HETATM   20  C   UNL     1      25.390  46.910  52.585  1.00  0.00     0.150 C 
BRANCH  20  21
HETATM   21  C   UNL     1      26.495  46.515  53.485  1.00  0.00    -0.014 A 
HETATM   22  C   UNL     1      27.140  47.479  54.269  1.00  0.00     0.016 A 
HETATM   23  C   UNL     1      28.188  47.105  55.108  1.00  0.00     0.040 A 
HETATM   24  C   UNL     1      28.571  45.771  55.155  1.00  0.00     0.099 A 
HETATM   25  C   UNL     1      27.929  44.791  54.386  1.00  0.00     0.102 A 
HETATM   26  C   UNL     1      26.887  45.168  53.538  1.00  0.00     0.052 A 
BRANCH  24  27
HETATM   27  O   UNL     1      29.603  45.427  55.986  1.00  0.00    -0.358 OA
HETATM   28  H   UNL     1      29.953  44.590  55.626  1.00  0.00     0.218 HD
ENDBRANCH  24  27
BRANCH  25  29
HETATM   29  O   UNL     1      28.420  43.520  54.550  1.00  0.00    -0.353 OA
HETATM   30  C   UNL     1      27.775  42.485  53.818  1.00  0.00     0.210 C 
ENDBRANCH  25  29
ENDBRANCH  20  21
ENDBRANCH   1  19
TORSDOF 5
ENDMDL
MODEL 4
REMARK VINA RESULT:      -8.5      2.831      3.758
REMARK  5 active torsions:
REMARK  status: ('A' for Active; 'I' for Inactive)
REMARK    1  A    between atoms: O_2  and  C_3 
REMARK    2  A    between atoms: C_4  and  O_5 
REMARK    3  A    between atoms: C_8  and  C_9 
REMARK    4  A    between atoms: N_10  and  N_11 
REMARK       I    between atoms: N_11  and  C_12 
REMARK    5  A    between atoms: C_12  and  C_13 
ROOT
HETATM    1  N   UNL     1      25.178  45.296  52.209  1.00  0.00    -0.242 N 
HETATM    2  C   UNL     1      25.859  46.474  52.480  1.00  0.00     0.292 C 
HETATM    3  O   UNL     1      25.795  47.500  51.806  1.00  0.00    -0.264 OA
HETATM    4  H   UNL     1      25.312  44.520  52.852  1.00  0.00     0.192 HD
ENDROOT
BRANCH   2   5
HETATM    5  C   UNL     1      26.687  46.379  53.694  1.00  0.00     0.154 A 
HETATM    6  N   UNL     1      26.543  47.232  54.737  1.00  0.00    -0.168 NA
HETATM    7  N   UNL     1      27.493  46.843  55.617  1.00  0.00    -0.276 N 
HETATM    8  H   UNL     1      27.577  47.348  56.491  1.00  0.00     0.189 HD
HETATM    9  C   UNL     1      28.232  45.784  55.188  1.00  0.00     0.069 A 
HETATM   10  C   UNL     1      27.724  45.447  53.954  1.00  0.00     0.007 A 
HETATM   11  C   UNL     1      29.338  45.097  55.832  1.00  0.00    -0.001 A 
HETATM   12  C   UNL     1      28.297  44.335  53.148  1.00  0.00     0.048 C 
HETATM   13  C   UNL     1      28.991  43.294  54.058  1.00  0.00     0.044 C 
HETATM   14  C   UNL     1      29.759  43.881  55.237  1.00  0.00    -0.045 A 
HETATM   15  C   UNL     1      30.828  43.172  55.798  1.00  0.00     0.008 A 
HETATM   16  C   UNL     1      31.490  43.676  56.918  1.00  0.00     0.001 A 
HETATM   17  C   UNL     1      31.080  44.879  57.494  1.00  0.00     0.001 A 
HETATM   18  C   UNL     1      30.006  45.590  56.957  1.00  0.00     0.014 A 
ENDBRANCH   2   5
BRANCH   1  19
HETATM   19  N   UNL     1      24.329  45.219  51.147  1.00  0.00    -0.184 NA
HETATM   20  C   UNL     1      24.578  44.293  50.280  1.00  0.00     0.150 C 
BRANCH  20  21
HETATM   21  C   UNL     1      23.711  44.113  49.096  1.00  0.00    -0.014 A 
HETATM   22  C   UNL     1      23.262  42.834  48.743  1.00  0.00     0.016 A 
HETATM   23  C   UNL     1      22.454  42.667  47.621  1.00  0.00     0.040 A 
HETATM   24  C   UNL     1      22.100  43.781  46.872  1.00  0.00     0.099 A 
HETATM   25  C   UNL     1      22.530  45.070  47.217  1.00  0.00     0.102 A 
HETATM   26  C   UNL     1      23.349  45.235  48.335  1.00  0.00     0.052 A 
BRANCH  24  27
HETATM   27  O   UNL     1      21.305  43.592  45.774  1.00  0.00    -0.358 OA
HETATM   28  H   UNL     1      21.370  42.639  45.573  1.00  0.00     0.218 HD
ENDBRANCH  24  27
BRANCH  25  29
HETATM   29  O   UNL     1      22.089  46.064  46.382  1.00  0.00    -0.353 OA
HETATM   30  C   UNL     1      21.118  46.960  46.909  1.00  0.00     0.210 C 
ENDBRANCH  25  29
ENDBRANCH  20  21
ENDBRANCH   1  19
TORSDOF 5
ENDMDL
MODEL 5
REMARK VINA RESULT:      -8.5      3.321      4.277
REMARK  5 active torsions:
REMARK  status: ('A' for Active; 'I' for Inactive)
REMARK    1  A    between atoms: O_2  and  C_3 
REMARK    2  A    between atoms: C_4  and  O_5 
REMARK    3  A    between atoms: C_8  and  C_9 
REMARK    4  A    between atoms: N_10  and  N_11 
REMARK       I    between atoms: N_11  and  C_12 
REMARK    5  A    between atoms: C_12  and  C_13 
ROOT
HETATM    1  N   UNL     1      27.257  43.285  50.625  1.00  0.00    -0.242 N 
HETATM    2  C   UNL     1      27.132  43.950  51.835  1.00  0.00     0.292 C 
HETATM    3  O   UNL     1      26.176  44.651  52.162  1.00  0.00    -0.264 OA
HETATM    4  H   UNL     1      28.097  42.730  50.482  1.00  0.00     0.192 HD
ENDROOT
BRANCH   2   5
HETATM    5  C   UNL     1      28.285  43.727  52.723  1.00  0.00     0.154 A 
HETATM    6  N   UNL     1      29.262  42.834  52.429  1.00  0.00    -0.168 NA
HETATM    7  N   UNL     1      30.098  42.899  53.490  1.00  0.00    -0.276 N 
HETATM    8  H   UNL     1      30.920  42.305  53.494  1.00  0.00     0.189 HD
HETATM    9  C   UNL     1      29.705  43.788  54.442  1.00  0.00     0.069 A 
HETATM   10  C   UNL     1      28.543  44.355  53.967  1.00  0.00     0.007 A 
HETATM   11  C   UNL     1      30.321  44.127  55.713  1.00  0.00    -0.001 A 
HETATM   12  C   UNL     1      27.793  45.373  54.752  1.00  0.00     0.048 C 
HETATM   13  C   UNL     1      28.731  46.125  55.724  1.00  0.00     0.044 C 
HETATM   14  C   UNL     1      29.799  45.261  56.385  1.00  0.00    -0.045 A 
HETATM   15  C   UNL     1      30.336  45.637  57.622  1.00  0.00     0.008 A 
HETATM   16  C   UNL     1      31.359  44.884  58.199  1.00  0.00     0.001 A 
HETATM   17  C   UNL     1      31.862  43.762  57.539  1.00  0.00     0.001 A 
HETATM   18  C   UNL     1      31.348  43.382  56.298  1.00  0.00     0.014 A 
ENDBRANCH   2   5
BRANCH   1  19
HETATM   19  N   UNL     1      26.261  43.344  49.699  1.00  0.00    -0.184 NA
HETATM   20  C   UNL     1      25.389  42.389  49.732  1.00  0.00     0.150 C 
BRANCH  20  21
HETATM   21  C   UNL     1      24.259  42.364  48.779  1.00  0.00    -0.014 A 
HETATM   22  C   UNL     1      23.932  41.178  48.111  1.00  0.00     0.016 A 
HETATM   23  C   UNL     1      22.874  41.160  47.206  1.00  0.00     0.040 A 
HETATM   24  C   UNL     1      22.153  42.326  46.987  1.00  0.00     0.099 A 
HETATM   25  C   UNL     1      22.459  43.519  47.656  1.00  0.00     0.102 A 
HETATM   26  C   UNL     1      23.526  43.539  48.555  1.00  0.00     0.052 A 
BRANCH  24  27
HETATM   27  O   UNL     1      21.117  42.284  46.093  1.00  0.00    -0.358 OA
HETATM   28  H   UNL     1      21.532  42.097  45.229  1.00  0.00     0.218 HD
ENDBRANCH  24  27
BRANCH  25  29
HETATM   29  O   UNL     1      21.649  44.580  47.336  1.00  0.00    -0.353 OA
HETATM   30  C   UNL     1      20.830  45.097  48.378  1.00  0.00     0.210 C 
ENDBRANCH  25  29
ENDBRANCH  20  21
ENDBRANCH   1  19
TORSDOF 5
ENDMDL
MODEL 6
REMARK VINA RESULT:      -8.4      1.851      2.766
REMARK  5 active torsions:
REMARK  status: ('A' for Active; 'I' for Inactive)
REMARK    1  A    between atoms: O_2  and  C_3 
REMARK    2  A    between atoms: C_4  and  O_5 
REMARK    3  A    between atoms: C_8  and  C_9 
REMARK    4  A    between atoms: N_10  and  N_11 
REMARK       I    between atoms: N_11  and  C_12 
REMARK    5  A    between atoms: C_12  and  C_13 
ROOT
HETATM    1  N   UNL     1      24.985  46.172  50.657  1.00  0.00    -0.242 N 
HETATM    2  C   UNL     1      24.848  45.294  51.721  1.00  0.00     0.292 C 
HETATM    3  O   UNL     1      24.037  44.372  51.778  1.00  0.00    -0.264 OA
HETATM    4  H   UNL     1      25.703  46.889  50.732  1.00  0.00     0.192 HD
ENDROOT
BRANCH   2   5
HETATM    5  C   UNL     1      25.800  45.574  52.809  1.00  0.00     0.154 A 
HETATM    6  N   UNL     1      25.707  46.681  53.585  1.00  0.00    -0.168 NA
HETATM    7  N   UNL     1      26.766  46.589  54.421  1.00  0.00    -0.276 N 
HETATM    8  H   UNL     1      26.904  47.323  55.106  1.00  0.00     0.189 HD
HETATM    9  C   UNL     1      27.526  45.479  54.219  1.00  0.00     0.069 A 
HETATM   10  C   UNL     1      26.917  44.790  53.194  1.00  0.00     0.007 A 
HETATM   11  C   UNL     1      28.734  45.040  54.895  1.00  0.00    -0.001 A 
HETATM   12  C   UNL     1      27.478  43.517  52.666  1.00  0.00     0.048 C 
HETATM   13  C   UNL     1      28.328  42.799  53.741  1.00  0.00     0.044 C 
HETATM   14  C   UNL     1      29.171  43.722  54.615  1.00  0.00    -0.045 A 
HETATM   15  C   UNL     1      30.337  43.238  55.221  1.00  0.00     0.008 A 
HETATM   16  C   UNL     1      31.075  44.059  56.074  1.00  0.00     0.001 A 
HETATM   17  C   UNL     1      30.647  45.360  56.338  1.00  0.00     0.001 A 
HETATM   18  C   UNL     1      29.479  45.853  55.754  1.00  0.00     0.014 A 
ENDBRANCH   2   5
BRANCH   1  19
HETATM   19  N   UNL     1      24.214  46.033  49.543  1.00  0.00    -0.184 NA
HETATM   20  C   UNL     1      23.200  46.828  49.445  1.00  0.00     0.150 C 
BRANCH  20  21
HETATM   21  C   UNL     1      22.305  46.770  48.268  1.00  0.00    -0.014 A 
HETATM   22  C   UNL     1      22.439  45.733  47.337  1.00  0.00     0.016 A 
HETATM   23  C   UNL     1      21.602  45.687  46.224  1.00  0.00     0.040 A 
HETATM   24  C   UNL     1      20.639  46.674  46.063  1.00  0.00     0.099 A 
HETATM   25  C   UNL     1      20.483  47.712  46.992  1.00  0.00     0.102 A 
HETATM   26  C   UNL     1      21.329  47.763  48.100  1.00  0.00     0.052 A 
BRANCH  24  27
HETATM   27  O   UNL     1      19.828  46.608  44.962  1.00  0.00    -0.358 OA
HETATM   28  H   UNL     1      19.896  47.486  44.542  1.00  0.00     0.218 HD
ENDBRANCH  24  27
BRANCH  25  29
HETATM   29  O   UNL     1      19.483  48.602  46.694  1.00  0.00    -0.353 OA
HETATM   30  C   UNL     1      19.699  49.957  47.071  1.00  0.00     0.210 C 
ENDBRANCH  25  29
ENDBRANCH  20  21
ENDBRANCH   1  19
TORSDOF 5
ENDMDL
MODEL 7
REMARK VINA RESULT:      -8.4      2.658     10.589
REMARK  5 active torsions:
REMARK  status: ('A' for Active; 'I' for Inactive)
REMARK    1  A    between atoms: O_2  and  C_3 
REMARK    2  A    between atoms: C_4  and  O_5 
REMARK    3  A    between atoms: C_8  and  C_9 
REMARK    4  A    between atoms: N_10  and  N_11 
REMARK       I    between atoms: N_11  and  C_12 
REMARK    5  A    between atoms: C_12  and  C_13 
ROOT
HETATM    1  N   UNL     1      24.498  47.497  50.817  1.00  0.00    -0.242 N 
HETATM    2  C   UNL     1      23.769  47.420  49.639  1.00  0.00     0.292 C 
HETATM    3  O   UNL     1      23.711  46.435  48.906  1.00  0.00    -0.264 OA
HETATM    4  H   UNL     1      24.454  48.370  51.337  1.00  0.00     0.192 HD
ENDROOT
BRANCH   2   5
HETATM    5  C   UNL     1      23.042  48.666  49.343  1.00  0.00     0.154 A 
HETATM    6  N   UNL     1      23.601  49.888  49.520  1.00  0.00    -0.168 NA
HETATM    7  N   UNL     1      22.618  50.753  49.180  1.00  0.00    -0.276 N 
HETATM    8  H   UNL     1      22.810  51.747  49.236  1.00  0.00     0.189 HD
HETATM    9  C   UNL     1      21.465  50.143  48.793  1.00  0.00     0.069 A 
HETATM   10  C   UNL     1      21.712  48.791  48.870  1.00  0.00     0.007 A 
HETATM   11  C   UNL     1      20.200  50.722  48.374  1.00  0.00    -0.001 A 
HETATM   12  C   UNL     1      20.666  47.785  48.542  1.00  0.00     0.048 C 
HETATM   13  C   UNL     1      19.623  48.371  47.561  1.00  0.00     0.044 C 
HETATM   14  C   UNL     1      19.254  49.829  47.811  1.00  0.00    -0.045 A 
HETATM   15  C   UNL     1      18.008  50.316  47.398  1.00  0.00     0.008 A 
HETATM   16  C   UNL     1      17.693  51.664  47.565  1.00  0.00     0.001 A 
HETATM   17  C   UNL     1      18.623  52.537  48.130  1.00  0.00     0.001 A 
HETATM   18  C   UNL     1      19.876  52.071  48.533  1.00  0.00     0.014 A 
ENDBRANCH   2   5
BRANCH   1  19
HETATM   19  N   UNL     1      25.195  46.419  51.268  1.00  0.00    -0.184 NA
HETATM   20  C   UNL     1      25.987  46.626  52.270  1.00  0.00     0.150 C 
BRANCH  20  21
HETATM   21  C   UNL     1      26.782  45.521  52.846  1.00  0.00    -0.014 A 
HETATM   22  C   UNL     1      27.163  45.560  54.193  1.00  0.00     0.016 A 
HETATM   23  C   UNL     1      27.921  44.523  54.731  1.00  0.00     0.040 A 
HETATM   24  C   UNL     1      28.281  43.458  53.916  1.00  0.00     0.099 A 
HETATM   25  C   UNL     1      27.898  43.396  52.569  1.00  0.00     0.102 A 
HETATM   26  C   UNL     1      27.148  44.441  52.029  1.00  0.00     0.052 A 
BRANCH  24  27
HETATM   27  O   UNL     1      29.026  42.449  54.467  1.00  0.00    -0.358 OA
HETATM   28  H   UNL     1      28.712  41.633  54.033  1.00  0.00     0.218 HD
ENDBRANCH  24  27
BRANCH  25  29
HETATM   29  O   UNL     1      28.326  42.276  51.902  1.00  0.00    -0.353 OA
HETATM   30  C   UNL     1      27.326  41.342  51.513  1.00  0.00     0.210 C 
ENDBRANCH  25  29
ENDBRANCH  20  21
ENDBRANCH   1  19
TORSDOF 5
ENDMDL
MODEL 8
REMARK VINA RESULT:      -8.3      5.943      7.822
REMARK  5 active torsions:
REMARK  status: ('A' for Active; 'I' for Inactive)
REMARK    1  A    between atoms: O_2  and  C_3 
REMARK    2  A    between atoms: C_4  and  O_5 
REMARK    3  A    between atoms: C_8  and  C_9 
REMARK    4  A    between atoms: N_10  and  N_11 
REMARK       I    between atoms: N_11  and  C_12 
REMARK    5  A    between atoms: C_12  and  C_13 
ROOT
HETATM    1  N   UNL     1      27.168  42.570  49.613  1.00  0.00    -0.242 N 
HETATM    2  C   UNL     1      26.480  42.148  50.741  1.00  0.00     0.292 C 
HETATM    3  O   UNL     1      25.762  41.153  50.802  1.00  0.00    -0.264 OA
HETATM    4  H   UNL     1      27.736  43.409  49.699  1.00  0.00     0.192 HD
ENDROOT
BRANCH   2   5
HETATM    5  C   UNL     1      26.704  43.030  51.900  1.00  0.00     0.154 A 
HETATM    6  N   UNL     1      25.764  43.903  52.337  1.00  0.00    -0.168 NA
HETATM    7  N   UNL     1      26.359  44.537  53.372  1.00  0.00    -0.276 N 
HETATM    8  H   UNL     1      25.834  45.251  53.865  1.00  0.00     0.189 HD
HETATM    9  C   UNL     1      27.627  44.111  53.618  1.00  0.00     0.069 A 
HETATM   10  C   UNL     1      27.875  43.122  52.694  1.00  0.00     0.007 A 
HETATM   11  C   UNL     1      28.581  44.552  54.621  1.00  0.00    -0.001 A 
HETATM   12  C   UNL     1      29.186  42.421  52.631  1.00  0.00     0.048 C 
HETATM   13  C   UNL     1      29.897  42.453  54.005  1.00  0.00     0.044 C 
HETATM   14  C   UNL     1      29.745  43.758  54.777  1.00  0.00    -0.045 A 
HETATM   15  C   UNL     1      30.714  44.132  55.716  1.00  0.00     0.008 A 
HETATM   16  C   UNL     1      30.545  45.293  56.471  1.00  0.00     0.001 A 
HETATM   17  C   UNL     1      29.403  46.078  56.306  1.00  0.00     0.001 A 
HETATM   18  C   UNL     1      28.420  45.711  55.385  1.00  0.00     0.014 A 
ENDBRANCH   2   5
BRANCH   1  19
HETATM   19  N   UNL     1      27.112  41.847  48.461  1.00  0.00    -0.184 NA
HETATM   20  C   UNL     1      28.054  40.981  48.280  1.00  0.00     0.150 C 
BRANCH  20  21
HETATM   21  C   UNL     1      28.081  40.134  47.068  1.00  0.00    -0.014 A 
HETATM   22  C   UNL     1      28.029  38.739  47.186  1.00  0.00     0.016 A 
HETATM   23  C   UNL     1      28.065  37.945  46.043  1.00  0.00     0.040 A 
HETATM   24  C   UNL     1      28.146  38.555  44.799  1.00  0.00     0.099 A 
HETATM   25  C   UNL     1      28.186  39.949  44.662  1.00  0.00     0.102 A 
HETATM   26  C   UNL     1      28.161  40.745  45.808  1.00  0.00     0.052 A 
BRANCH  24  27
HETATM   27  O   UNL     1      28.180  37.753  43.690  1.00  0.00    -0.358 OA
HETATM   28  H   UNL     1      27.253  37.490  43.536  1.00  0.00     0.218 HD
ENDBRANCH  24  27
BRANCH  25  29
HETATM   29  O   UNL     1      28.258  40.396  43.367  1.00  0.00    -0.353 OA
HETATM   30  C   UNL     1      29.531  40.838  42.911  1.00  0.00     0.210 C 
ENDBRANCH  25  29
ENDBRANCH  20  21
ENDBRANCH   1  19
TORSDOF 5
ENDMDL
MODEL 9
REMARK VINA RESULT:      -8.3      2.900     10.533
REMARK  5 active torsions:
REMARK  status: ('A' for Active; 'I' for Inactive)
REMARK    1  A    between atoms: O_2  and  C_3 
REMARK    2  A    between atoms: C_4  and  O_5 
REMARK    3  A    between atoms: C_8  and  C_9 
REMARK    4  A    between atoms: N_10  and  N_11 
REMARK       I    between atoms: N_11  and  C_12 
REMARK    5  A    between atoms: C_12  and  C_13 
ROOT
HETATM    1  N   UNL     1      24.498  46.335  50.679  1.00  0.00    -0.242 N 
HETATM    2  C   UNL     1      23.795  46.480  49.493  1.00  0.00     0.292 C 
HETATM    3  O   UNL     1      23.645  45.601  48.647  1.00  0.00    -0.264 OA
HETATM    4  H   UNL     1      24.540  47.140  51.299  1.00  0.00     0.192 HD
ENDROOT
BRANCH   2   5
HETATM    5  C   UNL     1      23.220  47.828  49.340  1.00  0.00     0.154 A 
HETATM    6  N   UNL     1      23.848  48.938  49.797  1.00  0.00    -0.168 NA
HETATM    7  N   UNL     1      22.995  49.945  49.502  1.00  0.00    -0.276 N 
HETATM    8  H   UNL     1      23.259  50.890  49.757  1.00  0.00     0.189 HD
HETATM    9  C   UNL     1      21.859  49.533  48.878  1.00  0.00     0.069 A 
HETATM   10  C   UNL     1      21.981  48.168  48.741  1.00  0.00     0.007 A 
HETATM   11  C   UNL     1      20.714  50.302  48.421  1.00  0.00    -0.001 A 
HETATM   12  C   UNL     1      20.909  47.346  48.117  1.00  0.00     0.048 C 
HETATM   13  C   UNL     1      20.061  48.193  47.139  1.00  0.00     0.044 C 
HETATM   14  C   UNL     1      19.783  49.619  47.599  1.00  0.00    -0.045 A 
HETATM   15  C   UNL     1      18.648  50.296  47.134  1.00  0.00     0.008 A 
HETATM   16  C   UNL     1      18.426  51.623  47.501  1.00  0.00     0.001 A 
HETATM   17  C   UNL     1      19.340  52.288  48.319  1.00  0.00     0.001 A 
HETATM   18  C   UNL     1      20.484  51.633  48.779  1.00  0.00     0.014 A 
ENDBRANCH   2   5
BRANCH   1  19
HETATM   19  N   UNL     1      25.059  45.139  51.007  1.00  0.00    -0.184 NA
HETATM   20  C   UNL     1      26.305  44.985  50.696  1.00  0.00     0.150 C 
BRANCH  20  21
HETATM   21  C   UNL     1      27.015  43.729  51.018  1.00  0.00    -0.014 A 
HETATM   22  C   UNL     1      26.834  42.595  50.216  1.00  0.00     0.016 A 
HETATM   23  C   UNL     1      27.496  41.410  50.529  1.00  0.00     0.040 A 
HETATM   24  C   UNL     1      28.335  41.378  51.635  1.00  0.00     0.099 A 
HETATM   25  C   UNL     1      28.538  42.506  52.441  1.00  0.00     0.102 A 
HETATM   26  C   UNL     1      27.866  43.690  52.133  1.00  0.00     0.052 A 
BRANCH  24  27
HETATM   27  O   UNL     1      28.975  40.202  51.922  1.00  0.00    -0.358 OA
HETATM   28  H   UNL     1      28.507  39.522  51.401  1.00  0.00     0.218 HD
ENDBRANCH  24  27
BRANCH  25  29
HETATM   29  O   UNL     1      29.401  42.314  53.490  1.00  0.00    -0.353 OA
HETATM   30  C   UNL     1      29.403  43.308  54.508  1.00  0.00     0.210 C 
ENDBRANCH  25  29
ENDBRANCH  20  21
ENDBRANCH   1  19
TORSDOF 5
ENDMDL
MODEL 10
REMARK VINA RESULT:      -8.3      6.682     10.186
REMARK  5 active torsions:
REMARK  status: ('A' for Active; 'I' for Inactive)
REMARK    1  A    between atoms: O_2  and  C_3 
REMARK    2  A    between atoms: C_4  and  O_5 
REMARK    3  A    between atoms: C_8  and  C_9 
REMARK    4  A    between atoms: N_10  and  N_11 
REMARK       I    between atoms: N_11  and  C_12 
REMARK    5  A    between atoms: C_12  and  C_13 
ROOT
HETATM    1  N   UNL     1      28.742  40.946  51.142  1.00  0.00    -0.242 N 
HETATM    2  C   UNL     1      27.612  40.349  50.603  1.00  0.00     0.292 C 
HETATM    3  O   UNL     1      26.453  40.634  50.895  1.00  0.00    -0.264 OA
HETATM    4  H   UNL     1      29.646  40.622  50.808  1.00  0.00     0.192 HD
ENDROOT
BRANCH   2   5
HETATM    5  C   UNL     1      27.942  39.311  49.612  1.00  0.00     0.154 A 
HETATM    6  N   UNL     1      28.269  38.045  49.971  1.00  0.00    -0.168 NA
HETATM    7  N   UNL     1      28.533  37.427  48.797  1.00  0.00    -0.276 N 
HETATM    8  H   UNL     1      28.806  36.451  48.817  1.00  0.00     0.189 HD
HETATM    9  C   UNL     1      28.389  38.233  47.711  1.00  0.00     0.069 A 
HETATM   10  C   UNL     1      27.989  39.456  48.202  1.00  0.00     0.007 A 
HETATM   11  C   UNL     1      28.594  37.945  46.302  1.00  0.00    -0.001 A 
HETATM   12  C   UNL     1      27.749  40.618  47.305  1.00  0.00     0.048 C 
HETATM   13  C   UNL     1      27.377  40.149  45.879  1.00  0.00     0.044 C 
HETATM   14  C   UNL     1      28.141  38.926  45.385  1.00  0.00    -0.045 A 
HETATM   15  C   UNL     1      28.318  38.720  44.011  1.00  0.00     0.008 A 
HETATM   16  C   UNL     1      28.960  37.568  43.554  1.00  0.00     0.001 A 
HETATM   17  C   UNL     1      29.413  36.610  44.460  1.00  0.00     0.001 A 
HETATM   18  C   UNL     1      29.231  36.793  45.833  1.00  0.00     0.014 A 
ENDBRANCH   2   5
BRANCH   1  19
HETATM   19  N   UNL     1      28.623  41.959  52.043  1.00  0.00    -0.184 NA
HETATM   20  C   UNL     1      29.597  42.097  52.883  1.00  0.00     0.150 C 
BRANCH  20  21
HETATM   21  C   UNL     1      29.575  43.174  53.896  1.00  0.00    -0.014 A 
HETATM   22  C   UNL     1      30.569  43.232  54.880  1.00  0.00     0.016 A 
HETATM   23  C   UNL     1      30.539  44.242  55.839  1.00  0.00     0.040 A 
HETATM   24  C   UNL     1      29.520  45.183  55.796  1.00  0.00     0.099 A 
HETATM   25  C   UNL     1      28.523  45.148  54.811  1.00  0.00     0.102 A 
HETATM   26  C   UNL     1      28.548  44.129  53.858  1.00  0.00     0.052 A 
BRANCH  24  27
HETATM   27  O   UNL     1      29.511  46.166  56.749  1.00  0.00    -0.358 OA
HETATM   28  H   UNL     1      30.372  46.618  56.657  1.00  0.00     0.218 HD
ENDBRANCH  24  27
BRANCH  25  29
HETATM   29  O   UNL     1      27.592  46.151  54.901  1.00  0.00    -0.353 OA
HETATM   30  C   UNL     1      26.314  45.892  54.332  1.00  0.00     0.210 C 
ENDBRANCH  25  29
ENDBRANCH  20  21
ENDBRANCH   1  19
TORSDOF 5
ENDMDL
