MODEL 1
REMARK VINA RESULT:      -9.0      0.000      0.000
REMARK  6 active torsions:
REMARK  status: ('A' for Active; 'I' for Inactive)
REMARK    1  A    between atoms: C_4  and  O_5 
REMARK    2  A    between atoms: O_5  and  C_6 
REMARK    3  A    between atoms: C_6  and  C_7 
REMARK    4  A    between atoms: C_11  and  C_12 
REMARK    5  A    between atoms: C_12  and  N_13 
REMARK       I    between atoms: N_13  and  C_14 
REMARK       I    between atoms: C_14  and  N_15 
REMARK    6  A    between atoms: N_15  and  C_16 
ROOT
HETATM    1  C   UNL     1      26.325  45.323  53.762  1.00  0.00     0.165 C 
ENDROOT
BRANCH   1   2
HETATM    2  C   UNL     1      27.641  44.919  54.382  1.00  0.00    -0.007 A 
HETATM    3  C   UNL     1      28.290  43.727  54.017  1.00  0.00     0.077 A 
HETATM    4  C   UNL     1      29.503  43.380  54.624  1.00  0.00     0.044 A 
HETATM    5  C   UNL     1      30.097  44.223  55.572  1.00  0.00    -0.059 A 
HETATM    6  C   UNL     1      31.409  43.862  56.206  1.00  0.00     0.048 C 
HETATM    7  C   UNL     1      29.476  45.434  55.894  1.00  0.00     0.007 A 
HETATM    8  C   UNL     1      28.256  45.776  55.308  1.00  0.00     0.012 A 
BRANCH   3   9
HETATM    9  O   UNL     1      27.652  42.954  53.086  1.00  0.00    -0.342 OA
BRANCH   9  10
HETATM   10  C   UNL     1      28.406  42.567  51.931  1.00  0.00     0.293 C 
BRANCH  10  11
HETATM   11  C   UNL     1      28.226  41.081  51.660  1.00  0.00     0.408 C 
HETATM   12  F   UNL     1      26.942  40.697  51.828  1.00  0.00    -0.169 F 
HETATM   13  F   UNL     1      28.567  40.796  50.380  1.00  0.00    -0.169 F 
HETATM   14  F   UNL     1      29.003  40.325  52.463  1.00  0.00    -0.169 F 
ENDBRANCH  10  11
ENDBRANCH   9  10
ENDBRANCH   3   9
ENDBRANCH   1   2
BRANCH   1  15
HETATM   15  N   UNL     1      26.496  45.689  52.372  1.00  0.00    -0.339 N 
HETATM   16  C   UNL     1      25.952  46.878  51.933  1.00  0.00     0.321 C 
HETATM   17  N   UNL     1      26.163  47.036  50.582  1.00  0.00    -0.307 N 
HETATM   18  O   UNL     1      25.384  47.667  52.674  1.00  0.00    -0.247 OA
HETATM   19  H   UNL     1      26.950  46.522  50.218  1.00  0.00     0.170 HD
HETATM   20  H   UNL     1      26.403  44.930  51.714  1.00  0.00     0.164 HD
BRANCH  17  21
HETATM   21  C   UNL     1      25.571  48.014  49.751  1.00  0.00     0.059 A 
HETATM   22  C   UNL     1      26.384  48.928  49.058  1.00  0.00    -0.032 A 
HETATM   23  C   UNL     1      27.878  48.962  49.215  1.00  0.00     0.050 C 
HETATM   24  C   UNL     1      25.775  49.851  48.197  1.00  0.00     0.028 A 
HETATM   25  C   UNL     1      24.397  49.837  48.055  1.00  0.00     0.117 A 
HETATM   26  N   UNL     1      23.591  48.978  48.705  1.00  0.00    -0.271 NA
HETATM   27  C   UNL     1      24.193  48.091  49.539  1.00  0.00     0.146 A 
ENDBRANCH  17  21
ENDBRANCH   1  15
TORSDOF 6
ENDMDL
MODEL 2
REMARK VINA RESULT:      -8.8      3.419      4.219
REMARK  6 active torsions:
REMARK  status: ('A' for Active; 'I' for Inactive)
REMARK    1  A    between atoms: C_4  and  O_5 
REMARK    2  A    between atoms: O_5  and  C_6 
REMARK    3  A    between atoms: C_6  and  C_7 
REMARK    4  A    between atoms: C_11  and  C_12 
REMARK    5  A    between atoms: C_12  and  N_13 
REMARK       I    between atoms: N_13  and  C_14 
REMARK       I    between atoms: C_14  and  N_15 
REMARK    6  A    between atoms: N_15  and  C_16 
ROOT
HETATM    1  C   UNL     1      26.243  44.694  53.077  1.00  0.00     0.165 C 
ENDROOT
BRANCH   1   2
HETATM    2  C   UNL     1      27.531  44.481  53.834  1.00  0.00    -0.007 A 
HETATM    3  C   UNL     1      27.911  45.325  54.892  1.00  0.00     0.077 A 
HETATM    4  C   UNL     1      29.120  45.104  55.562  1.00  0.00     0.044 A 
HETATM    5  C   UNL     1      29.946  44.027  55.211  1.00  0.00    -0.059 A 
HETATM    6  C   UNL     1      31.231  43.776  55.945  1.00  0.00     0.048 C 
HETATM    7  C   UNL     1      29.541  43.158  54.194  1.00  0.00     0.007 A 
HETATM    8  C   UNL     1      28.347  43.386  53.508  1.00  0.00     0.012 A 
BRANCH   3   9
HETATM    9  O   UNL     1      27.055  46.354  55.178  1.00  0.00    -0.342 OA
BRANCH   9  10
HETATM   10  C   UNL     1      27.584  47.683  55.103  1.00  0.00     0.293 C 
BRANCH  10  11
HETATM   11  C   UNL     1      26.568  48.684  55.632  1.00  0.00     0.408 C 
HETATM   12  F   UNL     1      26.228  48.418  56.913  1.00  0.00    -0.169 F 
HETATM   13  F   UNL     1      27.087  49.934  55.605  1.00  0.00    -0.169 F 
HETATM   14  F   UNL     1      25.442  48.698  54.889  1.00  0.00    -0.169 F 
ENDBRANCH  10  11
ENDBRANCH   9  10
ENDBRANCH   3   9
ENDBRANCH   1   2
BRANCH   1  15
HETATM   15  N   UNL     1      26.492  45.299  51.786  1.00  0.00    -0.339 N 
HETATM   16  C   UNL     1      25.909  46.517  51.506  1.00  0.00     0.321 C 
HETATM   17  N   UNL     1      26.209  46.913  50.223  1.00  0.00    -0.307 N 
HETATM   18  O   UNL     1      25.239  47.139  52.319  1.00  0.00    -0.247 OA
HETATM   19  H   UNL     1      27.052  46.508  49.846  1.00  0.00     0.170 HD
HETATM   20  H   UNL     1      26.496  44.659  51.006  1.00  0.00     0.164 HD
BRANCH  17  21
HETATM   21  C   UNL     1      25.620  47.988  49.520  1.00  0.00     0.059 A 
HETATM   22  C   UNL     1      26.434  48.992  48.968  1.00  0.00    -0.032 A 
HETATM   23  C   UNL     1      27.925  49.017  49.153  1.00  0.00     0.050 C 
HETATM   24  C   UNL     1      25.829  50.017  48.227  1.00  0.00     0.028 A 
HETATM   25  C   UNL     1      24.453  50.011  48.062  1.00  0.00     0.117 A 
HETATM   26  N   UNL     1      23.646  49.067  48.578  1.00  0.00    -0.271 NA
HETATM   27  C   UNL     1      24.244  48.082  49.297  1.00  0.00     0.146 A 
ENDBRANCH  17  21
ENDBRANCH   1  15
TORSDOF 6
ENDMDL
MODEL 3
REMARK VINA RESULT:      -8.5      4.912      7.149
REMARK  6 active torsions:
REMARK  status: ('A' for Active; 'I' for Inactive)
REMARK    1  A    between atoms: C_4  and  O_5 
REMARK    2  A    between atoms: O_5  and  C_6 
REMARK    3  A    between atoms: C_6  and  C_7 
REMARK    4  A    between atoms: C_11  and  C_12 
REMARK    5  A    between atoms: C_12  and  N_13 
REMARK       I    between atoms: N_13  and  C_14 
REMARK       I    between atoms: C_14  and  N_15 
REMARK    6  A    between atoms: N_15  and  C_16 
ROOT
HETATM    1  C   UNL     1      27.807  41.759  53.727  1.00  0.00     0.165 C 
ENDROOT
BRANCH   1   2
HETATM    2  C   UNL     1      27.797  43.238  54.027  1.00  0.00    -0.007 A 
HETATM    3  C   UNL     1      28.863  43.859  54.701  1.00  0.00     0.077 A 
HETATM    4  C   UNL     1      28.811  45.231  54.973  1.00  0.00     0.044 A 
HETATM    5  C   UNL     1      27.720  46.005  54.554  1.00  0.00    -0.059 A 
HETATM    6  C   UNL     1      27.676  47.480  54.825  1.00  0.00     0.048 C 
HETATM    7  C   UNL     1      26.686  45.394  53.838  1.00  0.00     0.007 A 
HETATM    8  C   UNL     1      26.722  44.023  53.582  1.00  0.00     0.012 A 
BRANCH   3   9
HETATM    9  O   UNL     1      29.894  43.043  55.080  1.00  0.00    -0.342 OA
BRANCH   9  10
HETATM   10  C   UNL     1      31.104  43.676  55.509  1.00  0.00     0.293 C 
BRANCH  10  11
HETATM   11  C   UNL     1      31.349  43.396  56.984  1.00  0.00     0.408 C 
HETATM   12  F   UNL     1      30.927  42.160  57.332  1.00  0.00    -0.169 F 
HETATM   13  F   UNL     1      32.674  43.460  57.257  1.00  0.00    -0.169 F 
HETATM   14  F   UNL     1      30.729  44.294  57.777  1.00  0.00    -0.169 F 
ENDBRANCH  10  11
ENDBRANCH   9  10
ENDBRANCH   3   9
ENDBRANCH   1   2
BRANCH   1  15
HETATM   15  N   UNL     1      28.603  41.473  52.552  1.00  0.00    -0.339 N 
HETATM   16  C   UNL     1      27.979  40.925  51.451  1.00  0.00     0.321 C 
HETATM   17  N   UNL     1      28.893  40.671  50.454  1.00  0.00    -0.307 N 
HETATM   18  O   UNL     1      26.774  40.725  51.397  1.00  0.00    -0.247 OA
HETATM   19  H   UNL     1      29.729  41.231  50.500  1.00  0.00     0.170 HD
HETATM   20  H   UNL     1      29.517  41.087  52.737  1.00  0.00     0.164 HD
BRANCH  17  21
HETATM   21  C   UNL     1      28.661  39.922  49.278  1.00  0.00     0.059 A 
HETATM   22  C   UNL     1      29.089  38.585  49.205  1.00  0.00    -0.032 A 
HETATM   23  C   UNL     1      29.858  37.921  50.311  1.00  0.00     0.050 C 
HETATM   24  C   UNL     1      28.796  37.848  48.049  1.00  0.00     0.028 A 
HETATM   25  C   UNL     1      28.099  38.455  47.017  1.00  0.00     0.117 A 
HETATM   26  N   UNL     1      27.678  39.732  47.055  1.00  0.00    -0.271 NA
HETATM   27  C   UNL     1      27.971  40.437  48.178  1.00  0.00     0.146 A 
ENDBRANCH  17  21
ENDBRANCH   1  15
TORSDOF 6
ENDMDL
MODEL 4
REMARK VINA RESULT:      -8.3      4.198      5.222
REMARK  6 active torsions:
REMARK  status: ('A' for Active; 'I' for Inactive)
REMARK    1  A    between atoms: C_4  and  O_5 
REMARK    2  A    between atoms: O_5  and  C_6 
REMARK    3  A    between atoms: C_6  and  C_7 
REMARK    4  A    between atoms: C_11  and  C_12 
REMARK    5  A    between atoms: C_12  and  N_13 
REMARK       I    between atoms: N_13  and  C_14 
REMARK       I    between atoms: C_14  and  N_15 
REMARK    6  A    between atoms: N_15  and  C_16 
ROOT
HETATM    1  C   UNL     1      29.410  43.089  53.068  1.00  0.00     0.165 C 
ENDROOT
BRANCH   1   2
HETATM    2  C   UNL     1      29.728  43.743  54.391  1.00  0.00    -0.007 A 
HETATM    3  C   UNL     1      29.014  44.863  54.850  1.00  0.00     0.077 A 
HETATM    4  C   UNL     1      29.348  45.449  56.076  1.00  0.00     0.044 A 
HETATM    5  C   UNL     1      30.369  44.913  56.872  1.00  0.00    -0.059 A 
HETATM    6  C   UNL     1      30.711  45.528  58.198  1.00  0.00     0.048 C 
HETATM    7  C   UNL     1      31.042  43.767  56.439  1.00  0.00     0.007 A 
HETATM    8  C   UNL     1      30.729  43.191  55.207  1.00  0.00     0.012 A 
BRANCH   3   9
HETATM    9  O   UNL     1      28.031  45.331  54.020  1.00  0.00    -0.342 OA
BRANCH   9  10
HETATM   10  C   UNL     1      26.917  45.987  54.635  1.00  0.00     0.293 C 
BRANCH  10  11
HETATM   11  C   UNL     1      26.863  47.445  54.203  1.00  0.00     0.408 C 
HETATM   12  F   UNL     1      26.623  47.563  52.879  1.00  0.00    -0.169 F 
HETATM   13  F   UNL     1      25.861  48.087  54.851  1.00  0.00    -0.169 F 
HETATM   14  F   UNL     1      28.010  48.097  54.486  1.00  0.00    -0.169 F 
ENDBRANCH  10  11
ENDBRANCH   9  10
ENDBRANCH   3   9
ENDBRANCH   1   2
BRANCH   1  15
HETATM   15  N   UNL     1      28.011  42.725  52.991  1.00  0.00    -0.339 N 
HETATM   16  C   UNL     1      27.362  42.858  51.782  1.00  0.00     0.321 C 
HETATM   17  N   UNL     1      26.034  42.520  51.907  1.00  0.00    -0.307 N 
HETATM   18  O   UNL     1      27.927  43.211  50.756  1.00  0.00    -0.247 OA
HETATM   19  H   UNL     1      25.829  41.901  52.675  1.00  0.00     0.170 HD
HETATM   20  H   UNL     1      27.452  42.998  53.786  1.00  0.00     0.164 HD
BRANCH  17  21
HETATM   21  C   UNL     1      25.022  42.736  50.944  1.00  0.00     0.059 A 
HETATM   22  C   UNL     1      24.355  43.973  50.897  1.00  0.00    -0.032 A 
HETATM   23  C   UNL     1      24.622  45.074  51.884  1.00  0.00     0.050 C 
HETATM   24  C   UNL     1      23.395  44.182  49.896  1.00  0.00     0.028 A 
HETATM   25  C   UNL     1      23.132  43.168  48.989  1.00  0.00     0.117 A 
HETATM   26  N   UNL     1      23.750  41.973  49.008  1.00  0.00    -0.271 NA
HETATM   27  C   UNL     1      24.675  41.782  49.984  1.00  0.00     0.146 A 
ENDBRANCH  17  21
ENDBRANCH   1  15
TORSDOF 6
ENDMDL
MODEL 5
REMARK VINA RESULT:      -8.2      4.851      6.637
REMARK  6 active torsions:
REMARK  status: ('A' for Active; 'I' for Inactive)
REMARK    1  A    between atoms: C_4  and  O_5 
REMARK    2  A    between atoms: O_5  and  C_6 
REMARK    3  A    between atoms: C_6  and  C_7 
REMARK    4  A    between atoms: C_11  and  C_12 
REMARK    5  A    between atoms: C_12  and  N_13 
REMARK       I    between atoms: N_13  and  C_14 
REMARK       I    between atoms: C_14  and  N_15 
REMARK    6  A    between atoms: N_15  and  C_16 
ROOT
HETATM    1  C   UNL     1      28.487  42.356  54.022  1.00  0.00     0.165 C 
ENDROOT
BRANCH   1   2
HETATM    2  C   UNL     1      28.036  43.772  54.287  1.00  0.00    -0.007 A 
HETATM    3  C   UNL     1      28.869  44.702  54.931  1.00  0.00     0.077 A 
HETATM    4  C   UNL     1      28.409  46.002  55.171  1.00  0.00     0.044 A 
HETATM    5  C   UNL     1      27.133  46.401  54.747  1.00  0.00    -0.059 A 
HETATM    6  C   UNL     1      26.650  47.802  54.984  1.00  0.00     0.048 C 
HETATM    7  C   UNL     1      26.327  45.489  54.059  1.00  0.00     0.007 A 
HETATM    8  C   UNL     1      26.772  44.185  53.836  1.00  0.00     0.012 A 
BRANCH   3   9
HETATM    9  O   UNL     1      30.099  44.243  55.317  1.00  0.00    -0.342 OA
BRANCH   9  10
HETATM   10  C   UNL     1      30.709  44.879  56.445  1.00  0.00     0.293 C 
BRANCH  10  11
HETATM   11  C   UNL     1      31.463  43.857  57.281  1.00  0.00     0.408 C 
HETATM   12  F   UNL     1      32.703  43.632  56.793  1.00  0.00    -0.169 F 
HETATM   13  F   UNL     1      31.607  44.307  58.551  1.00  0.00    -0.169 F 
HETATM   14  F   UNL     1      30.812  42.677  57.342  1.00  0.00    -0.169 F 
ENDBRANCH  10  11
ENDBRANCH   9  10
ENDBRANCH   3   9
ENDBRANCH   1   2
BRANCH   1  15
HETATM   15  N   UNL     1      27.439  41.586  53.386  1.00  0.00    -0.339 N 
HETATM   16  C   UNL     1      27.601  41.217  52.068  1.00  0.00     0.321 C 
HETATM   17  N   UNL     1      26.490  40.541  51.616  1.00  0.00    -0.307 N 
HETATM   18  O   UNL     1      28.614  41.457  51.426  1.00  0.00    -0.247 OA
HETATM   19  H   UNL     1      25.946  40.099  52.339  1.00  0.00     0.170 HD
HETATM   20  H   UNL     1      26.499  41.868  53.619  1.00  0.00     0.164 HD
BRANCH  17  21
HETATM   21  C   UNL     1      26.207  40.202  50.273  1.00  0.00     0.059 A 
HETATM   22  C   UNL     1      25.382  41.038  49.501  1.00  0.00    -0.032 A 
HETATM   23  C   UNL     1      24.716  42.261  50.064  1.00  0.00     0.050 C 
HETATM   24  C   UNL     1      25.162  40.709  48.156  1.00  0.00     0.028 A 
HETATM   25  C   UNL     1      25.760  39.575  47.630  1.00  0.00     0.117 A 
HETATM   26  N   UNL     1      26.553  38.754  48.342  1.00  0.00    -0.271 NA
HETATM   27  C   UNL     1      26.755  39.082  49.644  1.00  0.00     0.146 A 
ENDBRANCH  17  21
ENDBRANCH   1  15
TORSDOF 6
ENDMDL
MODEL 6
REMARK VINA RESULT:      -8.2      1.183      2.047
REMARK  6 active torsions:
REMARK  status: ('A' for Active; 'I' for Inactive)
REMARK    1  A    between atoms: C_4  and  O_5 
REMARK    2  A    between atoms: O_5  and  C_6 
REMARK    3  A    between atoms: C_6  and  C_7 
REMARK    4  A    between atoms: C_11  and  C_12 
REMARK    5  A    between atoms: C_12  and  N_13 
REMARK       I    between atoms: N_13  and  C_14 
REMARK       I    between atoms: C_14  and  N_15 
REMARK    6  A    between atoms: N_15  and  C_16 
ROOT
HETATM    1  C   UNL     1      26.988  45.876  54.549  1.00  0.00     0.165 C 
ENDROOT
BRANCH   1   2
HETATM    2  C   UNL     1      28.264  45.229  55.029  1.00  0.00    -0.007 A 
HETATM    3  C   UNL     1      28.675  43.971  54.555  1.00  0.00     0.077 A 
HETATM    4  C   UNL     1      29.858  43.397  55.034  1.00  0.00     0.044 A 
HETATM    5  C   UNL     1      30.660  44.077  55.962  1.00  0.00    -0.059 A 
HETATM    6  C   UNL     1      31.941  43.472  56.458  1.00  0.00     0.048 C 
HETATM    7  C   UNL     1      30.276  45.351  56.391  1.00  0.00     0.007 A 
HETATM    8  C   UNL     1      29.086  45.919  55.934  1.00  0.00     0.012 A 
BRANCH   3   9
HETATM    9  O   UNL     1      27.843  43.367  53.652  1.00  0.00    -0.342 OA
BRANCH   9  10
HETATM   10  C   UNL     1      28.458  42.677  52.558  1.00  0.00     0.293 C 
BRANCH  10  11
HETATM   11  C   UNL     1      28.123  41.195  52.617  1.00  0.00     0.408 C 
HETATM   12  F   UNL     1      29.210  40.429  52.377  1.00  0.00    -0.169 F 
HETATM   13  F   UNL     1      27.664  40.868  53.849  1.00  0.00    -0.169 F 
HETATM   14  F   UNL     1      27.165  40.860  51.727  1.00  0.00    -0.169 F 
ENDBRANCH  10  11
ENDBRANCH   9  10
ENDBRANCH   3   9
ENDBRANCH   1   2
BRANCH   1  15
HETATM   15  N   UNL     1      26.894  45.833  53.105  1.00  0.00    -0.339 N 
HETATM   16  C   UNL     1      26.018  46.692  52.476  1.00  0.00     0.321 C 
HETATM   17  N   UNL     1      26.021  46.476  51.117  1.00  0.00    -0.307 N 
HETATM   18  O   UNL     1      25.360  47.532  53.075  1.00  0.00    -0.247 OA
HETATM   19  H   UNL     1      26.864  46.053  50.762  1.00  0.00     0.170 HD
HETATM   20  H   UNL     1      26.920  44.909  52.701  1.00  0.00     0.164 HD
BRANCH  17  21
HETATM   21  C   UNL     1      25.105  47.012  50.183  1.00  0.00     0.059 A 
HETATM   22  C   UNL     1      24.010  46.239  49.757  1.00  0.00    -0.032 A 
HETATM   23  C   UNL     1      23.801  44.820  50.200  1.00  0.00     0.050 C 
HETATM   24  C   UNL     1      23.086  46.814  48.873  1.00  0.00     0.028 A 
HETATM   25  C   UNL     1      23.277  48.119  48.448  1.00  0.00     0.117 A 
HETATM   26  N   UNL     1      24.314  48.883  48.835  1.00  0.00    -0.271 NA
HETATM   27  C   UNL     1      25.205  48.314  49.688  1.00  0.00     0.146 A 
ENDBRANCH  17  21
ENDBRANCH   1  15
TORSDOF 6
ENDMDL
MODEL 7
REMARK VINA RESULT:      -8.1      3.488      8.214
REMARK  6 active torsions:
REMARK  status: ('A' for Active; 'I' for Inactive)
REMARK    1  A    between atoms: C_4  and  O_5 
REMARK    2  A    between atoms: O_5  and  C_6 
REMARK    3  A    between atoms: C_6  and  C_7 
REMARK    4  A    between atoms: C_11  and  C_12 
REMARK    5  A    between atoms: C_12  and  N_13 
REMARK       I    between atoms: N_13  and  C_14 
REMARK       I    between atoms: C_14  and  N_15 
REMARK    6  A    between atoms: N_15  and  C_16 
ROOT
HETATM    1  C   UNL     1      23.690  46.293  49.145  1.00  0.00     0.165 C 
ENDROOT
BRANCH   1   2
HETATM    2  C   UNL     1      22.981  47.615  48.981  1.00  0.00    -0.007 A 
HETATM    3  C   UNL     1      23.629  48.835  49.236  1.00  0.00     0.077 A 
HETATM    4  C   UNL     1      22.933  50.040  49.085  1.00  0.00     0.044 A 
HETATM    5  C   UNL     1      21.601  50.048  48.650  1.00  0.00    -0.059 A 
HETATM    6  C   UNL     1      20.862  51.342  48.465  1.00  0.00     0.048 C 
HETATM    7  C   UNL     1      20.975  48.836  48.346  1.00  0.00     0.007 A 
HETATM    8  C   UNL     1      21.656  47.630  48.515  1.00  0.00     0.012 A 
BRANCH   3   9
HETATM    9  O   UNL     1      24.929  48.750  49.657  1.00  0.00    -0.342 OA
BRANCH   9  10
HETATM   10  C   UNL     1      25.942  49.154  48.730  1.00  0.00     0.293 C 
BRANCH  10  11
HETATM   11  C   UNL     1      27.321  48.828  49.284  1.00  0.00     0.408 C 
HETATM   12  F   UNL     1      27.258  48.440  50.577  1.00  0.00    -0.169 F 
HETATM   13  F   UNL     1      27.877  47.810  48.585  1.00  0.00    -0.169 F 
HETATM   14  F   UNL     1      28.160  49.882  49.199  1.00  0.00    -0.169 F 
ENDBRANCH  10  11
ENDBRANCH   9  10
ENDBRANCH   3   9
ENDBRANCH   1   2
BRANCH   1  15
HETATM   15  N   UNL     1      23.960  46.017  50.541  1.00  0.00    -0.339 N 
HETATM   16  C   UNL     1      25.236  45.640  50.903  1.00  0.00     0.321 C 
HETATM   17  N   UNL     1      25.295  45.368  52.250  1.00  0.00    -0.307 N 
HETATM   18  O   UNL     1      26.166  45.584  50.111  1.00  0.00    -0.247 OA
HETATM   19  H   UNL     1      24.585  45.823  52.801  1.00  0.00     0.170 HD
HETATM   20  H   UNL     1      23.232  45.515  51.027  1.00  0.00     0.164 HD
BRANCH  17  21
HETATM   21  C   UNL     1      26.370  44.753  52.933  1.00  0.00     0.059 A 
HETATM   22  C   UNL     1      27.136  45.500  53.846  1.00  0.00    -0.032 A 
HETATM   23  C   UNL     1      26.909  46.965  54.083  1.00  0.00     0.050 C 
HETATM   24  C   UNL     1      28.159  44.852  54.552  1.00  0.00     0.028 A 
HETATM   25  C   UNL     1      28.386  43.503  54.330  1.00  0.00     0.117 A 
HETATM   26  N   UNL     1      27.673  42.762  53.463  1.00  0.00    -0.271 NA
HETATM   27  C   UNL     1      26.686  43.401  52.783  1.00  0.00     0.146 A 
ENDBRANCH  17  21
ENDBRANCH   1  15
TORSDOF 6
ENDMDL
MODEL 8
REMARK VINA RESULT:      -8.0      4.099      6.766
REMARK  6 active torsions:
REMARK  status: ('A' for Active; 'I' for Inactive)
REMARK    1  A    between atoms: C_4  and  O_5 
REMARK    2  A    between atoms: O_5  and  C_6 
REMARK    3  A    between atoms: C_6  and  C_7 
REMARK    4  A    between atoms: C_11  and  C_12 
REMARK    5  A    between atoms: C_12  and  N_13 
REMARK       I    between atoms: N_13  and  C_14 
REMARK       I    between atoms: C_14  and  N_15 
REMARK    6  A    between atoms: N_15  and  C_16 
ROOT
HETATM    1  C   UNL     1      27.924  41.581  53.156  1.00  0.00     0.165 C 
ENDROOT
BRANCH   1   2
HETATM    2  C   UNL     1      28.527  42.702  53.967  1.00  0.00    -0.007 A 
HETATM    3  C   UNL     1      27.777  43.834  54.330  1.00  0.00     0.077 A 
HETATM    4  C   UNL     1      28.376  44.859  55.071  1.00  0.00     0.044 A 
HETATM    5  C   UNL     1      29.712  44.758  55.486  1.00  0.00    -0.059 A 
HETATM    6  C   UNL     1      30.347  45.846  56.301  1.00  0.00     0.048 C 
HETATM    7  C   UNL     1      30.439  43.607  55.168  1.00  0.00     0.007 A 
HETATM    8  C   UNL     1      29.854  42.591  54.411  1.00  0.00     0.012 A 
BRANCH   3   9
HETATM    9  O   UNL     1      26.482  43.864  53.891  1.00  0.00    -0.342 OA
BRANCH   9  10
HETATM   10  C   UNL     1      26.131  44.896  52.962  1.00  0.00     0.293 C 
BRANCH  10  11
HETATM   11  C   UNL     1      26.069  44.332  51.550  1.00  0.00     0.408 C 
HETATM   12  F   UNL     1      25.394  43.162  51.511  1.00  0.00    -0.169 F 
HETATM   13  F   UNL     1      25.424  45.196  50.731  1.00  0.00    -0.169 F 
HETATM   14  F   UNL     1      27.299  44.129  51.034  1.00  0.00    -0.169 F 
ENDBRANCH  10  11
ENDBRANCH   9  10
ENDBRANCH   3   9
ENDBRANCH   1   2
BRANCH   1  15
HETATM   15  N   UNL     1      28.695  41.334  51.956  1.00  0.00    -0.339 N 
HETATM   16  C   UNL     1      28.070  40.732  50.884  1.00  0.00     0.321 C 
HETATM   17  N   UNL     1      28.962  40.527  49.857  1.00  0.00    -0.307 N 
HETATM   18  O   UNL     1      26.879  40.452  50.876  1.00  0.00    -0.247 OA
HETATM   19  H   UNL     1      29.760  41.143  49.866  1.00  0.00     0.170 HD
HETATM   20  H   UNL     1      29.638  41.012  52.111  1.00  0.00     0.164 HD
BRANCH  17  21
HETATM   21  C   UNL     1      28.739  39.751  48.697  1.00  0.00     0.059 A 
HETATM   22  C   UNL     1      29.158  38.409  48.664  1.00  0.00    -0.032 A 
HETATM   23  C   UNL     1      29.908  37.768  49.796  1.00  0.00     0.050 C 
HETATM   24  C   UNL     1      28.874  37.645  47.523  1.00  0.00     0.028 A 
HETATM   25  C   UNL     1      28.194  38.231  46.468  1.00  0.00     0.117 A 
HETATM   26  N   UNL     1      27.782  39.511  46.467  1.00  0.00    -0.271 NA
HETATM   27  C   UNL     1      28.066  40.242  47.576  1.00  0.00     0.146 A 
ENDBRANCH  17  21
ENDBRANCH   1  15
TORSDOF 6
ENDMDL
MODEL 9
REMARK VINA RESULT:      -7.8      1.645      2.290
REMARK  6 active torsions:
REMARK  status: ('A' for Active; 'I' for Inactive)
REMARK    1  A    between atoms: C_4  and  O_5 
REMARK    2  A    between atoms: O_5  and  C_6 
REMARK    3  A    between atoms: C_6  and  C_7 
REMARK    4  A    between atoms: C_11  and  C_12 
REMARK    5  A    between atoms: C_12  and  N_13 
REMARK       I    between atoms: N_13  and  C_14 
REMARK       I    between atoms: C_14  and  N_15 
REMARK    6  A    between atoms: N_15  and  C_16 
ROOT
HETATM    1  C   UNL     1      25.768  43.749  52.130  1.00  0.00     0.165 C 
ENDROOT
BRANCH   1   2
HETATM    2  C   UNL     1      27.021  43.610  52.960  1.00  0.00    -0.007 A 
HETATM    3  C   UNL     1      27.809  42.447  52.914  1.00  0.00     0.077 A 
HETATM    4  C   UNL     1      28.957  42.350  53.709  1.00  0.00     0.044 A 
HETATM    5  C   UNL     1      29.350  43.415  54.532  1.00  0.00    -0.059 A 
HETATM    6  C   UNL     1      30.594  43.320  55.367  1.00  0.00     0.048 C 
HETATM    7  C   UNL     1      28.593  44.590  54.536  1.00  0.00     0.007 A 
HETATM    8  C   UNL     1      27.436  44.685  53.762  1.00  0.00     0.012 A 
BRANCH   3   9
HETATM    9  O   UNL     1      27.364  41.450  52.089  1.00  0.00    -0.342 OA
BRANCH   9  10
HETATM   10  C   UNL     1      28.357  40.657  51.429  1.00  0.00     0.293 C 
BRANCH  10  11
HETATM   11  C   UNL     1      27.887  40.281  50.032  1.00  0.00     0.408 C 
HETATM   12  F   UNL     1      27.555  38.974  49.955  1.00  0.00    -0.169 F 
HETATM   13  F   UNL     1      26.785  40.996  49.702  1.00  0.00    -0.169 F 
HETATM   14  F   UNL     1      28.829  40.535  49.099  1.00  0.00    -0.169 F 
ENDBRANCH  10  11
ENDBRANCH   9  10
ENDBRANCH   3   9
ENDBRANCH   1   2
BRANCH   1  15
HETATM   15  N   UNL     1      25.406  45.141  51.964  1.00  0.00    -0.339 N 
HETATM   16  C   UNL     1      25.663  45.749  50.754  1.00  0.00     0.321 C 
HETATM   17  N   UNL     1      25.306  47.077  50.794  1.00  0.00    -0.307 N 
HETATM   18  O   UNL     1      26.129  45.153  49.793  1.00  0.00    -0.247 OA
HETATM   19  H   UNL     1      24.606  47.301  51.484  1.00  0.00     0.170 HD
HETATM   20  H   UNL     1      25.588  45.729  52.763  1.00  0.00     0.164 HD
BRANCH  17  21
HETATM   21  C   UNL     1      25.618  48.057  49.825  1.00  0.00     0.059 A 
HETATM   22  C   UNL     1      24.582  48.703  49.126  1.00  0.00    -0.032 A 
HETATM   23  C   UNL     1      23.135  48.345  49.312  1.00  0.00     0.050 C 
HETATM   24  C   UNL     1      24.916  49.711  48.211  1.00  0.00     0.028 A 
HETATM   25  C   UNL     1      26.249  50.040  48.022  1.00  0.00     0.117 A 
HETATM   26  N   UNL     1      27.262  49.440  48.673  1.00  0.00    -0.271 NA
HETATM   27  C   UNL     1      26.926  48.463  49.554  1.00  0.00     0.146 A 
ENDBRANCH  17  21
ENDBRANCH   1  15
TORSDOF 6
ENDMDL
MODEL 10
REMARK VINA RESULT:      -7.8      3.403      4.389
REMARK  6 active torsions:
REMARK  status: ('A' for Active; 'I' for Inactive)
REMARK    1  A    between atoms: C_4  and  O_5 
REMARK    2  A    between atoms: O_5  and  C_6 
REMARK    3  A    between atoms: C_6  and  C_7 
REMARK    4  A    between atoms: C_11  and  C_12 
REMARK    5  A    between atoms: C_12  and  N_13 
REMARK       I    between atoms: N_13  and  C_14 
REMARK       I    between atoms: C_14  and  N_15 
REMARK    6  A    between atoms: N_15  and  C_16 
ROOT
HETATM    1  C   UNL     1      26.588  43.837  53.401  1.00  0.00     0.165 C 
ENDROOT
BRANCH   1   2
HETATM    2  C   UNL     1      27.896  43.871  54.153  1.00  0.00    -0.007 A 
HETATM    3  C   UNL     1      28.271  44.982  54.927  1.00  0.00     0.077 A 
HETATM    4  C   UNL     1      29.499  44.981  55.599  1.00  0.00     0.044 A 
HETATM    5  C   UNL     1      30.350  43.869  55.537  1.00  0.00    -0.059 A 
HETATM    6  C   UNL     1      31.655  43.859  56.277  1.00  0.00     0.048 C 
HETATM    7  C   UNL     1      29.950  42.744  54.809  1.00  0.00     0.007 A 
HETATM    8  C   UNL     1      28.737  42.747  54.119  1.00  0.00     0.012 A 
BRANCH   3   9
HETATM    9  O   UNL     1      27.392  46.030  54.941  1.00  0.00    -0.342 OA
BRANCH   9  10
HETATM   10  C   UNL     1      27.750  47.171  55.729  1.00  0.00     0.293 C 
BRANCH  10  11
HETATM   11  C   UNL     1      26.687  48.252  55.602  1.00  0.00     0.408 C 
HETATM   12  F   UNL     1      25.758  47.929  54.676  1.00  0.00    -0.169 F 
HETATM   13  F   UNL     1      26.040  48.412  56.781  1.00  0.00    -0.169 F 
HETATM   14  F   UNL     1      27.221  49.446  55.269  1.00  0.00    -0.169 F 
ENDBRANCH  10  11
ENDBRANCH   9  10
ENDBRANCH   3   9
ENDBRANCH   1   2
BRANCH   1  15
HETATM   15  N   UNL     1      26.704  44.510  52.124  1.00  0.00    -0.339 N 
HETATM   16  C   UNL     1      25.847  45.554  51.850  1.00  0.00     0.321 C 
HETATM   17  N   UNL     1      26.063  46.037  50.580  1.00  0.00    -0.307 N 
HETATM   18  O   UNL     1      25.032  45.979  52.657  1.00  0.00    -0.247 OA
HETATM   19  H   UNL     1      26.985  45.856  50.215  1.00  0.00     0.170 HD
HETATM   20  H   UNL     1      26.877  43.906  51.335  1.00  0.00     0.164 HD
BRANCH  17  21
HETATM   21  C   UNL     1      25.241  46.949  49.880  1.00  0.00     0.059 A 
HETATM   22  C   UNL     1      23.990  46.531  49.393  1.00  0.00    -0.032 A 
HETATM   23  C   UNL     1      23.505  45.115  49.522  1.00  0.00     0.050 C 
HETATM   24  C   UNL     1      23.170  47.471  48.753  1.00  0.00     0.028 A 
HETATM   25  C   UNL     1      23.614  48.776  48.617  1.00  0.00     0.117 A 
HETATM   26  N   UNL     1      24.805  49.207  49.069  1.00  0.00    -0.271 NA
HETATM   27  C   UNL     1      25.592  48.287  49.685  1.00  0.00     0.146 A 
ENDBRANCH  17  21
ENDBRANCH   1  15
TORSDOF 6
ENDMDL
