MODEL 1
REMARK VINA RESULT:     -10.2      0.000      0.000
REMARK  5 active torsions:
REMARK  status: ('A' for Active; 'I' for Inactive)
REMARK    1  A    between atoms: C_2  and  C_3 
REMARK       I    between atoms: C_3  and  N_4 
REMARK    2  A    between atoms: N_4  and  N_5 
REMARK    3  A    between atoms: N_5  and  C_6 
REMARK    4  A    between atoms: N_7  and  C_8 
REMARK    5  A    between atoms: C_8  and  C_9 
ROOT
HETATM    1  C   UNL     1      26.241  44.907  50.695  1.00  0.00     0.200 A 
HETATM    2  N   UNL     1      25.578  46.015  51.182  1.00  0.00    -0.283 N 
HETATM    3  C   UNL     1      25.838  46.497  52.454  1.00  0.00     0.259 A 
HETATM    4  O   UNL     1      25.248  47.474  52.914  1.00  0.00    -0.267 OA
HETATM    5  C   UNL     1      26.879  45.794  53.253  1.00  0.00     0.049 A 
HETATM    6  C   UNL     1      27.493  44.771  52.628  1.00  0.00     0.083 A 
HETATM    7  C   UNL     1      28.604  44.064  53.320  1.00  0.00    -0.000 A 
HETATM    8  C   UNL     1      28.745  44.171  54.712  1.00  0.00    -0.044 A 
HETATM    9  C   UNL     1      29.766  43.479  55.377  1.00  0.00     0.008 A 
HETATM   10  C   UNL     1      30.669  42.698  54.657  1.00  0.00     0.001 A 
HETATM   11  C   UNL     1      30.550  42.597  53.274  1.00  0.00     0.001 A 
HETATM   12  C   UNL     1      29.522  43.272  52.611  1.00  0.00     0.014 A 
HETATM   13  C   UNL     1      27.743  44.990  55.478  1.00  0.00     0.054 C 
HETATM   14  C   UNL     1      27.255  46.231  54.680  1.00  0.00    -0.002 C 
HETATM   15  C   UNL     1      28.355  47.320  54.641  1.00  0.00     0.015 C 
HETATM   16  C   UNL     1      27.600  48.638  54.596  1.00  0.00     0.001 C 
HETATM   17  C   UNL     1      26.399  48.414  55.502  1.00  0.00     0.001 C 
HETATM   18  C   UNL     1      26.138  46.904  55.523  1.00  0.00     0.015 C 
HETATM   19  N   UNL     1      27.176  44.315  51.381  1.00  0.00    -0.218 NA
ENDROOT
BRANCH   1  20
HETATM   20  N   UNL     1      25.917  44.382  49.450  1.00  0.00    -0.188 NA
HETATM   21  H   UNL     1      24.972  44.009  49.359  1.00  0.00     0.150 HD
BRANCH  20  22
HETATM   22  N   UNL     1      26.868  43.428  48.983  1.00  0.00    -0.189 NA
HETATM   23  C   UNL     1      26.403  42.125  48.953  1.00  0.00     0.210 C 
HETATM   24  O   UNL     1      25.204  41.849  48.988  1.00  0.00    -0.279 OA
HETATM   25  H   UNL     1      27.792  43.595  49.388  1.00  0.00     0.150 HD
BRANCH  23  26
HETATM   26  C   UNL     1      27.496  41.082  48.897  1.00  0.00     0.093 C 
HETATM   27  C   UNL     1      28.000  40.766  50.293  1.00  0.00     0.014 C 
ENDBRANCH  23  26
ENDBRANCH  20  22
ENDBRANCH   1  20
BRANCH   2  28
HETATM   28  C   UNL     1      24.635  46.781  50.363  1.00  0.00     0.173 C 
BRANCH  28  29
HETATM   29  C   UNL     1      25.309  47.920  49.623  1.00  0.00    -0.040 A 
HETATM   30  C   UNL     1      26.707  48.028  49.589  1.00  0.00     0.009 A 
HETATM   31  C   UNL     1      27.321  49.085  48.913  1.00  0.00     0.001 A 
HETATM   32  C   UNL     1      26.546  50.044  48.264  1.00  0.00     0.000 A 
HETATM   33  C   UNL     1      25.157  49.946  48.286  1.00  0.00     0.001 A 
HETATM   34  C   UNL     1      24.542  48.889  48.959  1.00  0.00     0.009 A 
ENDBRANCH  28  29
ENDBRANCH   2  28
TORSDOF 5
ENDMDL
MODEL 2
REMARK VINA RESULT:      -9.7      1.232      1.731
REMARK  5 active torsions:
REMARK  status: ('A' for Active; 'I' for Inactive)
REMARK    1  A    between atoms: C_2  and  C_3 
REMARK       I    between atoms: C_3  and  N_4 
REMARK    2  A    between atoms: N_4  and  N_5 
REMARK    3  A    between atoms: N_5  and  C_6 
REMARK    4  A    between atoms: N_7  and  C_8 
REMARK    5  A    between atoms: C_8  and  C_9 
ROOT
HETATM    1  C   UNL     1      26.201  45.017  50.572  1.00  0.00     0.200 A 
HETATM    2  N   UNL     1      25.551  46.119  51.089  1.00  0.00    -0.283 N 
HETATM    3  C   UNL     1      25.806  46.556  52.378  1.00  0.00     0.259 A 
HETATM    4  O   UNL     1      25.227  47.526  52.863  1.00  0.00    -0.267 OA
HETATM    5  C   UNL     1      26.828  45.812  53.163  1.00  0.00     0.049 A 
HETATM    6  C   UNL     1      27.433  44.800  52.511  1.00  0.00     0.083 A 
HETATM    7  C   UNL     1      28.526  44.053  53.190  1.00  0.00    -0.000 A 
HETATM    8  C   UNL     1      28.655  44.114  54.586  1.00  0.00    -0.044 A 
HETATM    9  C   UNL     1      29.659  43.384  55.238  1.00  0.00     0.008 A 
HETATM   10  C   UNL     1      30.557  42.613  54.501  1.00  0.00     0.001 A 
HETATM   11  C   UNL     1      30.450  42.559  53.115  1.00  0.00     0.001 A 
HETATM   12  C   UNL     1      29.439  43.270  52.465  1.00  0.00     0.014 A 
HETATM   13  C   UNL     1      27.659  44.923  55.369  1.00  0.00     0.054 C 
HETATM   14  C   UNL     1      27.197  46.196  54.607  1.00  0.00    -0.002 C 
HETATM   15  C   UNL     1      28.314  47.268  54.613  1.00  0.00     0.015 C 
HETATM   16  C   UNL     1      27.579  48.599  54.604  1.00  0.00     0.001 C 
HETATM   17  C   UNL     1      26.366  48.365  55.491  1.00  0.00     0.001 C 
HETATM   18  C   UNL     1      26.082  46.859  55.461  1.00  0.00     0.015 C 
HETATM   19  N   UNL     1      27.121  44.389  51.248  1.00  0.00    -0.218 NA
ENDROOT
BRANCH   1  20
HETATM   20  N   UNL     1      25.882  44.538  49.308  1.00  0.00    -0.188 NA
HETATM   21  H   UNL     1      25.382  45.188  48.701  1.00  0.00     0.150 HD
BRANCH  20  22
HETATM   22  N   UNL     1      25.208  43.281  49.342  1.00  0.00    -0.189 NA
HETATM   23  C   UNL     1      24.016  43.253  48.640  1.00  0.00     0.210 C 
HETATM   24  O   UNL     1      23.727  44.095  47.791  1.00  0.00    -0.279 OA
HETATM   25  H   UNL     1      25.218  42.880  50.283  1.00  0.00     0.150 HD
BRANCH  23  26
HETATM   26  C   UNL     1      23.101  42.113  49.028  1.00  0.00     0.093 C 
HETATM   27  C   UNL     1      22.828  41.222  47.830  1.00  0.00     0.014 C 
ENDBRANCH  23  26
ENDBRANCH  20  22
ENDBRANCH   1  20
BRANCH   2  28
HETATM   28  C   UNL     1      24.628  46.926  50.287  1.00  0.00     0.173 C 
BRANCH  28  29
HETATM   29  C   UNL     1      25.331  48.061  49.569  1.00  0.00    -0.040 A 
HETATM   30  C   UNL     1      24.602  49.004  48.828  1.00  0.00     0.009 A 
HETATM   31  C   UNL     1      25.257  50.042  48.162  1.00  0.00     0.001 A 
HETATM   32  C   UNL     1      26.645  50.151  48.229  1.00  0.00     0.000 A 
HETATM   33  C   UNL     1      27.379  49.225  48.965  1.00  0.00     0.001 A 
HETATM   34  C   UNL     1      26.726  48.188  49.634  1.00  0.00     0.009 A 
ENDBRANCH  28  29
ENDBRANCH   2  28
TORSDOF 5
ENDMDL
MODEL 3
REMARK VINA RESULT:      -9.2      2.587      5.458
REMARK  5 active torsions:
REMARK  status: ('A' for Active; 'I' for Inactive)
REMARK    1  A    between atoms: C_2  and  C_3 
REMARK       I    between atoms: C_3  and  N_4 
REMARK    2  A    between atoms: N_4  and  N_5 
REMARK    3  A    between atoms: N_5  and  C_6 
REMARK    4  A    between atoms: N_7  and  C_8 
REMARK    5  A    between atoms: C_8  and  C_9 
ROOT
HETATM    1  C   UNL     1      26.895  40.723  50.887  1.00  0.00     0.200 A 
HETATM    2  N   UNL     1      25.916  41.386  50.173  1.00  0.00    -0.283 N 
HETATM    3  C   UNL     1      25.586  42.697  50.468  1.00  0.00     0.259 A 
HETATM    4  O   UNL     1      24.707  43.302  49.855  1.00  0.00    -0.267 OA
HETATM    5  C   UNL     1      26.348  43.367  51.558  1.00  0.00     0.049 A 
HETATM    6  C   UNL     1      27.320  42.625  52.123  1.00  0.00     0.083 A 
HETATM    7  C   UNL     1      28.187  43.240  53.163  1.00  0.00    -0.000 A 
HETATM    8  C   UNL     1      27.766  44.401  53.831  1.00  0.00    -0.044 A 
HETATM    9  C   UNL     1      28.560  44.966  54.838  1.00  0.00     0.008 A 
HETATM   10  C   UNL     1      29.788  44.396  55.167  1.00  0.00     0.001 A 
HETATM   11  C   UNL     1      30.224  43.255  54.501  1.00  0.00     0.001 A 
HETATM   12  C   UNL     1      29.427  42.679  53.509  1.00  0.00     0.014 A 
HETATM   13  C   UNL     1      26.424  44.984  53.487  1.00  0.00     0.054 C 
HETATM   14  C   UNL     1      26.071  44.820  51.983  1.00  0.00    -0.002 C 
HETATM   15  C   UNL     1      26.898  45.804  51.120  1.00  0.00     0.015 C 
HETATM   16  C   UNL     1      26.003  46.136  49.937  1.00  0.00     0.001 C 
HETATM   17  C   UNL     1      24.606  46.207  50.532  1.00  0.00     0.001 C 
HETATM   18  C   UNL     1      24.620  45.339  51.796  1.00  0.00     0.015 C 
HETATM   19  N   UNL     1      27.585  41.322  51.815  1.00  0.00    -0.218 NA
ENDROOT
BRANCH   1  20
HETATM   20  N   UNL     1      27.165  39.384  50.637  1.00  0.00    -0.188 NA
HETATM   21  H   UNL     1      26.537  38.715  51.084  1.00  0.00     0.150 HD
BRANCH  20  22
HETATM   22  N   UNL     1      28.522  39.031  50.896  1.00  0.00    -0.189 NA
HETATM   23  C   UNL     1      29.044  38.092  50.026  1.00  0.00     0.210 C 
HETATM   24  O   UNL     1      28.528  37.837  48.938  1.00  0.00    -0.279 OA
HETATM   25  H   UNL     1      28.687  38.899  51.897  1.00  0.00     0.150 HD
BRANCH  23  26
HETATM   26  C   UNL     1      30.284  37.397  50.542  1.00  0.00     0.093 C 
HETATM   27  C   UNL     1      29.929  36.445  51.669  1.00  0.00     0.014 C 
ENDBRANCH  23  26
ENDBRANCH  20  22
ENDBRANCH   1  20
BRANCH   2  28
HETATM   28  C   UNL     1      25.240  40.775  49.026  1.00  0.00     0.173 C 
BRANCH  28  29
HETATM   29  C   UNL     1      26.199  40.452  47.897  1.00  0.00    -0.040 A 
HETATM   30  C   UNL     1      25.996  39.331  47.079  1.00  0.00     0.009 A 
HETATM   31  C   UNL     1      26.888  39.035  46.046  1.00  0.00     0.001 A 
HETATM   32  C   UNL     1      27.992  39.854  45.819  1.00  0.00     0.000 A 
HETATM   33  C   UNL     1      28.203  40.973  46.621  1.00  0.00     0.001 A 
HETATM   34  C   UNL     1      27.311  41.272  47.652  1.00  0.00     0.009 A 
ENDBRANCH  28  29
ENDBRANCH   2  28
TORSDOF 5
ENDMDL
MODEL 4
REMARK VINA RESULT:      -9.2      2.174      3.947
REMARK  5 active torsions:
REMARK  status: ('A' for Active; 'I' for Inactive)
REMARK    1  A    between atoms: C_2  and  C_3 
REMARK       I    between atoms: C_3  and  N_4 
REMARK    2  A    between atoms: N_4  and  N_5 
REMARK    3  A    between atoms: N_5  and  C_6 
REMARK    4  A    between atoms: N_7  and  C_8 
REMARK    5  A    between atoms: C_8  and  C_9 
ROOT
HETATM    1  C   UNL     1      25.268  44.229  49.479  1.00  0.00     0.200 A 
HETATM    2  N   UNL     1      25.354  44.863  50.703  1.00  0.00    -0.283 N 
HETATM    3  C   UNL     1      26.125  44.335  51.725  1.00  0.00     0.259 A 
HETATM    4  O   UNL     1      26.204  44.875  52.827  1.00  0.00    -0.267 OA
HETATM    5  C   UNL     1      26.876  43.082  51.439  1.00  0.00     0.049 A 
HETATM    6  C   UNL     1      26.754  42.610  50.183  1.00  0.00     0.083 A 
HETATM    7  C   UNL     1      27.535  41.408  49.783  1.00  0.00    -0.000 A 
HETATM    8  C   UNL     1      28.058  40.553  50.765  1.00  0.00    -0.044 A 
HETATM    9  C   UNL     1      28.764  39.399  50.396  1.00  0.00     0.008 A 
HETATM   10  C   UNL     1      28.975  39.105  49.050  1.00  0.00     0.001 A 
HETATM   11  C   UNL     1      28.475  39.954  48.068  1.00  0.00     0.001 A 
HETATM   12  C   UNL     1      27.757  41.095  48.432  1.00  0.00     0.014 A 
HETATM   13  C   UNL     1      27.793  40.867  52.210  1.00  0.00     0.054 C 
HETATM   14  C   UNL     1      27.763  42.395  52.492  1.00  0.00    -0.002 C 
HETATM   15  C   UNL     1      29.195  42.983  52.461  1.00  0.00     0.015 C 
HETATM   16  C   UNL     1      29.167  44.135  53.452  1.00  0.00     0.001 C 
HETATM   17  C   UNL     1      28.278  43.638  54.581  1.00  0.00     0.001 C 
HETATM   18  C   UNL     1      27.351  42.577  53.978  1.00  0.00     0.015 C 
HETATM   19  N   UNL     1      25.954  43.153  49.219  1.00  0.00    -0.218 NA
ENDROOT
BRANCH   1  20
HETATM   20  N   UNL     1      24.431  44.723  48.487  1.00  0.00    -0.188 NA
HETATM   21  H   UNL     1      23.630  45.265  48.813  1.00  0.00     0.150 HD
BRANCH  20  22
HETATM   22  N   UNL     1      24.002  43.719  47.569  1.00  0.00    -0.189 NA
HETATM   23  C   UNL     1      22.772  43.160  47.867  1.00  0.00     0.210 C 
HETATM   24  O   UNL     1      21.968  43.695  48.629  1.00  0.00    -0.279 OA
HETATM   25  H   UNL     1      24.768  43.086  47.327  1.00  0.00     0.150 HD
BRANCH  23  26
HETATM   26  C   UNL     1      22.521  41.830  47.192  1.00  0.00     0.093 C 
HETATM   27  C   UNL     1      23.516  40.792  47.679  1.00  0.00     0.014 C 
ENDBRANCH  23  26
ENDBRANCH  20  22
ENDBRANCH   1  20
BRANCH   2  28
HETATM   28  C   UNL     1      24.711  46.154  50.958  1.00  0.00     0.173 C 
BRANCH  28  29
HETATM   29  C   UNL     1      25.332  47.277  50.150  1.00  0.00    -0.040 A 
HETATM   30  C   UNL     1      26.725  47.401  50.043  1.00  0.00     0.009 A 
HETATM   31  C   UNL     1      27.290  48.442  49.304  1.00  0.00     0.001 A 
HETATM   32  C   UNL     1      26.471  49.371  48.663  1.00  0.00     0.000 A 
HETATM   33  C   UNL     1      25.087  49.256  48.758  1.00  0.00     0.001 A 
HETATM   34  C   UNL     1      24.520  48.214  49.494  1.00  0.00     0.009 A 
ENDBRANCH  28  29
ENDBRANCH   2  28
TORSDOF 5
ENDMDL
MODEL 5
REMARK VINA RESULT:      -9.0      4.805      7.643
REMARK  5 active torsions:
REMARK  status: ('A' for Active; 'I' for Inactive)
REMARK    1  A    between atoms: C_2  and  C_3 
REMARK       I    between atoms: C_3  and  N_4 
REMARK    2  A    between atoms: N_4  and  N_5 
REMARK    3  A    between atoms: N_5  and  C_6 
REMARK    4  A    between atoms: N_7  and  C_8 
REMARK    5  A    between atoms: C_8  and  C_9 
ROOT
HETATM    1  C   UNL     1      21.519  47.570  47.603  1.00  0.00     0.200 A 
HETATM    2  N   UNL     1      22.308  48.468  48.294  1.00  0.00    -0.283 N 
HETATM    3  C   UNL     1      23.295  48.028  49.160  1.00  0.00     0.259 A 
HETATM    4  O   UNL     1      23.999  48.811  49.797  1.00  0.00    -0.267 OA
HETATM    5  C   UNL     1      23.489  46.558  49.287  1.00  0.00     0.049 A 
HETATM    6  C   UNL     1      22.696  45.801  48.503  1.00  0.00     0.083 A 
HETATM    7  C   UNL     1      22.877  44.325  48.503  1.00  0.00    -0.000 A 
HETATM    8  C   UNL     1      23.552  43.700  49.564  1.00  0.00    -0.044 A 
HETATM    9  C   UNL     1      23.695  42.306  49.590  1.00  0.00     0.008 A 
HETATM   10  C   UNL     1      23.191  41.529  48.548  1.00  0.00     0.001 A 
HETATM   11  C   UNL     1      22.535  42.138  47.483  1.00  0.00     0.001 A 
HETATM   12  C   UNL     1      22.376  43.525  47.463  1.00  0.00     0.014 A 
HETATM   13  C   UNL     1      24.059  44.549  50.696  1.00  0.00     0.054 C 
HETATM   14  C   UNL     1      24.549  45.945  50.220  1.00  0.00    -0.002 C 
HETATM   15  C   UNL     1      25.908  45.825  49.488  1.00  0.00     0.015 C 
HETATM   16  C   UNL     1      26.626  47.133  49.776  1.00  0.00     0.001 C 
HETATM   17  C   UNL     1      26.251  47.459  51.214  1.00  0.00     0.001 C 
HETATM   18  C   UNL     1      24.916  46.758  51.491  1.00  0.00     0.015 C 
HETATM   19  N   UNL     1      21.714  46.285  47.688  1.00  0.00    -0.218 NA
ENDROOT
BRANCH   1  20
HETATM   20  N   UNL     1      20.480  48.018  46.798  1.00  0.00    -0.188 NA
HETATM   21  H   UNL     1      20.511  49.006  46.543  1.00  0.00     0.150 HD
BRANCH  20  22
HETATM   22  N   UNL     1      19.193  47.685  47.313  1.00  0.00    -0.189 NA
HETATM   23  C   UNL     1      18.227  48.654  47.108  1.00  0.00     0.210 C 
HETATM   24  O   UNL     1      18.354  49.551  46.276  1.00  0.00    -0.279 OA
HETATM   25  H   UNL     1      19.261  47.269  48.245  1.00  0.00     0.150 HD
BRANCH  23  26
HETATM   26  C   UNL     1      17.021  48.521  48.010  1.00  0.00     0.093 C 
HETATM   27  C   UNL     1      16.158  49.768  47.930  1.00  0.00     0.014 C 
ENDBRANCH  23  26
ENDBRANCH  20  22
ENDBRANCH   1  20
BRANCH   2  28
HETATM   28  C   UNL     1      22.202  49.915  48.091  1.00  0.00     0.173 C 
BRANCH  28  29
HETATM   29  C   UNL     1      20.963  50.499  48.740  1.00  0.00    -0.040 A 
HETATM   30  C   UNL     1      20.403  49.908  49.882  1.00  0.00     0.009 A 
HETATM   31  C   UNL     1      19.256  50.446  50.470  1.00  0.00     0.001 A 
HETATM   32  C   UNL     1      18.656  51.579  49.924  1.00  0.00     0.000 A 
HETATM   33  C   UNL     1      19.204  52.178  48.793  1.00  0.00     0.001 A 
HETATM   34  C   UNL     1      20.352  51.644  48.206  1.00  0.00     0.009 A 
ENDBRANCH  28  29
ENDBRANCH   2  28
TORSDOF 5
ENDMDL
MODEL 6
REMARK VINA RESULT:      -8.9      2.106      5.332
REMARK  5 active torsions:
REMARK  status: ('A' for Active; 'I' for Inactive)
REMARK    1  A    between atoms: C_2  and  C_3 
REMARK       I    between atoms: C_3  and  N_4 
REMARK    2  A    between atoms: N_4  and  N_5 
REMARK    3  A    between atoms: N_5  and  C_6 
REMARK    4  A    between atoms: N_7  and  C_8 
REMARK    5  A    between atoms: C_8  and  C_9 
ROOT
HETATM    1  C   UNL     1      26.752  46.611  53.579  1.00  0.00     0.200 A 
HETATM    2  N   UNL     1      26.486  45.680  52.595  1.00  0.00    -0.283 N 
HETATM    3  C   UNL     1      27.201  44.497  52.523  1.00  0.00     0.259 A 
HETATM    4  O   UNL     1      26.991  43.661  51.645  1.00  0.00    -0.267 OA
HETATM    5  C   UNL     1      28.239  44.259  53.563  1.00  0.00     0.049 A 
HETATM    6  C   UNL     1      28.346  45.220  54.502  1.00  0.00     0.083 A 
HETATM    7  C   UNL     1      29.300  45.028  55.627  1.00  0.00    -0.000 A 
HETATM    8  C   UNL     1      30.341  44.093  55.513  1.00  0.00    -0.044 A 
HETATM    9  C   UNL     1      31.266  43.932  56.554  1.00  0.00     0.008 A 
HETATM   10  C   UNL     1      31.143  44.680  57.724  1.00  0.00     0.001 A 
HETATM   11  C   UNL     1      30.106  45.598  57.855  1.00  0.00     0.001 A 
HETATM   12  C   UNL     1      29.193  45.773  56.813  1.00  0.00     0.014 A 
HETATM   13  C   UNL     1      30.478  43.319  54.233  1.00  0.00     0.054 C 
HETATM   14  C   UNL     1      29.104  42.986  53.587  1.00  0.00    -0.002 C 
HETATM   15  C   UNL     1      28.390  41.862  54.378  1.00  0.00     0.015 C 
HETATM   16  C   UNL     1      27.575  41.110  53.339  1.00  0.00     0.001 C 
HETATM   17  C   UNL     1      28.458  41.102  52.101  1.00  0.00     0.001 C 
HETATM   18  C   UNL     1      29.393  42.311  52.220  1.00  0.00     0.015 C 
HETATM   19  N   UNL     1      27.636  46.385  54.510  1.00  0.00    -0.218 NA
ENDROOT
BRANCH   1  20
HETATM   20  N   UNL     1      26.086  47.829  53.598  1.00  0.00    -0.188 NA
HETATM   21  H   UNL     1      26.626  48.634  53.281  1.00  0.00     0.150 HD
BRANCH  20  22
HETATM   22  N   UNL     1      25.475  48.111  54.855  1.00  0.00    -0.189 NA
HETATM   23  C   UNL     1      26.233  48.910  55.692  1.00  0.00     0.210 C 
HETATM   24  O   UNL     1      27.171  49.595  55.284  1.00  0.00    -0.279 OA
HETATM   25  H   UNL     1      25.045  47.274  55.255  1.00  0.00     0.150 HD
BRANCH  23  26
HETATM   26  C   UNL     1      25.819  48.847  57.145  1.00  0.00     0.093 C 
HETATM   27  C   UNL     1      26.768  47.959  57.928  1.00  0.00     0.014 C 
ENDBRANCH  23  26
ENDBRANCH  20  22
ENDBRANCH   1  20
BRANCH   2  28
HETATM   28  C   UNL     1      25.392  45.852  51.637  1.00  0.00     0.173 C 
BRANCH  28  29
HETATM   29  C   UNL     1      25.668  46.960  50.639  1.00  0.00    -0.040 A 
HETATM   30  C   UNL     1      26.972  47.210  50.186  1.00  0.00     0.009 A 
HETATM   31  C   UNL     1      27.221  48.238  49.274  1.00  0.00     0.001 A 
HETATM   32  C   UNL     1      26.172  49.026  48.804  1.00  0.00     0.000 A 
HETATM   33  C   UNL     1      24.872  48.785  49.243  1.00  0.00     0.001 A 
HETATM   34  C   UNL     1      24.621  47.756  50.152  1.00  0.00     0.009 A 
ENDBRANCH  28  29
ENDBRANCH   2  28
TORSDOF 5
ENDMDL
MODEL 7
REMARK VINA RESULT:      -8.7      4.809      8.063
REMARK  5 active torsions:
REMARK  status: ('A' for Active; 'I' for Inactive)
REMARK    1  A    between atoms: C_2  and  C_3 
REMARK       I    between atoms: C_3  and  N_4 
REMARK    2  A    between atoms: N_4  and  N_5 
REMARK    3  A    between atoms: N_5  and  C_6 
REMARK    4  A    between atoms: N_7  and  C_8 
REMARK    5  A    between atoms: C_8  and  C_9 
ROOT
HETATM    1  C   UNL     1      23.003  48.826  48.351  1.00  0.00     0.200 A 
HETATM    2  N   UNL     1      21.851  49.003  47.610  1.00  0.00    -0.283 N 
HETATM    3  C   UNL     1      21.043  47.928  47.284  1.00  0.00     0.259 A 
HETATM    4  O   UNL     1      20.021  48.062  46.612  1.00  0.00    -0.267 OA
HETATM    5  C   UNL     1      21.448  46.588  47.789  1.00  0.00     0.049 A 
HETATM    6  C   UNL     1      22.556  46.571  48.556  1.00  0.00     0.083 A 
HETATM    7  C   UNL     1      22.989  45.289  49.173  1.00  0.00    -0.000 A 
HETATM    8  C   UNL     1      22.519  44.070  48.660  1.00  0.00    -0.044 A 
HETATM    9  C   UNL     1      22.951  42.855  49.212  1.00  0.00     0.008 A 
HETATM   10  C   UNL     1      23.830  42.849  50.293  1.00  0.00     0.001 A 
HETATM   11  C   UNL     1      24.290  44.051  50.820  1.00  0.00     0.001 A 
HETATM   12  C   UNL     1      23.876  45.262  50.262  1.00  0.00     0.014 A 
HETATM   13  C   UNL     1      21.597  44.093  47.474  1.00  0.00     0.054 C 
HETATM   14  C   UNL     1      20.636  45.315  47.490  1.00  0.00    -0.002 C 
HETATM   15  C   UNL     1      19.526  45.120  48.551  1.00  0.00     0.015 C 
HETATM   16  C   UNL     1      18.315  45.845  47.989  1.00  0.00     0.001 C 
HETATM   17  C   UNL     1      18.375  45.575  46.494  1.00  0.00     0.001 C 
HETATM   18  C   UNL     1      19.843  45.290  46.156  1.00  0.00     0.015 C 
HETATM   19  N   UNL     1      23.337  47.659  48.823  1.00  0.00    -0.218 NA
ENDROOT
BRANCH   1  20
HETATM   20  N   UNL     1      23.849  49.897  48.606  1.00  0.00    -0.188 NA
HETATM   21  H   UNL     1      24.051  50.502  47.809  1.00  0.00     0.150 HD
BRANCH  20  22
HETATM   22  N   UNL     1      25.063  49.508  49.247  1.00  0.00    -0.189 NA
HETATM   23  C   UNL     1      26.184  49.579  48.439  1.00  0.00     0.210 C 
HETATM   24  O   UNL     1      26.208  50.231  47.395  1.00  0.00    -0.279 OA
HETATM   25  H   UNL     1      24.932  48.664  49.808  1.00  0.00     0.150 HD
BRANCH  23  26
HETATM   26  C   UNL     1      27.357  48.770  48.942  1.00  0.00     0.093 C 
HETATM   27  C   UNL     1      26.875  47.513  49.641  1.00  0.00     0.014 C 
ENDBRANCH  23  26
ENDBRANCH  20  22
ENDBRANCH   1  20
BRANCH   2  28
HETATM   28  C   UNL     1      21.383  50.331  47.205  1.00  0.00     0.173 C 
BRANCH  28  29
HETATM   29  C   UNL     1      20.378  50.910  48.181  1.00  0.00    -0.040 A 
HETATM   30  C   UNL     1      20.464  50.631  49.553  1.00  0.00     0.009 A 
HETATM   31  C   UNL     1      19.529  51.160  50.445  1.00  0.00     0.001 A 
HETATM   32  C   UNL     1      18.499  51.975  49.978  1.00  0.00     0.000 A 
HETATM   33  C   UNL     1      18.405  52.264  48.619  1.00  0.00     0.001 A 
HETATM   34  C   UNL     1      19.340  51.738  47.726  1.00  0.00     0.009 A 
ENDBRANCH  28  29
ENDBRANCH   2  28
TORSDOF 5
ENDMDL
MODEL 8
REMARK VINA RESULT:      -8.7     16.077     18.443
REMARK  5 active torsions:
REMARK  status: ('A' for Active; 'I' for Inactive)
REMARK    1  A    between atoms: C_2  and  C_3 
REMARK       I    between atoms: C_3  and  N_4 
REMARK    2  A    between atoms: N_4  and  N_5 
REMARK    3  A    between atoms: N_5  and  C_6 
REMARK    4  A    between atoms: N_7  and  C_8 
REMARK    5  A    between atoms: C_8  and  C_9 
ROOT
HETATM    1  C   UNL     1      39.840  44.277  63.428  1.00  0.00     0.200 A 
HETATM    2  N   UNL     1      38.657  44.912  63.748  1.00  0.00    -0.283 N 
HETATM    3  C   UNL     1      38.649  46.043  64.547  1.00  0.00     0.259 A 
HETATM    4  O   UNL     1      37.605  46.615  64.857  1.00  0.00    -0.267 OA
HETATM    5  C   UNL     1      39.965  46.559  65.016  1.00  0.00     0.049 A 
HETATM    6  C   UNL     1      41.042  45.882  64.572  1.00  0.00     0.083 A 
HETATM    7  C   UNL     1      42.401  46.376  64.922  1.00  0.00    -0.000 A 
HETATM    8  C   UNL     1      42.570  47.259  65.999  1.00  0.00    -0.044 A 
HETATM    9  C   UNL     1      43.851  47.700  66.359  1.00  0.00     0.008 A 
HETATM   10  C   UNL     1      44.966  47.286  65.632  1.00  0.00     0.001 A 
HETATM   11  C   UNL     1      44.809  46.424  64.552  1.00  0.00     0.001 A 
HETATM   12  C   UNL     1      43.536  45.969  64.202  1.00  0.00     0.014 A 
HETATM   13  C   UNL     1      41.362  47.670  66.793  1.00  0.00     0.054 C 
HETATM   14  C   UNL     1      40.088  47.804  65.912  1.00  0.00    -0.002 C 
HETATM   15  C   UNL     1      40.156  49.088  65.050  1.00  0.00     0.015 C 
HETATM   16  C   UNL     1      38.711  49.529  64.890  1.00  0.00     0.001 C 
HETATM   17  C   UNL     1      38.073  49.220  66.235  1.00  0.00     0.001 C 
HETATM   18  C   UNL     1      38.901  48.097  66.869  1.00  0.00     0.015 C 
HETATM   19  N   UNL     1      40.993  44.751  63.809  1.00  0.00    -0.218 NA
ENDROOT
BRANCH   1  20
HETATM   20  N   UNL     1      39.833  43.100  62.692  1.00  0.00    -0.188 NA
HETATM   21  H   UNL     1      38.980  42.913  62.163  1.00  0.00     0.150 HD
BRANCH  20  22
HETATM   22  N   UNL     1      40.189  41.956  63.466  1.00  0.00    -0.189 NA
HETATM   23  C   UNL     1      39.524  40.796  63.112  1.00  0.00     0.210 C 
HETATM   24  O   UNL     1      38.948  40.666  62.032  1.00  0.00    -0.279 OA
HETATM   25  H   UNL     1      40.251  42.186  64.461  1.00  0.00     0.150 HD
BRANCH  23  26
HETATM   26  C   UNL     1      39.551  39.722  64.175  1.00  0.00     0.093 C 
HETATM   27  C   UNL     1      40.599  38.675  63.845  1.00  0.00     0.014 C 
ENDBRANCH  23  26
ENDBRANCH  20  22
ENDBRANCH   1  20
BRANCH   2  28
HETATM   28  C   UNL     1      37.369  44.480  63.200  1.00  0.00     0.173 C 
BRANCH  28  29
HETATM   29  C   UNL     1      36.542  43.709  64.210  1.00  0.00    -0.040 A 
HETATM   30  C   UNL     1      36.723  42.329  64.384  1.00  0.00     0.009 A 
HETATM   31  C   UNL     1      35.952  41.623  65.310  1.00  0.00     0.001 A 
HETATM   32  C   UNL     1      34.993  42.287  66.073  1.00  0.00     0.000 A 
HETATM   33  C   UNL     1      34.807  43.658  65.914  1.00  0.00     0.001 A 
HETATM   34  C   UNL     1      35.579  44.366  64.991  1.00  0.00     0.009 A 
ENDBRANCH  28  29
ENDBRANCH   2  28
TORSDOF 5
ENDMDL
MODEL 9
REMARK VINA RESULT:      -8.6      2.123      5.247
REMARK  5 active torsions:
REMARK  status: ('A' for Active; 'I' for Inactive)
REMARK    1  A    between atoms: C_2  and  C_3 
REMARK       I    between atoms: C_3  and  N_4 
REMARK    2  A    between atoms: N_4  and  N_5 
REMARK    3  A    between atoms: N_5  and  C_6 
REMARK    4  A    between atoms: N_7  and  C_8 
REMARK    5  A    between atoms: C_8  and  C_9 
ROOT
HETATM    1  C   UNL     1      26.205  46.149  51.380  1.00  0.00     0.200 A 
HETATM    2  N   UNL     1      26.556  44.973  50.747  1.00  0.00    -0.283 N 
HETATM    3  C   UNL     1      27.382  44.051  51.366  1.00  0.00     0.259 A 
HETATM    4  O   UNL     1      27.719  43.005  50.814  1.00  0.00    -0.267 OA
HETATM    5  C   UNL     1      27.846  44.365  52.745  1.00  0.00     0.049 A 
HETATM    6  C   UNL     1      27.372  45.513  53.267  1.00  0.00     0.083 A 
HETATM    7  C   UNL     1      27.716  45.867  54.670  1.00  0.00    -0.000 A 
HETATM    8  C   UNL     1      28.812  45.256  55.298  1.00  0.00    -0.044 A 
HETATM    9  C   UNL     1      29.166  45.610  56.608  1.00  0.00     0.008 A 
HETATM   10  C   UNL     1      28.415  46.553  57.307  1.00  0.00     0.001 A 
HETATM   11  C   UNL     1      27.316  47.153  56.701  1.00  0.00     0.001 A 
HETATM   12  C   UNL     1      26.972  46.815  55.390  1.00  0.00     0.014 A 
HETATM   13  C   UNL     1      29.631  44.266  54.519  1.00  0.00     0.054 C 
HETATM   14  C   UNL     1      28.771  43.423  53.536  1.00  0.00    -0.002 C 
HETATM   15  C   UNL     1      27.939  42.370  54.308  1.00  0.00     0.015 C 
HETATM   16  C   UNL     1      27.809  41.196  53.352  1.00  0.00     0.001 C 
HETATM   17  C   UNL     1      29.155  41.136  52.646  1.00  0.00     0.001 C 
HETATM   18  C   UNL     1      29.750  42.547  52.709  1.00  0.00     0.015 C 
HETATM   19  N   UNL     1      26.582  46.405  52.600  1.00  0.00    -0.218 NA
ENDROOT
BRANCH   1  20
HETATM   20  N   UNL     1      25.441  47.104  50.721  1.00  0.00    -0.188 NA
HETATM   21  H   UNL     1      24.810  46.747  50.002  1.00  0.00     0.150 HD
BRANCH  20  22
HETATM   22  N   UNL     1      26.219  48.179  50.202  1.00  0.00    -0.189 NA
HETATM   23  C   UNL     1      25.632  48.851  49.145  1.00  0.00     0.210 C 
HETATM   24  O   UNL     1      24.430  48.771  48.894  1.00  0.00    -0.279 OA
HETATM   25  H   UNL     1      27.203  47.916  50.112  1.00  0.00     0.150 HD
BRANCH  23  26
HETATM   26  C   UNL     1      26.601  49.668  48.320  1.00  0.00     0.093 C 
HETATM   27  C   UNL     1      27.944  49.763  49.020  1.00  0.00     0.014 C 
ENDBRANCH  23  26
ENDBRANCH  20  22
ENDBRANCH   1  20
BRANCH   2  28
HETATM   28  C   UNL     1      26.014  44.603  49.437  1.00  0.00     0.173 C 
BRANCH  28  29
HETATM   29  C   UNL     1      24.505  44.459  49.457  1.00  0.00    -0.040 A 
HETATM   30  C   UNL     1      23.692  45.295  48.678  1.00  0.00     0.009 A 
HETATM   31  C   UNL     1      22.302  45.164  48.708  1.00  0.00     0.001 A 
HETATM   32  C   UNL     1      21.709  44.195  49.515  1.00  0.00     0.000 A 
HETATM   33  C   UNL     1      22.505  43.354  50.290  1.00  0.00     0.001 A 
HETATM   34  C   UNL     1      23.894  43.483  50.259  1.00  0.00     0.009 A 
ENDBRANCH  28  29
ENDBRANCH   2  28
TORSDOF 5
ENDMDL
MODEL 10
REMARK VINA RESULT:      -8.5      3.631      6.879
REMARK  5 active torsions:
REMARK  status: ('A' for Active; 'I' for Inactive)
REMARK    1  A    between atoms: C_2  and  C_3 
REMARK       I    between atoms: C_3  and  N_4 
REMARK    2  A    between atoms: N_4  and  N_5 
REMARK    3  A    between atoms: N_5  and  C_6 
REMARK    4  A    between atoms: N_7  and  C_8 
REMARK    5  A    between atoms: C_8  and  C_9 
ROOT
HETATM    1  C   UNL     1      23.823  48.139  49.656  1.00  0.00     0.200 A 
HETATM    2  N   UNL     1      23.451  47.154  48.762  1.00  0.00    -0.283 N 
HETATM    3  C   UNL     1      23.872  45.846  48.928  1.00  0.00     0.259 A 
HETATM    4  O   UNL     1      23.564  44.957  48.135  1.00  0.00    -0.267 OA
HETATM    5  C   UNL     1      24.710  45.543  50.120  1.00  0.00     0.049 A 
HETATM    6  C   UNL     1      24.940  46.583  50.944  1.00  0.00     0.083 A 
HETATM    7  C   UNL     1      25.699  46.355  52.203  1.00  0.00    -0.000 A 
HETATM    8  C   UNL     1      26.497  45.209  52.343  1.00  0.00    -0.044 A 
HETATM    9  C   UNL     1      27.244  45.004  53.511  1.00  0.00     0.008 A 
HETATM   10  C   UNL     1      27.179  45.924  54.556  1.00  0.00     0.001 A 
HETATM   11  C   UNL     1      26.378  47.055  54.436  1.00  0.00     0.001 A 
HETATM   12  C   UNL     1      25.646  47.271  53.267  1.00  0.00     0.014 A 
HETATM   13  C   UNL     1      26.583  44.245  51.193  1.00  0.00     0.054 C 
HETATM   14  C   UNL     1      25.245  44.129  50.412  1.00  0.00    -0.002 C 
HETATM   15  C   UNL     1      24.208  43.316  51.226  1.00  0.00     0.015 C 
HETATM   16  C   UNL     1      23.353  42.617  50.183  1.00  0.00     0.001 C 
HETATM   17  C   UNL     1      24.334  42.235  49.086  1.00  0.00     0.001 C 
HETATM   18  C   UNL     1      25.509  43.214  49.186  1.00  0.00     0.015 C 
HETATM   19  N   UNL     1      24.527  47.864  50.717  1.00  0.00    -0.218 NA
ENDROOT
BRANCH   1  20
HETATM   20  N   UNL     1      23.462  49.462  49.439  1.00  0.00    -0.188 NA
HETATM   21  H   UNL     1      24.179  50.157  49.651  1.00  0.00     0.150 HD
BRANCH  20  22
HETATM   22  N   UNL     1      22.234  49.815  50.071  1.00  0.00    -0.189 NA
HETATM   23  C   UNL     1      21.401  50.606  49.299  1.00  0.00     0.210 C 
HETATM   24  O   UNL     1      21.531  50.713  48.080  1.00  0.00    -0.279 OA
HETATM   25  H   UNL     1      22.383  50.088  51.045  1.00  0.00     0.150 HD
BRANCH  23  26
HETATM   26  C   UNL     1      20.341  51.338  50.091  1.00  0.00     0.093 C 
HETATM   27  C   UNL     1      19.294  51.923  49.161  1.00  0.00     0.014 C 
ENDBRANCH  23  26
ENDBRANCH  20  22
ENDBRANCH   1  20
BRANCH   2  28
HETATM   28  C   UNL     1      22.534  47.419  47.650  1.00  0.00     0.173 C 
BRANCH  28  29
HETATM   29  C   UNL     1      21.156  46.836  47.889  1.00  0.00    -0.040 A 
HETATM   30  C   UNL     1      20.723  45.701  47.187  1.00  0.00     0.009 A 
HETATM   31  C   UNL     1      19.448  45.174  47.405  1.00  0.00     0.001 A 
HETATM   32  C   UNL     1      18.592  45.773  48.326  1.00  0.00     0.000 A 
HETATM   33  C   UNL     1      19.010  46.898  49.034  1.00  0.00     0.001 A 
HETATM   34  C   UNL     1      20.285  47.424  48.819  1.00  0.00     0.009 A 
ENDBRANCH  28  29
ENDBRANCH   2  28
TORSDOF 5
ENDMDL
