MODEL 1
REMARK VINA RESULT:      -7.4      0.000      0.000
REMARK  3 active torsions:
REMARK  status: ('A' for Active; 'I' for Inactive)
REMARK    1  A    between atoms: C_2  and  N_3 
REMARK    2  A    between atoms: C_2  and  C_14 
REMARK       I    between atoms: N_3  and  C_4 
REMARK    3  A    between atoms: C_4  and  C_5 
ROOT
HETATM    1  N   UNL     1      25.913  46.571  51.665  1.00  0.00    -0.347 N 
HETATM    2  C   UNL     1      25.993  47.037  52.952  1.00  0.00     0.268 C 
HETATM    3  O   UNL     1      25.252  47.912  53.390  1.00  0.00    -0.266 OA
HETATM    4  H   UNL     1      26.540  45.844  51.357  1.00  0.00     0.163 HD
ENDROOT
BRANCH   1   5
HETATM    5  C   UNL     1      24.912  47.054  50.731  1.00  0.00     0.114 C 
HETATM    6  C   UNL     1      24.258  45.896  49.970  1.00  0.00     0.037 C 
BRANCH   5   7
HETATM    7  C   UNL     1      25.536  48.079  49.803  1.00  0.00    -0.033 A 
HETATM    8  C   UNL     1      24.718  48.898  49.017  1.00  0.00     0.028 A 
HETATM    9  C   UNL     1      25.309  49.843  48.193  1.00  0.00     0.116 A 
HETATM   10  N   UNL     1      26.642  50.031  48.102  1.00  0.00    -0.273 NA
HETATM   11  C   UNL     1      27.418  49.241  48.871  1.00  0.00     0.116 A 
HETATM   12  C   UNL     1      26.921  48.269  49.727  1.00  0.00     0.028 A 
ENDBRANCH   5   7
ENDBRANCH   1   5
BRANCH   2  13
HETATM   13  C   UNL     1      27.014  46.425  53.773  1.00  0.00     0.103 A 
HETATM   14  N   UNL     1      27.429  45.125  53.542  1.00  0.00    -0.341 N 
HETATM   15  H   UNL     1      27.059  44.529  52.811  1.00  0.00     0.167 HD
HETATM   16  C   UNL     1      28.393  44.785  54.437  1.00  0.00     0.126 A 
HETATM   17 CL   UNL     1      29.050  43.224  54.333  1.00  0.00    -0.063 Cl
HETATM   18  C   UNL     1      28.632  45.844  55.268  1.00  0.00     0.074 A 
HETATM   19 CL   UNL     1      29.734  45.954  56.551  1.00  0.00    -0.081 Cl
HETATM   20  C   UNL     1      27.759  46.885  54.853  1.00  0.00     0.062 A 
ENDBRANCH   2  13
TORSDOF 3
ENDMDL
MODEL 2
REMARK VINA RESULT:      -7.3      0.606      1.485
REMARK  3 active torsions:
REMARK  status: ('A' for Active; 'I' for Inactive)
REMARK    1  A    between atoms: C_2  and  N_3 
REMARK    2  A    between atoms: C_2  and  C_14 
REMARK       I    between atoms: N_3  and  C_4 
REMARK    3  A    between atoms: C_4  and  C_5 
ROOT
HETATM    1  N   UNL     1      25.829  46.449  51.505  1.00  0.00    -0.347 N 
HETATM    2  C   UNL     1      25.965  46.799  52.825  1.00  0.00     0.268 C 
HETATM    3  O   UNL     1      25.296  47.684  53.350  1.00  0.00    -0.266 OA
HETATM    4  H   UNL     1      26.398  45.708  51.125  1.00  0.00     0.163 HD
ENDROOT
BRANCH   1   5
HETATM    5  C   UNL     1      24.847  47.076  50.638  1.00  0.00     0.114 C 
HETATM    6  C   UNL     1      24.071  46.029  49.832  1.00  0.00     0.037 C 
BRANCH   5   7
HETATM    7  C   UNL     1      25.533  48.099  49.753  1.00  0.00    -0.033 A 
HETATM    8  C   UNL     1      24.766  48.953  48.952  1.00  0.00     0.028 A 
HETATM    9  C   UNL     1      25.412  49.896  48.168  1.00  0.00     0.116 A 
HETATM   10  N   UNL     1      26.752  50.050  48.130  1.00  0.00    -0.273 NA
HETATM   11  C   UNL     1      27.478  49.226  48.913  1.00  0.00     0.116 A 
HETATM   12  C   UNL     1      26.924  48.253  49.732  1.00  0.00     0.028 A 
ENDBRANCH   5   7
ENDBRANCH   1   5
BRANCH   2  13
HETATM   13  C   UNL     1      26.955  46.052  53.567  1.00  0.00     0.103 A 
HETATM   14  N   UNL     1      27.518  46.566  54.721  1.00  0.00    -0.341 N 
HETATM   15  H   UNL     1      27.289  47.471  55.114  1.00  0.00     0.167 HD
HETATM   16  C   UNL     1      28.411  45.678  55.232  1.00  0.00     0.126 A 
HETATM   17 CL   UNL     1      29.222  46.107  56.659  1.00  0.00    -0.063 Cl
HETATM   18  C   UNL     1      28.453  44.570  54.433  1.00  0.00     0.074 A 
HETATM   19 CL   UNL     1      29.391  43.170  54.615  1.00  0.00    -0.081 Cl
HETATM   20  C   UNL     1      27.534  44.802  53.375  1.00  0.00     0.062 A 
ENDBRANCH   2  13
TORSDOF 3
ENDMDL
MODEL 3
REMARK VINA RESULT:      -7.2      5.399      7.688
REMARK  3 active torsions:
REMARK  status: ('A' for Active; 'I' for Inactive)
REMARK    1  A    between atoms: C_2  and  N_3 
REMARK    2  A    between atoms: C_2  and  C_14 
REMARK       I    between atoms: N_3  and  C_4 
REMARK    3  A    between atoms: C_4  and  C_5 
ROOT
HETATM    1  N   UNL     1      28.543  44.253  54.383  1.00  0.00    -0.347 N 
HETATM    2  C   UNL     1      27.402  43.517  54.188  1.00  0.00     0.268 C 
HETATM    3  O   UNL     1      26.418  43.611  54.913  1.00  0.00    -0.266 OA
HETATM    4  H   UNL     1      29.322  44.144  53.751  1.00  0.00     0.163 HD
ENDROOT
BRANCH   1   5
HETATM    5  C   UNL     1      28.654  45.235  55.446  1.00  0.00     0.114 C 
HETATM    6  C   UNL     1      28.776  46.654  54.880  1.00  0.00     0.037 C 
BRANCH   5   7
HETATM    7  C   UNL     1      29.813  44.871  56.354  1.00  0.00    -0.033 A 
HETATM    8  C   UNL     1      29.993  45.552  57.563  1.00  0.00     0.028 A 
HETATM    9  C   UNL     1      31.045  45.188  58.388  1.00  0.00     0.116 A 
HETATM   10  N   UNL     1      31.917  44.199  58.100  1.00  0.00    -0.273 NA
HETATM   11  C   UNL     1      31.728  43.546  56.936  1.00  0.00     0.116 A 
HETATM   12  C   UNL     1      30.705  43.837  56.045  1.00  0.00     0.028 A 
ENDBRANCH   5   7
ENDBRANCH   1   5
BRANCH   2  13
HETATM   13  C   UNL     1      27.432  42.614  53.059  1.00  0.00     0.103 A 
HETATM   14  N   UNL     1      26.427  42.629  52.108  1.00  0.00    -0.341 N 
HETATM   15  H   UNL     1      25.626  43.249  52.133  1.00  0.00     0.167 HD
HETATM   16  C   UNL     1      26.684  41.697  51.153  1.00  0.00     0.126 A 
HETATM   17 CL   UNL     1      25.573  41.545  49.879  1.00  0.00    -0.063 Cl
HETATM   18  C   UNL     1      27.853  41.054  51.453  1.00  0.00     0.074 A 
HETATM   19 CL   UNL     1      28.628  39.815  50.595  1.00  0.00    -0.081 Cl
HETATM   20  C   UNL     1      28.330  41.629  52.660  1.00  0.00     0.062 A 
ENDBRANCH   2  13
TORSDOF 3
ENDMDL
MODEL 4
REMARK VINA RESULT:      -6.8      4.359      6.893
REMARK  3 active torsions:
REMARK  status: ('A' for Active; 'I' for Inactive)
REMARK    1  A    between atoms: C_2  and  N_3 
REMARK    2  A    between atoms: C_2  and  C_14 
REMARK       I    between atoms: N_3  and  C_4 
REMARK    3  A    between atoms: C_4  and  C_5 
ROOT
HETATM    1  N   UNL     1      26.687  45.264  53.520  1.00  0.00    -0.347 N 
HETATM    2  C   UNL     1      25.487  44.604  53.447  1.00  0.00     0.268 C 
HETATM    3  O   UNL     1      24.800  44.360  54.435  1.00  0.00    -0.266 OA
HETATM    4  H   UNL     1      27.208  45.446  52.676  1.00  0.00     0.163 HD
ENDROOT
BRANCH   1   5
HETATM    5  C   UNL     1      27.218  45.762  54.776  1.00  0.00     0.114 C 
HETATM    6  C   UNL     1      27.364  47.288  54.750  1.00  0.00     0.037 C 
BRANCH   5   7
HETATM    7  C   UNL     1      28.525  45.059  55.089  1.00  0.00    -0.033 A 
HETATM    8  C   UNL     1      29.394  45.597  56.045  1.00  0.00     0.028 A 
HETATM    9  C   UNL     1      30.573  44.926  56.331  1.00  0.00     0.116 A 
HETATM   10  N   UNL     1      30.939  43.768  55.745  1.00  0.00    -0.273 NA
HETATM   11  C   UNL     1      30.088  43.257  54.832  1.00  0.00     0.116 A 
HETATM   12  C   UNL     1      28.887  43.853  54.478  1.00  0.00     0.028 A 
ENDBRANCH   5   7
ENDBRANCH   1   5
BRANCH   2  13
HETATM   13  C   UNL     1      25.074  44.210  52.119  1.00  0.00     0.103 A 
HETATM   14  N   UNL     1      25.315  42.932  51.647  1.00  0.00    -0.341 N 
HETATM   15  H   UNL     1      25.784  42.207  52.177  1.00  0.00     0.167 HD
HETATM   16  C   UNL     1      24.830  42.810  50.383  1.00  0.00     0.126 A 
HETATM   17 CL   UNL     1      25.018  41.312  49.608  1.00  0.00    -0.063 Cl
HETATM   18  C   UNL     1      24.265  43.994  50.000  1.00  0.00     0.074 A 
HETATM   19 CL   UNL     1      23.516  44.381  48.530  1.00  0.00    -0.081 Cl
HETATM   20  C   UNL     1      24.418  44.886  51.095  1.00  0.00     0.062 A 
ENDBRANCH   2  13
TORSDOF 3
ENDMDL
MODEL 5
REMARK VINA RESULT:      -6.7      3.649      6.699
REMARK  3 active torsions:
REMARK  status: ('A' for Active; 'I' for Inactive)
REMARK    1  A    between atoms: C_2  and  N_3 
REMARK    2  A    between atoms: C_2  and  C_14 
REMARK       I    between atoms: N_3  and  C_4 
REMARK    3  A    between atoms: C_4  and  C_5 
ROOT
HETATM    1  N   UNL     1      26.218  45.273  52.250  1.00  0.00    -0.347 N 
HETATM    2  C   UNL     1      25.106  45.510  51.483  1.00  0.00     0.268 C 
HETATM    3  O   UNL     1      24.114  44.788  51.508  1.00  0.00    -0.266 OA
HETATM    4  H   UNL     1      27.004  45.903  52.197  1.00  0.00     0.163 HD
ENDROOT
BRANCH   1   5
HETATM    5  C   UNL     1      26.287  44.166  53.186  1.00  0.00     0.114 C 
HETATM    6  C   UNL     1      25.533  44.486  54.481  1.00  0.00     0.037 C 
BRANCH   5   7
HETATM    7  C   UNL     1      27.739  43.801  53.434  1.00  0.00    -0.033 A 
HETATM    8  C   UNL     1      28.343  44.134  54.652  1.00  0.00     0.028 A 
HETATM    9  C   UNL     1      29.663  43.772  54.866  1.00  0.00     0.116 A 
HETATM   10  N   UNL     1      30.414  43.103  53.967  1.00  0.00    -0.273 NA
HETATM   11  C   UNL     1      29.817  42.782  52.801  1.00  0.00     0.116 A 
HETATM   12  C   UNL     1      28.502  43.099  52.494  1.00  0.00     0.028 A 
ENDBRANCH   5   7
ENDBRANCH   1   5
BRANCH   2  13
HETATM   13  C   UNL     1      25.174  46.678  50.633  1.00  0.00     0.103 A 
HETATM   14  N   UNL     1      26.386  47.278  50.343  1.00  0.00    -0.341 N 
HETATM   15  H   UNL     1      27.281  46.957  50.694  1.00  0.00     0.167 HD
HETATM   16  C   UNL     1      26.187  48.346  49.527  1.00  0.00     0.126 A 
HETATM   17 CL   UNL     1      27.549  49.233  49.041  1.00  0.00    -0.063 Cl
HETATM   18  C   UNL     1      24.851  48.470  49.265  1.00  0.00     0.074 A 
HETATM   19 CL   UNL     1      24.065  49.625  48.306  1.00  0.00    -0.081 Cl
HETATM   20  C   UNL     1      24.204  47.417  49.964  1.00  0.00     0.062 A 
ENDBRANCH   2  13
TORSDOF 3
ENDMDL
MODEL 6
REMARK VINA RESULT:      -6.7      5.226      7.554
REMARK  3 active torsions:
REMARK  status: ('A' for Active; 'I' for Inactive)
REMARK    1  A    between atoms: C_2  and  N_3 
REMARK    2  A    between atoms: C_2  and  C_14 
REMARK       I    between atoms: N_3  and  C_4 
REMARK    3  A    between atoms: C_4  and  C_5 
ROOT
HETATM    1  N   UNL     1      23.623  47.194  49.822  1.00  0.00    -0.347 N 
HETATM    2  C   UNL     1      23.713  48.467  49.319  1.00  0.00     0.268 C 
HETATM    3  O   UNL     1      24.776  48.973  48.974  1.00  0.00    -0.266 OA
HETATM    4  H   UNL     1      22.723  46.822  50.082  1.00  0.00     0.163 HD
ENDROOT
BRANCH   1   5
HETATM    5  C   UNL     1      24.784  46.331  49.946  1.00  0.00     0.114 C 
HETATM    6  C   UNL     1      24.575  45.009  49.199  1.00  0.00     0.037 C 
BRANCH   5   7
HETATM    7  C   UNL     1      25.107  46.123  51.414  1.00  0.00    -0.033 A 
HETATM    8  C   UNL     1      24.896  44.871  52.003  1.00  0.00     0.028 A 
HETATM    9  C   UNL     1      25.219  44.698  53.340  1.00  0.00     0.116 A 
HETATM   10  N   UNL     1      25.737  45.669  54.120  1.00  0.00    -0.273 NA
HETATM   11  C   UNL     1      25.942  46.867  53.537  1.00  0.00     0.116 A 
HETATM   12  C   UNL     1      25.652  47.139  52.207  1.00  0.00     0.028 A 
ENDBRANCH   5   7
ENDBRANCH   1   5
BRANCH   2  13
HETATM   13  C   UNL     1      22.461  49.184  49.216  1.00  0.00     0.103 A 
HETATM   14  N   UNL     1      21.263  48.577  49.547  1.00  0.00    -0.341 N 
HETATM   15  H   UNL     1      21.178  47.620  49.870  1.00  0.00     0.167 HD
HETATM   16  C   UNL     1      20.240  49.453  49.371  1.00  0.00     0.126 A 
HETATM   17 CL   UNL     1      18.670  48.914  49.724  1.00  0.00    -0.063 Cl
HETATM   18  C   UNL     1      20.739  50.645  48.925  1.00  0.00     0.074 A 
HETATM   19 CL   UNL     1      19.899  52.070  48.553  1.00  0.00    -0.081 Cl
HETATM   20  C   UNL     1      22.145  50.480  48.823  1.00  0.00     0.062 A 
ENDBRANCH   2  13
TORSDOF 3
ENDMDL
MODEL 7
REMARK VINA RESULT:      -6.7      5.248      7.724
REMARK  3 active torsions:
REMARK  status: ('A' for Active; 'I' for Inactive)
REMARK    1  A    between atoms: C_2  and  N_3 
REMARK    2  A    between atoms: C_2  and  C_14 
REMARK       I    between atoms: N_3  and  C_4 
REMARK    3  A    between atoms: C_4  and  C_5 
ROOT
HETATM    1  N   UNL     1      28.081  42.292  52.161  1.00  0.00    -0.347 N 
HETATM    2  C   UNL     1      27.275  41.617  51.280  1.00  0.00     0.268 C 
HETATM    3  O   UNL     1      26.106  41.927  51.076  1.00  0.00    -0.266 OA
HETATM    4  H   UNL     1      29.038  42.001  52.286  1.00  0.00     0.163 HD
ENDROOT
BRANCH   1   5
HETATM    5  C   UNL     1      27.617  43.459  52.891  1.00  0.00     0.114 C 
HETATM    6  C   UNL     1      27.320  44.625  51.942  1.00  0.00     0.037 C 
BRANCH   5   7
HETATM    7  C   UNL     1      28.630  43.824  53.960  1.00  0.00    -0.033 A 
HETATM    8  C   UNL     1      28.481  45.011  54.685  1.00  0.00     0.028 A 
HETATM    9  C   UNL     1      29.405  45.314  55.673  1.00  0.00     0.116 A 
HETATM   10  N   UNL     1      30.451  44.524  55.989  1.00  0.00    -0.273 NA
HETATM   11  C   UNL     1      30.579  43.379  55.288  1.00  0.00     0.116 A 
HETATM   12  C   UNL     1      29.706  42.988  54.283  1.00  0.00     0.028 A 
ENDBRANCH   5   7
ENDBRANCH   1   5
BRANCH   2  13
HETATM   13  C   UNL     1      27.897  40.504  50.597  1.00  0.00     0.103 A 
HETATM   14  N   UNL     1      28.736  39.634  51.270  1.00  0.00    -0.341 N 
HETATM   15  H   UNL     1      28.969  39.712  52.253  1.00  0.00     0.167 HD
HETATM   16  C   UNL     1      29.186  38.677  50.417  1.00  0.00     0.126 A 
HETATM   17 CL   UNL     1      30.234  37.496  51.038  1.00  0.00    -0.063 Cl
HETATM   18  C   UNL     1      28.658  38.896  49.175  1.00  0.00     0.074 A 
HETATM   19 CL   UNL     1      28.891  38.001  47.755  1.00  0.00    -0.081 Cl
HETATM   20  C   UNL     1      27.842  40.053  49.283  1.00  0.00     0.062 A 
ENDBRANCH   2  13
TORSDOF 3
ENDMDL
MODEL 8
REMARK VINA RESULT:      -6.7      4.193      5.215
REMARK  3 active torsions:
REMARK  status: ('A' for Active; 'I' for Inactive)
REMARK    1  A    between atoms: C_2  and  N_3 
REMARK    2  A    between atoms: C_2  and  C_14 
REMARK       I    between atoms: N_3  and  C_4 
REMARK    3  A    between atoms: C_4  and  C_5 
ROOT
HETATM    1  N   UNL     1      27.800  44.154  53.415  1.00  0.00    -0.347 N 
HETATM    2  C   UNL     1      28.098  45.219  54.227  1.00  0.00     0.268 C 
HETATM    3  O   UNL     1      27.533  46.304  54.134  1.00  0.00    -0.266 OA
HETATM    4  H   UNL     1      28.289  43.280  53.539  1.00  0.00     0.163 HD
ENDROOT
BRANCH   1   5
HETATM    5  C   UNL     1      26.758  44.221  52.407  1.00  0.00     0.114 C 
HETATM    6  C   UNL     1      25.368  44.067  53.035  1.00  0.00     0.037 C 
BRANCH   5   7
HETATM    7  C   UNL     1      27.026  43.186  51.331  1.00  0.00    -0.033 A 
HETATM    8  C   UNL     1      27.746  42.028  51.641  1.00  0.00     0.028 A 
HETATM    9  C   UNL     1      27.960  41.085  50.648  1.00  0.00     0.116 A 
HETATM   10  N   UNL     1      27.507  41.211  49.383  1.00  0.00    -0.273 NA
HETATM   11  C   UNL     1      26.808  42.328  49.100  1.00  0.00     0.116 A 
HETATM   12  C   UNL     1      26.541  43.327  50.025  1.00  0.00     0.028 A 
ENDBRANCH   5   7
ENDBRANCH   1   5
BRANCH   2  13
HETATM   13  C   UNL     1      29.130  44.980  55.211  1.00  0.00     0.103 A 
HETATM   14  N   UNL     1      29.326  45.855  56.264  1.00  0.00    -0.341 N 
HETATM   15  H   UNL     1      28.784  46.697  56.415  1.00  0.00     0.167 HD
HETATM   16  C   UNL     1      30.344  45.411  57.048  1.00  0.00     0.126 A 
HETATM   17 CL   UNL     1      30.755  46.338  58.408  1.00  0.00    -0.063 Cl
HETATM   18  C   UNL     1      30.835  44.245  56.531  1.00  0.00     0.074 A 
HETATM   19 CL   UNL     1      32.097  43.277  57.117  1.00  0.00    -0.081 Cl
HETATM   20  C   UNL     1      30.071  43.968  55.366  1.00  0.00     0.062 A 
ENDBRANCH   2  13
TORSDOF 3
ENDMDL
MODEL 9
REMARK VINA RESULT:      -6.6      4.537      5.981
REMARK  3 active torsions:
REMARK  status: ('A' for Active; 'I' for Inactive)
REMARK    1  A    between atoms: C_2  and  N_3 
REMARK    2  A    between atoms: C_2  and  C_14 
REMARK       I    between atoms: N_3  and  C_4 
REMARK    3  A    between atoms: C_4  and  C_5 
ROOT
HETATM    1  N   UNL     1      22.724  48.931  49.428  1.00  0.00    -0.347 N 
HETATM    2  C   UNL     1      23.089  47.708  48.926  1.00  0.00     0.268 C 
HETATM    3  O   UNL     1      22.805  47.344  47.790  1.00  0.00    -0.266 OA
HETATM    4  H   UNL     1      22.991  49.185  50.367  1.00  0.00     0.163 HD
ENDROOT
BRANCH   1   5
HETATM    5  C   UNL     1      22.006  49.908  48.631  1.00  0.00     0.114 C 
HETATM    6  C   UNL     1      22.830  51.187  48.444  1.00  0.00     0.037 C 
BRANCH   5   7
HETATM    7  C   UNL     1      20.651  50.178  49.258  1.00  0.00    -0.033 A 
HETATM    8  C   UNL     1      20.130  51.477  49.261  1.00  0.00     0.028 A 
HETATM    9  C   UNL     1      18.881  51.696  49.819  1.00  0.00     0.116 A 
HETATM   10  N   UNL     1      18.120  50.724  50.363  1.00  0.00    -0.273 NA
HETATM   11  C   UNL     1      18.631  49.476  50.346  1.00  0.00     0.116 A 
HETATM   12  C   UNL     1      19.870  49.156  49.810  1.00  0.00     0.028 A 
ENDBRANCH   5   7
ENDBRANCH   1   5
BRANCH   2  13
HETATM   13  C   UNL     1      23.839  46.864  49.830  1.00  0.00     0.103 A 
HETATM   14  N   UNL     1      23.605  45.502  49.894  1.00  0.00    -0.341 N 
HETATM   15  H   UNL     1      22.913  45.015  49.336  1.00  0.00     0.167 HD
HETATM   16  C   UNL     1      24.435  44.935  50.808  1.00  0.00     0.126 A 
HETATM   17 CL   UNL     1      24.318  43.259  51.048  1.00  0.00    -0.063 Cl
HETATM   18  C   UNL     1      25.226  45.903  51.360  1.00  0.00     0.074 A 
HETATM   19 CL   UNL     1      26.430  45.738  52.542  1.00  0.00    -0.081 Cl
HETATM   20  C   UNL     1      24.852  47.128  50.746  1.00  0.00     0.062 A 
ENDBRANCH   2  13
TORSDOF 3
ENDMDL
MODEL 10
REMARK VINA RESULT:      -6.6      3.824      6.711
REMARK  3 active torsions:
REMARK  status: ('A' for Active; 'I' for Inactive)
REMARK    1  A    between atoms: C_2  and  N_3 
REMARK    2  A    between atoms: C_2  and  C_14 
REMARK       I    between atoms: N_3  and  C_4 
REMARK    3  A    between atoms: C_4  and  C_5 
ROOT
HETATM    1  N   UNL     1      26.172  45.532  52.094  1.00  0.00    -0.347 N 
HETATM    2  C   UNL     1      25.234  45.708  51.108  1.00  0.00     0.268 C 
HETATM    3  O   UNL     1      24.336  44.900  50.893  1.00  0.00    -0.266 OA
HETATM    4  H   UNL     1      26.885  46.231  52.235  1.00  0.00     0.163 HD
ENDROOT
BRANCH   1   5
HETATM    5  C   UNL     1      26.145  44.389  52.988  1.00  0.00     0.114 C 
HETATM    6  C   UNL     1      25.320  44.687  54.245  1.00  0.00     0.037 C 
BRANCH   5   7
HETATM    7  C   UNL     1      27.565  43.965  53.313  1.00  0.00    -0.033 A 
HETATM    8  C   UNL     1      28.345  43.334  52.338  1.00  0.00     0.028 A 
HETATM    9  C   UNL     1      29.647  42.976  52.649  1.00  0.00     0.116 A 
HETATM   10  N   UNL     1      30.222  43.206  53.848  1.00  0.00    -0.273 NA
HETATM   11  C   UNL     1      29.462  43.821  54.776  1.00  0.00     0.116 A 
HETATM   12  C   UNL     1      28.150  44.219  54.559  1.00  0.00     0.028 A 
ENDBRANCH   5   7
ENDBRANCH   1   5
BRANCH   2  13
HETATM   13  C   UNL     1      25.370  46.919  50.330  1.00  0.00     0.103 A 
HETATM   14  N   UNL     1      24.265  47.534  49.770  1.00  0.00    -0.341 N 
HETATM   15  H   UNL     1      23.316  47.192  49.858  1.00  0.00     0.167 HD
HETATM   16  C   UNL     1      24.652  48.649  49.096  1.00  0.00     0.126 A 
HETATM   17 CL   UNL     1      23.447  49.564  48.328  1.00  0.00    -0.063 Cl
HETATM   18  C   UNL     1      26.008  48.790  49.198  1.00  0.00     0.074 A 
HETATM   19 CL   UNL     1      26.996  50.005  48.550  1.00  0.00    -0.081 Cl
HETATM   20  C   UNL     1      26.469  47.696  49.977  1.00  0.00     0.062 A 
ENDBRANCH   2  13
TORSDOF 3
ENDMDL
