MODEL 1
REMARK VINA RESULT:     -10.2      0.000      0.000
REMARK  6 active torsions:
REMARK  status: ('A' for Active; 'I' for Inactive)
REMARK    1  A    between atoms: C_4  and  C_5 
REMARK    2  A    between atoms: C_5  and  N_6 
REMARK    3  A    between atoms: C_14  and  C_15 
REMARK    4  A    between atoms: C_18  and  O_19 
REMARK    5  A    between atoms: O_19  and  C_20 
REMARK    6  A    between atoms: C_20  and  C_21 
ROOT
HETATM    1  N   UNL     1      18.315  50.558  49.302  1.00  0.00    -0.063 N 
HETATM    2  H   UNL     1      18.539  50.493  50.301  1.00  0.00     0.280 HD
HETATM    3  C   UNL     1      18.539  49.156  48.755  1.00  0.00     0.282 C 
HETATM    4  C   UNL     1      19.986  48.806  48.830  1.00  0.00     0.018 A 
HETATM    5  C   UNL     1      21.015  49.716  48.991  1.00  0.00    -0.023 A 
HETATM    6  C   UNL     1      22.288  49.060  48.987  1.00  0.00     0.073 A 
HETATM    7  C   UNL     1      22.163  47.706  48.789  1.00  0.00     0.088 A 
HETATM    8  N   UNL     1      23.213  46.867  48.696  1.00  0.00    -0.358 N 
HETATM    9  C   UNL     1      24.527  47.307  49.111  1.00  0.00     0.219 C 
HETATM   10  N   UNL     1      24.649  48.743  49.063  1.00  0.00    -0.332 N 
HETATM   11  C   UNL     1      23.612  49.630  49.133  1.00  0.00     0.256 C 
HETATM   12  O   UNL     1      23.800  50.829  49.305  1.00  0.00    -0.267 OA
HETATM   13  S   UNL     1      20.543  47.208  48.661  1.00  0.00    -0.074 SA
HETATM   14  C   UNL     1      20.748  51.184  49.147  1.00  0.00     0.068 C 
HETATM   15  C   UNL     1      19.314  51.547  48.712  1.00  0.00     0.240 C 
HETATM   16  H   UNL     1      23.057  45.866  48.757  1.00  0.00     0.162 HD
HETATM   17  H   UNL     1      25.563  49.140  49.222  1.00  0.00     0.165 HD
ENDROOT
BRANCH   9  18
HETATM   18  C   UNL     1      24.877  46.710  50.461  1.00  0.00    -0.016 A 
HETATM   19  C   UNL     1      25.679  47.449  51.350  1.00  0.00     0.014 A 
HETATM   20  C   UNL     1      26.026  46.940  52.607  1.00  0.00     0.037 A 
HETATM   21  C   UNL     1      25.573  45.684  53.003  1.00  0.00     0.069 A 
HETATM   22  C   UNL     1      24.807  44.927  52.114  1.00  0.00     0.037 A 
HETATM   23  C   UNL     1      24.464  45.429  50.856  1.00  0.00     0.014 A 
BRANCH  21  24
HETATM   24  O   UNL     1      25.812  45.085  54.208  1.00  0.00    -0.347 OA
BRANCH  24  25
HETATM   25  C   UNL     1      26.455  43.811  54.181  1.00  0.00     0.214 C 
BRANCH  25  26
HETATM   26  C   UNL     1      27.880  43.985  54.643  1.00  0.00    -0.034 A 
HETATM   27  C   UNL     1      28.842  43.003  54.365  1.00  0.00     0.009 A 
HETATM   28  C   UNL     1      30.161  43.164  54.794  1.00  0.00     0.001 A 
HETATM   29  C   UNL     1      30.529  44.304  55.508  1.00  0.00     0.000 A 
HETATM   30  C   UNL     1      29.579  45.281  55.797  1.00  0.00     0.001 A 
HETATM   31  C   UNL     1      28.261  45.122  55.370  1.00  0.00     0.009 A 
ENDBRANCH  25  26
ENDBRANCH  24  25
ENDBRANCH  21  24
ENDBRANCH   9  18
BRANCH   1  32
HETATM   32  C   UNL     1      16.877  51.009  49.238  1.00  0.00     0.273 C 
BRANCH  32  33
HETATM   33  C   UNL     1      16.130  50.643  47.984  1.00  0.00    -0.033 A 
HETATM   34  C   UNL     1      16.055  51.548  46.912  1.00  0.00     0.009 A 
HETATM   35  C   UNL     1      15.335  51.228  45.761  1.00  0.00     0.001 A 
HETATM   36  C   UNL     1      14.685  50.000  45.665  1.00  0.00     0.000 A 
HETATM   37  C   UNL     1      14.761  49.087  46.714  1.00  0.00     0.001 A 
HETATM   38  C   UNL     1      15.482  49.404  47.866  1.00  0.00     0.009 A 
ENDBRANCH  32  33
ENDBRANCH   1  32
TORSDOF 6
ENDMDL
MODEL 2
REMARK VINA RESULT:      -9.7      2.291     11.484
REMARK  6 active torsions:
REMARK  status: ('A' for Active; 'I' for Inactive)
REMARK    1  A    between atoms: C_4  and  C_5 
REMARK    2  A    between atoms: C_5  and  N_6 
REMARK    3  A    between atoms: C_14  and  C_15 
REMARK    4  A    between atoms: C_18  and  O_19 
REMARK    5  A    between atoms: O_19  and  C_20 
REMARK    6  A    between atoms: C_20  and  C_21 
ROOT
HETATM    1  N   UNL     1      25.997  43.780  52.681  1.00  0.00    -0.063 N 
HETATM    2  H   UNL     1      25.122  43.975  53.181  1.00  0.00     0.280 HD
HETATM    3  C   UNL     1      26.508  45.142  52.235  1.00  0.00     0.282 C 
HETATM    4  C   UNL     1      25.580  45.728  51.226  1.00  0.00     0.018 A 
HETATM    5  C   UNL     1      24.634  45.016  50.511  1.00  0.00    -0.023 A 
HETATM    6  C   UNL     1      23.931  45.866  49.598  1.00  0.00     0.073 A 
HETATM    7  C   UNL     1      24.399  47.157  49.640  1.00  0.00     0.088 A 
HETATM    8  N   UNL     1      23.940  48.142  48.845  1.00  0.00    -0.358 N 
HETATM    9  C   UNL     1      22.705  47.962  48.114  1.00  0.00     0.219 C 
HETATM   10  N   UNL     1      22.406  46.567  47.906  1.00  0.00    -0.332 N 
HETATM   11  C   UNL     1      22.865  45.535  48.673  1.00  0.00     0.256 C 
HETATM   12  O   UNL     1      22.403  44.403  48.576  1.00  0.00    -0.267 OA
HETATM   13  S   UNL     1      25.630  47.371  50.793  1.00  0.00    -0.074 SA
HETATM   14  C   UNL     1      24.429  43.545  50.727  1.00  0.00     0.068 C 
HETATM   15  C   UNL     1      25.614  42.915  51.486  1.00  0.00     0.240 C 
HETATM   16  H   UNL     1      24.173  49.106  49.060  1.00  0.00     0.162 HD
HETATM   17  H   UNL     1      21.626  46.340  47.306  1.00  0.00     0.165 HD
ENDROOT
BRANCH   9  18
HETATM   18  C   UNL     1      21.583  48.733  48.783  1.00  0.00    -0.016 A 
HETATM   19  C   UNL     1      21.818  50.051  49.216  1.00  0.00     0.014 A 
HETATM   20  C   UNL     1      20.813  50.801  49.836  1.00  0.00     0.037 A 
HETATM   21  C   UNL     1      19.548  50.250  50.031  1.00  0.00     0.069 A 
HETATM   22  C   UNL     1      19.315  48.931  49.639  1.00  0.00     0.037 A 
HETATM   23  C   UNL     1      20.318  48.176  49.025  1.00  0.00     0.014 A 
BRANCH  21  24
HETATM   24  O   UNL     1      18.474  50.880  50.593  1.00  0.00    -0.347 OA
BRANCH  24  25
HETATM   25  C   UNL     1      18.050  52.101  49.986  1.00  0.00     0.214 C 
BRANCH  25  26
HETATM   26  C   UNL     1      17.466  51.784  48.632  1.00  0.00    -0.034 A 
HETATM   27  C   UNL     1      16.230  51.130  48.527  1.00  0.00     0.009 A 
HETATM   28  C   UNL     1      15.689  50.836  47.274  1.00  0.00     0.001 A 
HETATM   29  C   UNL     1      16.381  51.187  46.115  1.00  0.00     0.000 A 
HETATM   30  C   UNL     1      17.614  51.828  46.208  1.00  0.00     0.001 A 
HETATM   31  C   UNL     1      18.156  52.122  47.460  1.00  0.00     0.009 A 
ENDBRANCH  25  26
ENDBRANCH  24  25
ENDBRANCH  21  24
ENDBRANCH   9  18
BRANCH   1  32
HETATM   32  C   UNL     1      26.893  43.098  53.685  1.00  0.00     0.273 C 
BRANCH  32  33
HETATM   33  C   UNL     1      27.840  43.995  54.435  1.00  0.00    -0.033 A 
HETATM   34  C   UNL     1      29.202  43.664  54.538  1.00  0.00     0.009 A 
HETATM   35  C   UNL     1      30.077  44.474  55.261  1.00  0.00     0.001 A 
HETATM   36  C   UNL     1      29.605  45.625  55.887  1.00  0.00     0.000 A 
HETATM   37  C   UNL     1      28.261  45.974  55.783  1.00  0.00     0.001 A 
HETATM   38  C   UNL     1      27.382  45.166  55.059  1.00  0.00     0.009 A 
ENDBRANCH  32  33
ENDBRANCH   1  32
TORSDOF 6
ENDMDL
MODEL 3
REMARK VINA RESULT:      -9.6      2.780     11.561
REMARK  6 active torsions:
REMARK  status: ('A' for Active; 'I' for Inactive)
REMARK    1  A    between atoms: C_4  and  C_5 
REMARK    2  A    between atoms: C_5  and  N_6 
REMARK    3  A    between atoms: C_14  and  C_15 
REMARK    4  A    between atoms: C_18  and  O_19 
REMARK    5  A    between atoms: O_19  and  C_20 
REMARK    6  A    between atoms: C_20  and  C_21 
ROOT
HETATM    1  N   UNL     1      26.812  46.466  54.896  1.00  0.00    -0.063 N 
HETATM    2  H   UNL     1      25.838  46.716  55.102  1.00  0.00     0.280 HD
HETATM    3  C   UNL     1      27.135  47.180  53.592  1.00  0.00     0.282 C 
HETATM    4  C   UNL     1      26.320  46.608  52.483  1.00  0.00     0.018 A 
HETATM    5  C   UNL     1      25.674  45.385  52.522  1.00  0.00    -0.023 A 
HETATM    6  C   UNL     1      25.009  45.113  51.283  1.00  0.00     0.073 A 
HETATM    7  C   UNL     1      25.213  46.115  50.365  1.00  0.00     0.088 A 
HETATM    8  N   UNL     1      24.736  46.079  49.107  1.00  0.00    -0.358 N 
HETATM    9  C   UNL     1      23.715  45.119  48.749  1.00  0.00     0.219 C 
HETATM   10  N   UNL     1      23.726  43.976  49.628  1.00  0.00    -0.332 N 
HETATM   11  C   UNL     1      24.217  43.961  50.903  1.00  0.00     0.256 C 
HETATM   12  O   UNL     1      24.000  43.027  51.667  1.00  0.00    -0.267 OA
HETATM   13  S   UNL     1      26.144  47.395  50.986  1.00  0.00    -0.074 SA
HETATM   14  C   UNL     1      25.710  44.517  53.746  1.00  0.00     0.068 C 
HETATM   15  C   UNL     1      26.827  44.952  54.715  1.00  0.00     0.240 C 
HETATM   16  H   UNL     1      24.741  46.927  48.547  1.00  0.00     0.162 HD
HETATM   17  H   UNL     1      23.128  43.197  49.391  1.00  0.00     0.165 HD
ENDROOT
BRANCH   9  18
HETATM   18  C   UNL     1      22.364  45.801  48.652  1.00  0.00    -0.016 A 
HETATM   19  C   UNL     1      22.305  47.206  48.624  1.00  0.00     0.014 A 
HETATM   20  C   UNL     1      21.082  47.880  48.534  1.00  0.00     0.037 A 
HETATM   21  C   UNL     1      19.891  47.160  48.463  1.00  0.00     0.069 A 
HETATM   22  C   UNL     1      19.935  45.766  48.526  1.00  0.00     0.037 A 
HETATM   23  C   UNL     1      21.154  45.091  48.623  1.00  0.00     0.014 A 
BRANCH  21  24
HETATM   24  O   UNL     1      18.637  47.690  48.342  1.00  0.00    -0.347 OA
BRANCH  24  25
HETATM   25  C   UNL     1      18.464  48.725  47.375  1.00  0.00     0.214 C 
BRANCH  25  26
HETATM   26  C   UNL     1      18.388  50.047  48.097  1.00  0.00    -0.034 A 
HETATM   27  C   UNL     1      19.355  51.037  47.872  1.00  0.00     0.009 A 
HETATM   28  C   UNL     1      19.285  52.260  48.542  1.00  0.00     0.001 A 
HETATM   29  C   UNL     1      18.252  52.503  49.446  1.00  0.00     0.000 A 
HETATM   30  C   UNL     1      17.291  51.522  49.685  1.00  0.00     0.001 A 
HETATM   31  C   UNL     1      17.360  50.300  49.017  1.00  0.00     0.009 A 
ENDBRANCH  25  26
ENDBRANCH  24  25
ENDBRANCH  21  24
ENDBRANCH   9  18
BRANCH   1  32
HETATM   32  C   UNL     1      27.615  46.963  56.072  1.00  0.00     0.273 C 
BRANCH  32  33
HETATM   33  C   UNL     1      28.769  46.094  56.493  1.00  0.00    -0.033 A 
HETATM   34  C   UNL     1      29.151  46.027  57.844  1.00  0.00     0.009 A 
HETATM   35  C   UNL     1      30.241  45.250  58.235  1.00  0.00     0.001 A 
HETATM   36  C   UNL     1      30.959  44.527  57.285  1.00  0.00     0.000 A 
HETATM   37  C   UNL     1      30.583  44.572  55.945  1.00  0.00     0.001 A 
HETATM   38  C   UNL     1      29.492  45.348  55.550  1.00  0.00     0.009 A 
ENDBRANCH  32  33
ENDBRANCH   1  32
TORSDOF 6
ENDMDL
MODEL 4
REMARK VINA RESULT:      -9.1      8.875     12.107
REMARK  6 active torsions:
REMARK  status: ('A' for Active; 'I' for Inactive)
REMARK    1  A    between atoms: C_4  and  C_5 
REMARK    2  A    between atoms: C_5  and  N_6 
REMARK    3  A    between atoms: C_14  and  C_15 
REMARK    4  A    between atoms: C_18  and  O_19 
REMARK    5  A    between atoms: O_19  and  C_20 
REMARK    6  A    between atoms: C_20  and  C_21 
ROOT
HETATM    1  N   UNL     1      28.144  39.260  43.863  1.00  0.00    -0.063 N 
HETATM    2  H   UNL     1      28.955  39.758  44.249  1.00  0.00     0.280 HD
HETATM    3  C   UNL     1      26.934  40.046  44.344  1.00  0.00     0.282 C 
HETATM    4  C   UNL     1      26.814  39.941  45.826  1.00  0.00     0.018 A 
HETATM    5  C   UNL     1      27.439  38.986  46.606  1.00  0.00    -0.023 A 
HETATM    6  C   UNL     1      27.089  39.138  47.987  1.00  0.00     0.073 A 
HETATM    7  C   UNL     1      26.198  40.167  48.176  1.00  0.00     0.088 A 
HETATM    8  N   UNL     1      25.674  40.486  49.374  1.00  0.00    -0.358 N 
HETATM    9  C   UNL     1      26.264  39.957  50.584  1.00  0.00     0.219 C 
HETATM   10  N   UNL     1      26.990  38.737  50.334  1.00  0.00    -0.332 N 
HETATM   11  C   UNL     1      27.521  38.363  49.132  1.00  0.00     0.256 C 
HETATM   12  O   UNL     1      28.308  37.427  49.038  1.00  0.00    -0.267 OA
HETATM   13  S   UNL     1      25.819  40.980  46.732  1.00  0.00    -0.074 SA
HETATM   14  C   UNL     1      28.355  37.959  46.008  1.00  0.00     0.068 C 
HETATM   15  C   UNL     1      28.177  37.866  44.479  1.00  0.00     0.240 C 
HETATM   16  H   UNL     1      25.190  41.372  49.486  1.00  0.00     0.162 HD
HETATM   17  H   UNL     1      27.340  38.228  51.133  1.00  0.00     0.165 HD
ENDROOT
BRANCH   9  18
HETATM   18  C   UNL     1      27.086  41.026  51.278  1.00  0.00    -0.016 A 
HETATM   19  C   UNL     1      26.644  42.361  51.247  1.00  0.00     0.014 A 
HETATM   20  C   UNL     1      27.369  43.381  51.874  1.00  0.00     0.037 A 
HETATM   21  C   UNL     1      28.549  43.084  52.552  1.00  0.00     0.069 A 
HETATM   22  C   UNL     1      29.016  41.768  52.559  1.00  0.00     0.037 A 
HETATM   23  C   UNL     1      28.298  40.749  51.928  1.00  0.00     0.014 A 
BRANCH  21  24
HETATM   24  O   UNL     1      29.333  43.975  53.230  1.00  0.00    -0.347 OA
BRANCH  24  25
HETATM   25  C   UNL     1      28.733  44.656  54.331  1.00  0.00     0.214 C 
BRANCH  25  26
HETATM   26  C   UNL     1      29.651  44.540  55.523  1.00  0.00    -0.034 A 
HETATM   27  C   UNL     1      29.623  45.506  56.538  1.00  0.00     0.009 A 
HETATM   28  C   UNL     1      30.473  45.398  57.640  1.00  0.00     0.001 A 
HETATM   29  C   UNL     1      31.362  44.328  57.735  1.00  0.00     0.000 A 
HETATM   30  C   UNL     1      31.404  43.367  56.727  1.00  0.00     0.001 A 
HETATM   31  C   UNL     1      30.555  43.474  55.625  1.00  0.00     0.009 A 
ENDBRANCH  25  26
ENDBRANCH  24  25
ENDBRANCH  21  24
ENDBRANCH   9  18
BRANCH   1  32
HETATM   32  C   UNL     1      28.327  39.287  42.367  1.00  0.00     0.273 C 
BRANCH  32  33
HETATM   33  C   UNL     1      29.605  38.682  41.850  1.00  0.00    -0.033 A 
HETATM   34  C   UNL     1      30.849  39.177  42.277  1.00  0.00     0.009 A 
HETATM   35  C   UNL     1      32.035  38.643  41.775  1.00  0.00     0.001 A 
HETATM   36  C   UNL     1      31.995  37.605  40.847  1.00  0.00     0.000 A 
HETATM   37  C   UNL     1      30.770  37.095  40.426  1.00  0.00     0.001 A 
HETATM   38  C   UNL     1      29.580  37.626  40.926  1.00  0.00     0.009 A 
ENDBRANCH  32  33
ENDBRANCH   1  32
TORSDOF 6
ENDMDL
MODEL 5
REMARK VINA RESULT:      -9.1      8.430     12.324
REMARK  6 active torsions:
REMARK  status: ('A' for Active; 'I' for Inactive)
REMARK    1  A    between atoms: C_4  and  C_5 
REMARK    2  A    between atoms: C_5  and  N_6 
REMARK    3  A    between atoms: C_14  and  C_15 
REMARK    4  A    between atoms: C_18  and  O_19 
REMARK    5  A    between atoms: O_19  and  C_20 
REMARK    6  A    between atoms: C_20  and  C_21 
ROOT
HETATM    1  N   UNL     1      26.722  42.771  53.799  1.00  0.00    -0.063 N 
HETATM    2  H   UNL     1      26.094  41.965  53.899  1.00  0.00     0.280 HD
HETATM    3  C   UNL     1      26.465  43.298  52.395  1.00  0.00     0.282 C 
HETATM    4  C   UNL     1      26.915  42.298  51.386  1.00  0.00     0.018 A 
HETATM    5  C   UNL     1      27.778  41.247  51.641  1.00  0.00    -0.023 A 
HETATM    6  C   UNL     1      28.038  40.493  50.451  1.00  0.00     0.073 A 
HETATM    7  C   UNL     1      27.397  41.027  49.360  1.00  0.00     0.088 A 
HETATM    8  N   UNL     1      27.516  40.535  48.112  1.00  0.00    -0.358 N 
HETATM    9  C   UNL     1      28.086  39.221  47.906  1.00  0.00     0.219 C 
HETATM   10  N   UNL     1      28.941  38.833  48.999  1.00  0.00    -0.332 N 
HETATM   11  C   UNL     1      28.870  39.320  50.274  1.00  0.00     0.256 C 
HETATM   12  O   UNL     1      29.477  38.794  51.200  1.00  0.00    -0.267 OA
HETATM   13  S   UNL     1      26.450  42.383  49.753  1.00  0.00    -0.074 SA
HETATM   14  C   UNL     1      28.322  40.993  53.016  1.00  0.00     0.068 C 
HETATM   15  C   UNL     1      28.137  42.220  53.932  1.00  0.00     0.240 C 
HETATM   16  H   UNL     1      26.867  40.837  47.393  1.00  0.00     0.162 HD
HETATM   17  H   UNL     1      29.477  37.984  48.896  1.00  0.00     0.165 HD
ENDROOT
BRANCH   9  18
HETATM   18  C   UNL     1      26.990  38.217  47.602  1.00  0.00    -0.016 A 
HETATM   19  C   UNL     1      25.859  38.633  46.877  1.00  0.00     0.014 A 
HETATM   20  C   UNL     1      24.824  37.741  46.572  1.00  0.00     0.037 A 
HETATM   21  C   UNL     1      24.904  36.412  46.981  1.00  0.00     0.069 A 
HETATM   22  C   UNL     1      26.004  35.997  47.733  1.00  0.00     0.037 A 
HETATM   23  C   UNL     1      27.036  36.886  48.045  1.00  0.00     0.014 A 
BRANCH  21  24
HETATM   24  O   UNL     1      23.983  35.435  46.725  1.00  0.00    -0.347 OA
BRANCH  24  25
HETATM   25  C   UNL     1      22.616  35.748  46.994  1.00  0.00     0.214 C 
BRANCH  25  26
HETATM   26  C   UNL     1      22.100  34.783  48.033  1.00  0.00    -0.034 A 
HETATM   27  C   UNL     1      22.626  33.486  48.120  1.00  0.00     0.009 A 
HETATM   28  C   UNL     1      22.148  32.593  49.081  1.00  0.00     0.001 A 
HETATM   29  C   UNL     1      21.137  32.985  49.958  1.00  0.00     0.000 A 
HETATM   30  C   UNL     1      20.601  34.268  49.872  1.00  0.00     0.001 A 
HETATM   31  C   UNL     1      21.077  35.162  48.913  1.00  0.00     0.009 A 
ENDBRANCH  25  26
ENDBRANCH  24  25
ENDBRANCH  21  24
ENDBRANCH   9  18
BRANCH   1  32
HETATM   32  C   UNL     1      26.321  43.734  54.888  1.00  0.00     0.273 C 
BRANCH  32  33
HETATM   33  C   UNL     1      26.899  45.119  54.785  1.00  0.00    -0.033 A 
HETATM   34  C   UNL     1      28.218  45.372  55.199  1.00  0.00     0.009 A 
HETATM   35  C   UNL     1      28.746  46.661  55.137  1.00  0.00     0.001 A 
HETATM   36  C   UNL     1      27.968  47.712  54.657  1.00  0.00     0.000 A 
HETATM   37  C   UNL     1      26.664  47.474  54.230  1.00  0.00     0.001 A 
HETATM   38  C   UNL     1      26.131  46.186  54.290  1.00  0.00     0.009 A 
ENDBRANCH  32  33
ENDBRANCH   1  32
TORSDOF 6
ENDMDL
MODEL 6
REMARK VINA RESULT:      -9.0      6.161     11.669
REMARK  6 active torsions:
REMARK  status: ('A' for Active; 'I' for Inactive)
REMARK    1  A    between atoms: C_4  and  C_5 
REMARK    2  A    between atoms: C_5  and  N_6 
REMARK    3  A    between atoms: C_14  and  C_15 
REMARK    4  A    between atoms: C_18  and  O_19 
REMARK    5  A    between atoms: O_19  and  C_20 
REMARK    6  A    between atoms: C_20  and  C_21 
ROOT
HETATM    1  N   UNL     1      27.360  39.278  46.422  1.00  0.00    -0.063 N 
HETATM    2  H   UNL     1      27.674  40.204  46.112  1.00  0.00     0.280 HD
HETATM    3  C   UNL     1      25.870  39.436  46.688  1.00  0.00     0.282 C 
HETATM    4  C   UNL     1      25.654  40.353  47.843  1.00  0.00     0.018 A 
HETATM    5  C   UNL     1      26.617  40.696  48.775  1.00  0.00    -0.023 A 
HETATM    6  C   UNL     1      26.079  41.566  49.777  1.00  0.00     0.073 A 
HETATM    7  C   UNL     1      24.741  41.805  49.578  1.00  0.00     0.088 A 
HETATM    8  N   UNL     1      23.987  42.552  50.407  1.00  0.00    -0.358 N 
HETATM    9  C   UNL     1      24.621  43.401  51.391  1.00  0.00     0.219 C 
HETATM   10  N   UNL     1      25.946  42.937  51.721  1.00  0.00    -0.332 N 
HETATM   11  C   UNL     1      26.737  42.163  50.921  1.00  0.00     0.256 C 
HETATM   12  O   UNL     1      27.925  41.987  51.166  1.00  0.00    -0.267 OA
HETATM   13  S   UNL     1      24.138  41.046  48.181  1.00  0.00    -0.074 SA
HETATM   14  C   UNL     1      28.024  40.185  48.675  1.00  0.00     0.068 C 
HETATM   15  C   UNL     1      28.122  38.986  47.710  1.00  0.00     0.240 C 
HETATM   16  H   UNL     1      23.068  42.861  50.103  1.00  0.00     0.162 HD
HETATM   17  H   UNL     1      26.425  43.395  52.483  1.00  0.00     0.165 HD
ENDROOT
BRANCH   9  18
HETATM   18  C   UNL     1      24.576  44.849  50.942  1.00  0.00    -0.016 A 
HETATM   19  C   UNL     1      25.283  45.818  51.677  1.00  0.00     0.014 A 
HETATM   20  C   UNL     1      25.273  47.166  51.299  1.00  0.00     0.037 A 
HETATM   21  C   UNL     1      24.559  47.570  50.173  1.00  0.00     0.069 A 
HETATM   22  C   UNL     1      23.824  46.623  49.458  1.00  0.00     0.037 A 
HETATM   23  C   UNL     1      23.827  45.278  49.836  1.00  0.00     0.014 A 
BRANCH  21  24
HETATM   24  O   UNL     1      24.491  48.843  49.679  1.00  0.00    -0.347 OA
BRANCH  24  25
HETATM   25  C   UNL     1      23.862  49.010  48.408  1.00  0.00     0.214 C 
BRANCH  25  26
HETATM   26  C   UNL     1      22.593  49.802  48.603  1.00  0.00    -0.034 A 
HETATM   27  C   UNL     1      21.673  49.940  47.554  1.00  0.00     0.009 A 
HETATM   28  C   UNL     1      20.499  50.674  47.735  1.00  0.00     0.001 A 
HETATM   29  C   UNL     1      20.237  51.281  48.962  1.00  0.00     0.000 A 
HETATM   30  C   UNL     1      21.149  51.159  50.008  1.00  0.00     0.001 A 
HETATM   31  C   UNL     1      22.323  50.426  49.829  1.00  0.00     0.009 A 
ENDBRANCH  25  26
ENDBRANCH  24  25
ENDBRANCH  21  24
ENDBRANCH   9  18
BRANCH   1  32
HETATM   32  C   UNL     1      27.674  38.341  45.283  1.00  0.00     0.273 C 
BRANCH  32  33
HETATM   33  C   UNL     1      28.735  38.806  44.324  1.00  0.00    -0.033 A 
HETATM   34  C   UNL     1      28.785  40.151  43.917  1.00  0.00     0.009 A 
HETATM   35  C   UNL     1      29.746  40.580  43.002  1.00  0.00     0.001 A 
HETATM   36  C   UNL     1      30.670  39.675  42.485  1.00  0.00     0.000 A 
HETATM   37  C   UNL     1      30.641  38.343  42.889  1.00  0.00     0.001 A 
HETATM   38  C   UNL     1      29.682  37.909  43.805  1.00  0.00     0.009 A 
ENDBRANCH  32  33
ENDBRANCH   1  32
TORSDOF 6
ENDMDL
MODEL 7
REMARK VINA RESULT:      -8.9      6.409     11.766
REMARK  6 active torsions:
REMARK  status: ('A' for Active; 'I' for Inactive)
REMARK    1  A    between atoms: C_4  and  C_5 
REMARK    2  A    between atoms: C_5  and  N_6 
REMARK    3  A    between atoms: C_14  and  C_15 
REMARK    4  A    between atoms: C_18  and  O_19 
REMARK    5  A    between atoms: O_19  and  C_20 
REMARK    6  A    between atoms: C_20  and  C_21 
ROOT
HETATM    1  N   UNL     1      27.904  38.702  46.884  1.00  0.00    -0.063 N 
HETATM    2  H   UNL     1      28.341  39.583  46.591  1.00  0.00     0.280 HD
HETATM    3  C   UNL     1      26.439  39.044  47.109  1.00  0.00     0.282 C 
HETATM    4  C   UNL     1      26.306  39.974  48.266  1.00  0.00     0.018 A 
HETATM    5  C   UNL     1      27.277  40.188  49.228  1.00  0.00    -0.023 A 
HETATM    6  C   UNL     1      26.822  41.113  50.223  1.00  0.00     0.073 A 
HETATM    7  C   UNL     1      25.531  41.519  49.988  1.00  0.00     0.088 A 
HETATM    8  N   UNL     1      24.852  42.350  50.803  1.00  0.00    -0.358 N 
HETATM    9  C   UNL     1      25.559  43.107  51.812  1.00  0.00     0.219 C 
HETATM   10  N   UNL     1      26.805  42.479  52.175  1.00  0.00    -0.332 N 
HETATM   11  C   UNL     1      27.516  41.617  51.390  1.00  0.00     0.256 C 
HETATM   12  O   UNL     1      28.666  41.292  51.667  1.00  0.00    -0.267 OA
HETATM   13  S   UNL     1      24.879  40.849  48.567  1.00  0.00    -0.074 SA
HETATM   14  C   UNL     1      28.611  39.506  49.162  1.00  0.00     0.068 C 
HETATM   15  C   UNL     1      28.587  38.309  48.190  1.00  0.00     0.240 C 
HETATM   16  H   UNL     1      23.989  42.773  50.476  1.00  0.00     0.162 HD
HETATM   17  H   UNL     1      27.316  42.869  52.954  1.00  0.00     0.165 HD
ENDROOT
BRANCH   9  18
HETATM   18  C   UNL     1      25.708  44.552  51.375  1.00  0.00    -0.016 A 
HETATM   19  C   UNL     1      25.222  45.575  52.209  1.00  0.00     0.014 A 
HETATM   20  C   UNL     1      25.339  46.922  51.849  1.00  0.00     0.037 A 
HETATM   21  C   UNL     1      25.952  47.274  50.648  1.00  0.00     0.069 A 
HETATM   22  C   UNL     1      26.405  46.265  49.796  1.00  0.00     0.037 A 
HETATM   23  C   UNL     1      26.284  44.919  50.150  1.00  0.00     0.014 A 
BRANCH  21  24
HETATM   24  O   UNL     1      26.158  48.546  50.192  1.00  0.00    -0.347 OA
BRANCH  24  25
HETATM   25  C   UNL     1      25.789  48.816  48.840  1.00  0.00     0.214 C 
BRANCH  25  26
HETATM   26  C   UNL     1      24.347  49.259  48.817  1.00  0.00    -0.034 A 
HETATM   27  C   UNL     1      23.314  48.325  48.982  1.00  0.00     0.009 A 
HETATM   28  C   UNL     1      21.980  48.735  48.959  1.00  0.00     0.001 A 
HETATM   29  C   UNL     1      21.666  50.080  48.766  1.00  0.00     0.000 A 
HETATM   30  C   UNL     1      22.684  51.014  48.591  1.00  0.00     0.001 A 
HETATM   31  C   UNL     1      24.018  50.606  48.613  1.00  0.00     0.009 A 
ENDBRANCH  25  26
ENDBRANCH  24  25
ENDBRANCH  21  24
ENDBRANCH   9  18
BRANCH   1  32
HETATM   32  C   UNL     1      28.132  37.740  45.746  1.00  0.00     0.273 C 
BRANCH  32  33
HETATM   33  C   UNL     1      28.922  38.274  44.582  1.00  0.00    -0.033 A 
HETATM   34  C   UNL     1      29.873  37.465  43.937  1.00  0.00     0.009 A 
HETATM   35  C   UNL     1      30.632  37.967  42.880  1.00  0.00     0.001 A 
HETATM   36  C   UNL     1      30.447  39.279  42.450  1.00  0.00     0.000 A 
HETATM   37  C   UNL     1      29.498  40.088  43.070  1.00  0.00     0.001 A 
HETATM   38  C   UNL     1      28.736  39.589  44.128  1.00  0.00     0.009 A 
ENDBRANCH  32  33
ENDBRANCH   1  32
TORSDOF 6
ENDMDL
MODEL 8
REMARK VINA RESULT:      -8.8     14.087     15.807
REMARK  6 active torsions:
REMARK  status: ('A' for Active; 'I' for Inactive)
REMARK    1  A    between atoms: C_4  and  C_5 
REMARK    2  A    between atoms: C_5  and  N_6 
REMARK    3  A    between atoms: C_14  and  C_15 
REMARK    4  A    between atoms: C_18  and  O_19 
REMARK    5  A    between atoms: O_19  and  C_20 
REMARK    6  A    between atoms: C_20  and  C_21 
ROOT
HETATM    1  N   UNL     1      30.452  52.494  40.269  1.00  0.00    -0.063 N 
HETATM    2  H   UNL     1      30.909  53.413  40.307  1.00  0.00     0.280 HD
HETATM    3  C   UNL     1      30.838  51.807  41.570  1.00  0.00     0.282 C 
HETATM    4  C   UNL     1      32.304  51.538  41.588  1.00  0.00     0.018 A 
HETATM    5  C   UNL     1      33.124  51.538  40.475  1.00  0.00    -0.023 A 
HETATM    6  C   UNL     1      34.472  51.206  40.827  1.00  0.00     0.073 A 
HETATM    7  C   UNL     1      34.597  50.939  42.169  1.00  0.00     0.088 A 
HETATM    8  N   UNL     1      35.750  50.555  42.748  1.00  0.00    -0.358 N 
HETATM    9  C   UNL     1      37.000  50.705  42.035  1.00  0.00     0.219 C 
HETATM   10  N   UNL     1      36.799  50.740  40.608  1.00  0.00    -0.332 N 
HETATM   11  C   UNL     1      35.642  51.102  39.978  1.00  0.00     0.256 C 
HETATM   12  O   UNL     1      35.604  51.319  38.772  1.00  0.00    -0.267 OA
HETATM   13  S   UNL     1      33.134  51.130  43.015  1.00  0.00    -0.074 SA
HETATM   14  C   UNL     1      32.594  51.859  39.108  1.00  0.00     0.068 C 
HETATM   15  C   UNL     1      31.055  51.776  39.066  1.00  0.00     0.240 C 
HETATM   16  H   UNL     1      35.830  50.572  43.760  1.00  0.00     0.162 HD
HETATM   17  H   UNL     1      37.619  50.725  40.019  1.00  0.00     0.165 HD
ENDROOT
BRANCH   9  18
HETATM   18  C   UNL     1      37.770  51.896  42.572  1.00  0.00    -0.016 A 
HETATM   19  C   UNL     1      37.098  53.116  42.766  1.00  0.00     0.014 A 
HETATM   20  C   UNL     1      37.767  54.242  43.261  1.00  0.00     0.037 A 
HETATM   21  C   UNL     1      39.122  54.167  43.578  1.00  0.00     0.069 A 
HETATM   22  C   UNL     1      39.807  52.972  43.354  1.00  0.00     0.037 A 
HETATM   23  C   UNL     1      39.143  51.848  42.854  1.00  0.00     0.014 A 
BRANCH  21  24
HETATM   24  O   UNL     1      39.883  55.177  44.095  1.00  0.00    -0.347 OA
BRANCH  24  25
HETATM   25  C   UNL     1      39.311  55.940  45.156  1.00  0.00     0.214 C 
BRANCH  25  26
HETATM   26  C   UNL     1      39.400  55.133  46.428  1.00  0.00    -0.034 A 
HETATM   27  C   UNL     1      38.241  54.621  47.027  1.00  0.00     0.009 A 
HETATM   28  C   UNL     1      38.324  53.875  48.204  1.00  0.00     0.001 A 
HETATM   29  C   UNL     1      39.565  53.639  48.796  1.00  0.00     0.000 A 
HETATM   30  C   UNL     1      40.722  54.152  48.214  1.00  0.00     0.001 A 
HETATM   31  C   UNL     1      40.640  54.899  47.038  1.00  0.00     0.009 A 
ENDBRANCH  25  26
ENDBRANCH  24  25
ENDBRANCH  21  24
ENDBRANCH   9  18
BRANCH   1  32
HETATM   32  C   UNL     1      28.977  52.780  40.151  1.00  0.00     0.273 C 
BRANCH  32  33
HETATM   33  C   UNL     1      28.111  51.615  39.753  1.00  0.00    -0.033 A 
HETATM   34  C   UNL     1      27.676  51.475  38.425  1.00  0.00     0.009 A 
HETATM   35  C   UNL     1      26.846  50.415  38.058  1.00  0.00     0.001 A 
HETATM   36  C   UNL     1      26.445  49.482  39.011  1.00  0.00     0.000 A 
HETATM   37  C   UNL     1      26.880  49.600  40.328  1.00  0.00     0.001 A 
HETATM   38  C   UNL     1      27.711  50.658  40.699  1.00  0.00     0.009 A 
ENDBRANCH  32  33
ENDBRANCH   1  32
TORSDOF 6
ENDMDL
MODEL 9
REMARK VINA RESULT:      -8.8     20.454     24.472
REMARK  6 active torsions:
REMARK  status: ('A' for Active; 'I' for Inactive)
REMARK    1  A    between atoms: C_4  and  C_5 
REMARK    2  A    between atoms: C_5  and  N_6 
REMARK    3  A    between atoms: C_14  and  C_15 
REMARK    4  A    between atoms: C_18  and  O_19 
REMARK    5  A    between atoms: O_19  and  C_20 
REMARK    6  A    between atoms: C_20  and  C_21 
ROOT
HETATM    1  N   UNL     1      40.010  39.811  64.917  1.00  0.00    -0.063 N 
HETATM    2  H   UNL     1      40.171  40.319  65.794  1.00  0.00     0.280 HD
HETATM    3  C   UNL     1      40.393  40.790  63.817  1.00  0.00     0.282 C 
HETATM    4  C   UNL     1      39.444  41.939  63.806  1.00  0.00     0.018 A 
HETATM    5  C   UNL     1      38.199  41.945  64.409  1.00  0.00    -0.023 A 
HETATM    6  C   UNL     1      37.522  43.187  64.183  1.00  0.00     0.073 A 
HETATM    7  C   UNL     1      38.265  44.036  63.398  1.00  0.00     0.088 A 
HETATM    8  N   UNL     1      37.835  45.248  62.999  1.00  0.00    -0.358 N 
HETATM    9  C   UNL     1      36.684  45.852  63.635  1.00  0.00     0.219 C 
HETATM   10  N   UNL     1      35.826  44.861  64.236  1.00  0.00    -0.332 N 
HETATM   11  C   UNL     1      36.214  43.614  64.637  1.00  0.00     0.256 C 
HETATM   12  O   UNL     1      35.494  42.907  65.333  1.00  0.00    -0.267 OA
HETATM   13  S   UNL     1      39.778  43.385  62.976  1.00  0.00    -0.074 SA
HETATM   14  C   UNL     1      37.696  40.764  65.186  1.00  0.00     0.068 C 
HETATM   15  C   UNL     1      38.519  39.496  64.881  1.00  0.00     0.240 C 
HETATM   16  H   UNL     1      38.498  45.906  62.600  1.00  0.00     0.162 HD
HETATM   17  H   UNL     1      34.939  45.171  64.604  1.00  0.00     0.165 HD
ENDROOT
BRANCH   9  18
HETATM   18  C   UNL     1      37.127  46.938  64.596  1.00  0.00    -0.016 A 
HETATM   19  C   UNL     1      37.628  46.574  65.860  1.00  0.00     0.014 A 
HETATM   20  C   UNL     1      38.050  47.542  66.779  1.00  0.00     0.037 A 
HETATM   21  C   UNL     1      37.986  48.894  66.450  1.00  0.00     0.069 A 
HETATM   22  C   UNL     1      37.457  49.268  65.213  1.00  0.00     0.037 A 
HETATM   23  C   UNL     1      37.029  48.305  64.296  1.00  0.00     0.014 A 
BRANCH  21  24
HETATM   24  O   UNL     1      38.392  49.933  67.238  1.00  0.00    -0.347 OA
BRANCH  24  25
HETATM   25  C   UNL     1      37.394  50.567  68.038  1.00  0.00     0.214 C 
BRANCH  25  26
HETATM   26  C   UNL     1      37.396  52.042  67.726  1.00  0.00    -0.034 A 
HETATM   27  C   UNL     1      37.008  52.975  68.699  1.00  0.00     0.009 A 
HETATM   28  C   UNL     1      37.010  54.341  68.409  1.00  0.00     0.001 A 
HETATM   29  C   UNL     1      37.392  54.786  67.144  1.00  0.00     0.000 A 
HETATM   30  C   UNL     1      37.769  53.867  66.168  1.00  0.00     0.001 A 
HETATM   31  C   UNL     1      37.768  52.502  66.455  1.00  0.00     0.009 A 
ENDBRANCH  25  26
ENDBRANCH  24  25
ENDBRANCH  21  24
ENDBRANCH   9  18
BRANCH   1  32
HETATM   32  C   UNL     1      40.904  38.598  64.983  1.00  0.00     0.273 C 
BRANCH  32  33
HETATM   33  C   UNL     1      40.712  37.705  66.179  1.00  0.00    -0.033 A 
HETATM   34  C   UNL     1      40.912  38.204  67.477  1.00  0.00     0.009 A 
HETATM   35  C   UNL     1      40.768  37.372  68.587  1.00  0.00     0.001 A 
HETATM   36  C   UNL     1      40.419  36.035  68.416  1.00  0.00     0.000 A 
HETATM   37  C   UNL     1      40.203  35.530  67.136  1.00  0.00     0.001 A 
HETATM   38  C   UNL     1      40.345  36.359  66.023  1.00  0.00     0.009 A 
ENDBRANCH  32  33
ENDBRANCH   1  32
TORSDOF 6
ENDMDL
MODEL 10
REMARK VINA RESULT:      -8.8     14.218     18.412
REMARK  6 active torsions:
REMARK  status: ('A' for Active; 'I' for Inactive)
REMARK    1  A    between atoms: C_4  and  C_5 
REMARK    2  A    between atoms: C_5  and  N_6 
REMARK    3  A    between atoms: C_14  and  C_15 
REMARK    4  A    between atoms: C_18  and  O_19 
REMARK    5  A    between atoms: O_19  and  C_20 
REMARK    6  A    between atoms: C_20  and  C_21 
ROOT
HETATM    1  N   UNL     1      38.447  54.134  43.393  1.00  0.00    -0.063 N 
HETATM    2  H   UNL     1      37.813  54.745  42.865  1.00  0.00     0.280 HD
HETATM    3  C   UNL     1      38.668  52.925  42.495  1.00  0.00     0.282 C 
HETATM    4  C   UNL     1      37.395  52.165  42.344  1.00  0.00     0.018 A 
HETATM    5  C   UNL     1      36.296  52.285  43.175  1.00  0.00    -0.023 A 
HETATM    6  C   UNL     1      35.250  51.389  42.779  1.00  0.00     0.073 A 
HETATM    7  C   UNL     1      35.620  50.619  41.703  1.00  0.00     0.088 A 
HETATM    8  N   UNL     1      34.836  49.664  41.167  1.00  0.00    -0.358 N 
HETATM    9  C   UNL     1      33.430  49.611  41.504  1.00  0.00     0.219 C 
HETATM   10  N   UNL     1      33.162  50.241  42.773  1.00  0.00    -0.332 N 
HETATM   11  C   UNL     1      33.938  51.197  43.364  1.00  0.00     0.256 C 
HETATM   12  O   UNL     1      33.544  51.843  44.328  1.00  0.00    -0.267 OA
HETATM   13  S   UNL     1      37.177  50.991  41.133  1.00  0.00    -0.074 SA
HETATM   14  C   UNL     1      36.277  53.255  44.319  1.00  0.00     0.068 C 
HETATM   15  C   UNL     1      37.697  53.748  44.663  1.00  0.00     0.240 C 
HETATM   16  H   UNL     1      35.073  49.276  40.259  1.00  0.00     0.162 HD
HETATM   17  H   UNL     1      32.230  50.154  43.151  1.00  0.00     0.165 HD
ENDROOT
BRANCH   9  18
HETATM   18  C   UNL     1      32.596  50.160  40.363  1.00  0.00    -0.016 A 
HETATM   19  C   UNL     1      31.612  49.342  39.777  1.00  0.00     0.014 A 
HETATM   20  C   UNL     1      30.816  49.806  38.723  1.00  0.00     0.037 A 
HETATM   21  C   UNL     1      30.985  51.101  38.237  1.00  0.00     0.069 A 
HETATM   22  C   UNL     1      31.983  51.908  38.787  1.00  0.00     0.037 A 
HETATM   23  C   UNL     1      32.783  51.446  39.835  1.00  0.00     0.014 A 
BRANCH  21  24
HETATM   24  O   UNL     1      30.259  51.686  37.238  1.00  0.00    -0.347 OA
BRANCH  24  25
HETATM   25  C   UNL     1      29.336  52.705  37.622  1.00  0.00     0.214 C 
BRANCH  25  26
HETATM   26  C   UNL     1      28.643  52.270  38.890  1.00  0.00    -0.034 A 
HETATM   27  C   UNL     1      27.748  51.191  38.877  1.00  0.00     0.009 A 
HETATM   28  C   UNL     1      27.107  50.789  40.050  1.00  0.00     0.001 A 
HETATM   29  C   UNL     1      27.350  51.466  41.245  1.00  0.00     0.000 A 
HETATM   30  C   UNL     1      28.230  52.546  41.267  1.00  0.00     0.001 A 
HETATM   31  C   UNL     1      28.871  52.949  40.095  1.00  0.00     0.009 A 
ENDBRANCH  25  26
ENDBRANCH  24  25
ENDBRANCH  21  24
ENDBRANCH   9  18
BRANCH   1  32
HETATM   32  C   UNL     1      39.694  54.949  43.626  1.00  0.00     0.273 C 
BRANCH  32  33
HETATM   33  C   UNL     1      39.476  56.372  44.065  1.00  0.00    -0.033 A 
HETATM   34  C   UNL     1      38.174  56.863  44.263  1.00  0.00     0.009 A 
HETATM   35  C   UNL     1      37.965  58.190  44.636  1.00  0.00     0.001 A 
HETATM   36  C   UNL     1      39.052  59.042  44.822  1.00  0.00     0.000 A 
HETATM   37  C   UNL     1      40.348  58.566  44.643  1.00  0.00     0.001 A 
HETATM   38  C   UNL     1      40.561  57.238  44.270  1.00  0.00     0.009 A 
ENDBRANCH  32  33
ENDBRANCH   1  32
TORSDOF 6
ENDMDL
