MODEL 1
REMARK VINA RESULT:     -10.2      0.000      0.000
REMARK  7 active torsions:
REMARK  status: ('A' for Active; 'I' for Inactive)
REMARK    1  A    between atoms: C_2  and  C_3 
REMARK    2  A    between atoms: C_3  and  N_4 
REMARK    3  A    between atoms: N_4  and  C_7 
REMARK    4  A    between atoms: C_12  and  N_13 
REMARK       I    between atoms: N_13  and  C_14 
REMARK    5  A    between atoms: C_14  and  C_16 
REMARK    6  A    between atoms: C_20  and  C_22 
REMARK       I    between atoms: N_26  and  C_27 
REMARK       I    between atoms: C_27  and  N_29 
REMARK    7  A    between atoms: N_29  and  C_30 
ROOT
HETATM    1  C   UNL     1      21.248  46.070  47.737  1.00  0.00     0.037 A 
HETATM    2  C   UNL     1      21.152  45.456  46.489  1.00  0.00     0.029 A 
HETATM    3  C   UNL     1      21.639  44.157  46.304  1.00  0.00     0.004 A 
HETATM    4  C   UNL     1      22.215  43.463  47.369  1.00  0.00     0.023 A 
HETATM    5  C   UNL     1      22.303  44.067  48.624  1.00  0.00     0.046 A 
HETATM    6  C   UNL     1      21.823  45.369  48.803  1.00  0.00     0.052 A 
HETATM    7  C   UNL     1      22.845  43.355  49.743  1.00  0.00     0.099 C 
HETATM    8  N   UNL     1      23.235  42.792  50.680  1.00  0.00    -0.191 NA
ENDROOT
BRANCH   1   9
HETATM    9  N   UNL     1      20.753  47.352  48.018  1.00  0.00    -0.309 N 
HETATM   10  C   UNL     1      19.471  47.728  48.338  1.00  0.00     0.323 C 
HETATM   11  N   UNL     1      19.373  49.064  48.729  1.00  0.00    -0.325 N 
HETATM   12  O   UNL     1      18.490  47.001  48.232  1.00  0.00    -0.247 OA
HETATM   13  C   UNL     1      20.322  49.752  49.620  1.00  0.00     0.122 C 
HETATM   14  C   UNL     1      18.042  49.643  48.887  1.00  0.00     0.128 C 
HETATM   15  C   UNL     1      19.634  51.088  49.924  1.00  0.00     0.032 C 
HETATM   16  C   UNL     1      18.169  50.684  49.992  1.00  0.00     0.022 C 
HETATM   17  H   UNL     1      21.327  48.122  47.716  1.00  0.00     0.170 HD
BRANCH  13  18
HETATM   18  C   UNL     1      21.734  49.921  49.105  1.00  0.00    -0.034 A 
HETATM   19  C   UNL     1      22.077  50.861  48.122  1.00  0.00     0.009 A 
HETATM   20  C   UNL     1      23.381  50.917  47.614  1.00  0.00     0.002 A 
HETATM   21  C   UNL     1      24.361  50.036  48.077  1.00  0.00     0.017 A 
HETATM   22  C   UNL     1      24.036  49.102  49.062  1.00  0.00     0.033 A 
HETATM   23  C   UNL     1      22.735  49.058  49.580  1.00  0.00     0.026 A 
BRANCH  22  24
HETATM   24  C   UNL     1      25.023  48.134  49.606  1.00  0.00     0.257 C 
HETATM   25  N   UNL     1      24.507  47.193  50.471  1.00  0.00    -0.301 N 
HETATM   26  H   UNL     1      23.533  47.193  50.734  1.00  0.00     0.171 HD
HETATM   27  O   UNL     1      26.197  48.293  49.299  1.00  0.00    -0.267 OA
BRANCH  25  28
HETATM   28  C   UNL     1      25.331  46.327  51.135  1.00  0.00     0.174 A 
HETATM   29  N   UNL     1      25.866  45.209  50.711  1.00  0.00    -0.228 NA
HETATM   30  C   UNL     1      26.663  44.676  51.686  1.00  0.00     0.050 A 
HETATM   31  C   UNL     1      27.421  43.420  51.445  1.00  0.00     0.062 C 
HETATM   32  C   UNL     1      26.738  45.410  52.850  1.00  0.00     0.013 A 
HETATM   33  C   UNL     1      27.978  42.852  52.762  1.00  0.00     0.039 C 
HETATM   34  C   UNL     1      28.599  43.962  53.636  1.00  0.00     0.191 C 
HETATM   35  C   UNL     1      27.547  45.036  54.041  1.00  0.00     0.081 C 
HETATM   36  S   UNL     1      25.743  46.791  52.734  1.00  0.00    -0.055 SA
BRANCH  34  37
HETATM   37  N   UNL     1      29.190  43.355  54.892  1.00  0.00    -0.071 N 
HETATM   38  H   UNL     1      28.854  42.387  54.999  1.00  0.00     0.277 HD
HETATM   39  H   UNL     1      28.829  43.866  55.709  1.00  0.00     0.277 HD
BRANCH  37  40
HETATM   40  C   UNL     1      30.689  43.371  54.973  1.00  0.00     0.232 C 
BRANCH  40  41
HETATM   41  C   UNL     1      31.109  44.078  56.254  1.00  0.00     0.023 C 
HETATM   42  C   UNL     1      31.830  43.123  57.194  1.00  0.00     0.007 C 
ENDBRANCH  40  41
ENDBRANCH  37  40
ENDBRANCH  34  37
ENDBRANCH  25  28
ENDBRANCH  22  24
ENDBRANCH  13  18
ENDBRANCH   1   9
TORSDOF 7
ENDMDL
MODEL 2
REMARK VINA RESULT:     -10.0      1.889      4.214
REMARK  7 active torsions:
REMARK  status: ('A' for Active; 'I' for Inactive)
REMARK    1  A    between atoms: C_2  and  C_3 
REMARK    2  A    between atoms: C_3  and  N_4 
REMARK    3  A    between atoms: N_4  and  C_7 
REMARK    4  A    between atoms: C_12  and  N_13 
REMARK       I    between atoms: N_13  and  C_14 
REMARK    5  A    between atoms: C_14  and  C_16 
REMARK    6  A    between atoms: C_20  and  C_22 
REMARK       I    between atoms: N_26  and  C_27 
REMARK       I    between atoms: C_27  and  N_29 
REMARK    7  A    between atoms: N_29  and  C_30 
ROOT
HETATM    1  C   UNL     1      22.487  48.792  48.600  1.00  0.00     0.037 A 
HETATM    2  C   UNL     1      22.585  49.967  47.855  1.00  0.00     0.029 A 
HETATM    3  C   UNL     1      23.824  50.593  47.687  1.00  0.00     0.004 A 
HETATM    4  C   UNL     1      24.975  50.043  48.256  1.00  0.00     0.023 A 
HETATM    5  C   UNL     1      24.886  48.862  48.993  1.00  0.00     0.046 A 
HETATM    6  C   UNL     1      23.643  48.242  49.166  1.00  0.00     0.052 A 
HETATM    7  C   UNL     1      26.060  48.252  49.544  1.00  0.00     0.099 C 
HETATM    8  N   UNL     1      26.995  47.708  49.965  1.00  0.00    -0.191 NA
ENDROOT
BRANCH   1   9
HETATM    9  N   UNL     1      21.292  48.081  48.787  1.00  0.00    -0.309 N 
HETATM   10  C   UNL     1      20.080  48.541  49.240  1.00  0.00     0.323 C 
HETATM   11  N   UNL     1      19.059  47.596  49.132  1.00  0.00    -0.325 N 
HETATM   12  O   UNL     1      19.904  49.642  49.752  1.00  0.00    -0.247 OA
HETATM   13  C   UNL     1      18.847  46.715  47.971  1.00  0.00     0.122 C 
HETATM   14  C   UNL     1      17.779  47.883  49.773  1.00  0.00     0.128 C 
HETATM   15  C   UNL     1      17.484  46.071  48.247  1.00  0.00     0.032 C 
HETATM   16  C   UNL     1      16.721  47.208  48.908  1.00  0.00     0.022 C 
HETATM   17  H   UNL     1      21.379  47.080  48.837  1.00  0.00     0.170 HD
BRANCH  13  18
HETATM   18  C   UNL     1      19.930  45.700  47.683  1.00  0.00    -0.034 A 
HETATM   19  C   UNL     1      20.070  45.069  46.439  1.00  0.00     0.009 A 
HETATM   20  C   UNL     1      21.033  44.070  46.250  1.00  0.00     0.002 A 
HETATM   21  C   UNL     1      21.870  43.684  47.301  1.00  0.00     0.017 A 
HETATM   22  C   UNL     1      21.748  44.310  48.542  1.00  0.00     0.033 A 
HETATM   23  C   UNL     1      20.794  45.320  48.723  1.00  0.00     0.026 A 
BRANCH  22  24
HETATM   24  C   UNL     1      22.602  43.957  49.705  1.00  0.00     0.257 C 
HETATM   25  N   UNL     1      23.571  44.883  50.024  1.00  0.00    -0.301 N 
HETATM   26  H   UNL     1      23.704  45.720  49.478  1.00  0.00     0.171 HD
HETATM   27  O   UNL     1      22.418  42.866  50.229  1.00  0.00    -0.267 OA
BRANCH  25  28
HETATM   28  C   UNL     1      24.500  44.618  50.992  1.00  0.00     0.174 A 
HETATM   29  N   UNL     1      24.412  44.791  52.288  1.00  0.00    -0.228 NA
HETATM   30  C   UNL     1      25.557  44.353  52.894  1.00  0.00     0.050 A 
HETATM   31  C   UNL     1      25.701  44.402  54.373  1.00  0.00     0.062 C 
HETATM   32  C   UNL     1      26.510  43.833  52.045  1.00  0.00     0.013 A 
HETATM   33  C   UNL     1      27.162  44.166  54.793  1.00  0.00     0.039 C 
HETATM   34  C   UNL     1      27.794  43.000  54.003  1.00  0.00     0.191 C 
HETATM   35  C   UNL     1      27.826  43.287  52.473  1.00  0.00     0.081 C 
HETATM   36  S   UNL     1      25.969  43.935  50.429  1.00  0.00    -0.055 SA
BRANCH  34  37
HETATM   37  N   UNL     1      29.208  42.760  54.488  1.00  0.00    -0.071 N 
HETATM   38  H   UNL     1      29.816  42.538  53.686  1.00  0.00     0.277 HD
HETATM   39  H   UNL     1      29.217  41.921  55.084  1.00  0.00     0.277 HD
BRANCH  37  40
HETATM   40  C   UNL     1      29.820  43.883  55.276  1.00  0.00     0.232 C 
BRANCH  40  41
HETATM   41  C   UNL     1      31.142  43.410  55.866  1.00  0.00     0.023 C 
HETATM   42  C   UNL     1      31.213  43.712  57.356  1.00  0.00     0.007 C 
ENDBRANCH  40  41
ENDBRANCH  37  40
ENDBRANCH  34  37
ENDBRANCH  25  28
ENDBRANCH  22  24
ENDBRANCH  13  18
ENDBRANCH   1   9
TORSDOF 7
ENDMDL
MODEL 3
REMARK VINA RESULT:      -8.8      1.611      2.614
REMARK  7 active torsions:
REMARK  status: ('A' for Active; 'I' for Inactive)
REMARK    1  A    between atoms: C_2  and  C_3 
REMARK    2  A    between atoms: C_3  and  N_4 
REMARK    3  A    between atoms: N_4  and  C_7 
REMARK    4  A    between atoms: C_12  and  N_13 
REMARK       I    between atoms: N_13  and  C_14 
REMARK    5  A    between atoms: C_14  and  C_16 
REMARK    6  A    between atoms: C_20  and  C_22 
REMARK       I    between atoms: N_26  and  C_27 
REMARK       I    between atoms: C_27  and  N_29 
REMARK    7  A    between atoms: N_29  and  C_30 
ROOT
HETATM    1  C   UNL     1      21.062  46.225  47.550  1.00  0.00     0.037 A 
HETATM    2  C   UNL     1      21.129  45.160  48.447  1.00  0.00     0.029 A 
HETATM    3  C   UNL     1      21.697  43.944  48.054  1.00  0.00     0.004 A 
HETATM    4  C   UNL     1      22.210  43.789  46.765  1.00  0.00     0.023 A 
HETATM    5  C   UNL     1      22.157  44.855  45.866  1.00  0.00     0.046 A 
HETATM    6  C   UNL     1      21.581  46.068  46.260  1.00  0.00     0.052 A 
HETATM    7  C   UNL     1      22.722  44.737  44.555  1.00  0.00     0.099 C 
HETATM    8  N   UNL     1      23.211  44.690  43.503  1.00  0.00    -0.191 NA
ENDROOT
BRANCH   1   9
HETATM    9  N   UNL     1      20.542  47.488  47.873  1.00  0.00    -0.309 N 
HETATM   10  C   UNL     1      19.249  47.833  48.181  1.00  0.00     0.323 C 
HETATM   11  N   UNL     1      19.122  49.150  48.624  1.00  0.00    -0.325 N 
HETATM   12  O   UNL     1      18.280  47.096  48.025  1.00  0.00    -0.247 OA
HETATM   13  C   UNL     1      20.044  49.814  49.562  1.00  0.00     0.122 C 
HETATM   14  C   UNL     1      17.780  49.703  48.778  1.00  0.00     0.128 C 
HETATM   15  C   UNL     1      19.330  51.126  49.906  1.00  0.00     0.032 C 
HETATM   16  C   UNL     1      17.870  50.700  49.927  1.00  0.00     0.022 C 
HETATM   17  H   UNL     1      21.111  48.277  47.614  1.00  0.00     0.170 HD
BRANCH  13  18
HETATM   18  C   UNL     1      21.463  50.024  49.084  1.00  0.00    -0.034 A 
HETATM   19  C   UNL     1      21.799  50.947  48.083  1.00  0.00     0.009 A 
HETATM   20  C   UNL     1      23.114  51.040  47.613  1.00  0.00     0.002 A 
HETATM   21  C   UNL     1      24.114  50.212  48.131  1.00  0.00     0.017 A 
HETATM   22  C   UNL     1      23.795  49.295  49.133  1.00  0.00     0.033 A 
HETATM   23  C   UNL     1      22.481  49.215  49.613  1.00  0.00     0.026 A 
BRANCH  22  24
HETATM   24  C   UNL     1      24.801  48.383  49.735  1.00  0.00     0.257 C 
HETATM   25  N   UNL     1      24.325  47.560  50.732  1.00  0.00    -0.301 N 
HETATM   26  H   UNL     1      23.368  47.606  51.045  1.00  0.00     0.171 HD
HETATM   27  O   UNL     1      25.958  48.485  49.348  1.00  0.00    -0.267 OA
BRANCH  25  28
HETATM   28  C   UNL     1      25.177  46.766  51.450  1.00  0.00     0.174 A 
HETATM   29  N   UNL     1      25.678  46.963  52.644  1.00  0.00    -0.228 NA
HETATM   30  C   UNL     1      26.451  45.895  53.005  1.00  0.00     0.050 A 
HETATM   31  C   UNL     1      27.111  45.850  54.337  1.00  0.00     0.062 C 
HETATM   32  C   UNL     1      26.520  44.878  52.077  1.00  0.00     0.013 A 
HETATM   33  C   UNL     1      28.166  44.732  54.392  1.00  0.00     0.039 C 
HETATM   34  C   UNL     1      27.638  43.427  53.758  1.00  0.00     0.191 C 
HETATM   35  C   UNL     1      27.289  43.616  52.253  1.00  0.00     0.081 C 
HETATM   36  S   UNL     1      25.619  45.293  50.689  1.00  0.00    -0.055 SA
BRANCH  34  37
HETATM   37  N   UNL     1      28.680  42.336  53.887  1.00  0.00    -0.071 N 
HETATM   38  H   UNL     1      29.047  42.321  54.850  1.00  0.00     0.277 HD
HETATM   39  H   UNL     1      29.484  42.572  53.289  1.00  0.00     0.277 HD
BRANCH  37  40
HETATM   40  C   UNL     1      28.222  40.957  53.510  1.00  0.00     0.232 C 
BRANCH  40  41
HETATM   41  C   UNL     1      29.057  40.462  52.337  1.00  0.00     0.023 C 
HETATM   42  C   UNL     1      28.268  40.529  51.037  1.00  0.00     0.007 C 
ENDBRANCH  40  41
ENDBRANCH  37  40
ENDBRANCH  34  37
ENDBRANCH  25  28
ENDBRANCH  22  24
ENDBRANCH  13  18
ENDBRANCH   1   9
TORSDOF 7
ENDMDL
MODEL 4
REMARK VINA RESULT:      -8.6      2.166      2.860
REMARK  7 active torsions:
REMARK  status: ('A' for Active; 'I' for Inactive)
REMARK    1  A    between atoms: C_2  and  C_3 
REMARK    2  A    between atoms: C_3  and  N_4 
REMARK    3  A    between atoms: N_4  and  C_7 
REMARK    4  A    between atoms: C_12  and  N_13 
REMARK       I    between atoms: N_13  and  C_14 
REMARK    5  A    between atoms: C_14  and  C_16 
REMARK    6  A    between atoms: C_20  and  C_22 
REMARK       I    between atoms: N_26  and  C_27 
REMARK       I    between atoms: C_27  and  N_29 
REMARK    7  A    between atoms: N_29  and  C_30 
ROOT
HETATM    1  C   UNL     1      19.176  47.701  45.944  1.00  0.00     0.037 A 
HETATM    2  C   UNL     1      18.774  47.586  44.614  1.00  0.00     0.029 A 
HETATM    3  C   UNL     1      18.983  46.392  43.916  1.00  0.00     0.004 A 
HETATM    4  C   UNL     1      19.587  45.303  44.548  1.00  0.00     0.023 A 
HETATM    5  C   UNL     1      19.981  45.407  45.882  1.00  0.00     0.046 A 
HETATM    6  C   UNL     1      19.777  46.606  46.575  1.00  0.00     0.052 A 
HETATM    7  C   UNL     1      20.557  44.288  46.566  1.00  0.00     0.099 C 
HETATM    8  N   UNL     1      20.984  43.388  47.162  1.00  0.00    -0.191 NA
ENDROOT
BRANCH   1   9
HETATM    9  N   UNL     1      18.971  48.847  46.727  1.00  0.00    -0.309 N 
HETATM   10  C   UNL     1      17.787  49.442  47.087  1.00  0.00     0.323 C 
HETATM   11  N   UNL     1      17.949  50.467  48.021  1.00  0.00    -0.325 N 
HETATM   12  O   UNL     1      16.696  49.164  46.600  1.00  0.00    -0.247 OA
HETATM   13  C   UNL     1      18.842  50.405  49.190  1.00  0.00     0.122 C 
HETATM   14  C   UNL     1      16.800  51.317  48.322  1.00  0.00     0.128 C 
HETATM   15  C   UNL     1      18.463  51.648  50.003  1.00  0.00     0.032 C 
HETATM   16  C   UNL     1      16.960  51.730  49.780  1.00  0.00     0.022 C 
HETATM   17  H   UNL     1      19.767  49.452  46.839  1.00  0.00     0.170 HD
BRANCH  13  18
HETATM   18  C   UNL     1      20.324  50.318  48.907  1.00  0.00    -0.034 A 
HETATM   19  C   UNL     1      21.062  51.388  48.380  1.00  0.00     0.009 A 
HETATM   20  C   UNL     1      22.414  51.229  48.052  1.00  0.00     0.002 A 
HETATM   21  C   UNL     1      23.049  49.998  48.239  1.00  0.00     0.017 A 
HETATM   22  C   UNL     1      22.329  48.927  48.770  1.00  0.00     0.033 A 
HETATM   23  C   UNL     1      20.981  49.094  49.113  1.00  0.00     0.026 A 
BRANCH  22  24
HETATM   24  C   UNL     1      22.935  47.591  49.002  1.00  0.00     0.257 C 
HETATM   25  N   UNL     1      23.725  47.491  50.126  1.00  0.00    -0.301 N 
HETATM   26  H   UNL     1      23.900  48.285  50.723  1.00  0.00     0.171 HD
HETATM   27  O   UNL     1      22.738  46.728  48.156  1.00  0.00    -0.267 OA
BRANCH  25  28
HETATM   28  C   UNL     1      24.439  46.352  50.382  1.00  0.00     0.174 A 
HETATM   29  N   UNL     1      24.043  45.105  50.336  1.00  0.00    -0.228 NA
HETATM   30  C   UNL     1      25.091  44.274  50.621  1.00  0.00     0.050 A 
HETATM   31  C   UNL     1      24.919  42.798  50.600  1.00  0.00     0.062 C 
HETATM   32  C   UNL     1      26.291  44.906  50.872  1.00  0.00     0.013 A 
HETATM   33  C   UNL     1      26.119  42.093  51.255  1.00  0.00     0.039 C 
HETATM   34  C   UNL     1      27.456  42.712  50.794  1.00  0.00     0.191 C 
HETATM   35  C   UNL     1      27.567  44.213  51.193  1.00  0.00     0.081 C 
HETATM   36  S   UNL     1      26.087  46.598  50.787  1.00  0.00    -0.055 SA
BRANCH  34  37
HETATM   37  N   UNL     1      28.612  41.953  51.412  1.00  0.00    -0.071 N 
HETATM   38  H   UNL     1      29.248  41.628  50.669  1.00  0.00     0.277 HD
HETATM   39  H   UNL     1      28.248  41.099  51.858  1.00  0.00     0.277 HD
BRANCH  37  40
HETATM   40  C   UNL     1      29.401  42.704  52.445  1.00  0.00     0.232 C 
BRANCH  40  41
HETATM   41  C   UNL     1      28.987  42.224  53.829  1.00  0.00     0.023 C 
HETATM   42  C   UNL     1      28.382  40.830  53.766  1.00  0.00     0.007 C 
ENDBRANCH  40  41
ENDBRANCH  37  40
ENDBRANCH  34  37
ENDBRANCH  25  28
ENDBRANCH  22  24
ENDBRANCH  13  18
ENDBRANCH   1   9
TORSDOF 7
ENDMDL
MODEL 5
REMARK VINA RESULT:      -8.2      3.019     10.676
REMARK  7 active torsions:
REMARK  status: ('A' for Active; 'I' for Inactive)
REMARK    1  A    between atoms: C_2  and  C_3 
REMARK    2  A    between atoms: C_3  and  N_4 
REMARK    3  A    between atoms: N_4  and  C_7 
REMARK    4  A    between atoms: C_12  and  N_13 
REMARK       I    between atoms: N_13  and  C_14 
REMARK    5  A    between atoms: C_14  and  C_16 
REMARK    6  A    between atoms: C_20  and  C_22 
REMARK       I    between atoms: N_26  and  C_27 
REMARK       I    between atoms: C_27  and  N_29 
REMARK    7  A    between atoms: N_29  and  C_30 
ROOT
HETATM    1  C   UNL     1      24.023  48.585  49.112  1.00  0.00     0.037 A 
HETATM    2  C   UNL     1      24.773  49.424  48.290  1.00  0.00     0.029 A 
HETATM    3  C   UNL     1      24.285  50.687  47.939  1.00  0.00     0.004 A 
HETATM    4  C   UNL     1      23.048  51.122  48.416  1.00  0.00     0.023 A 
HETATM    5  C   UNL     1      22.296  50.292  49.250  1.00  0.00     0.046 A 
HETATM    6  C   UNL     1      22.784  49.026  49.592  1.00  0.00     0.052 A 
HETATM    7  C   UNL     1      21.047  50.736  49.793  1.00  0.00     0.099 C 
HETATM    8  N   UNL     1      20.055  51.082  50.286  1.00  0.00    -0.191 NA
ENDROOT
BRANCH   1   9
HETATM    9  N   UNL     1      24.453  47.320  49.541  1.00  0.00    -0.309 N 
HETATM   10  C   UNL     1      25.263  47.003  50.604  1.00  0.00     0.323 C 
HETATM   11  N   UNL     1      25.340  45.630  50.844  1.00  0.00    -0.325 N 
HETATM   12  O   UNL     1      25.915  47.820  51.246  1.00  0.00    -0.247 OA
HETATM   13  C   UNL     1      24.195  44.704  50.807  1.00  0.00     0.122 C 
HETATM   14  C   UNL     1      26.331  45.150  51.803  1.00  0.00     0.128 C 
HETATM   15  C   UNL     1      24.763  43.401  51.378  1.00  0.00     0.032 C 
HETATM   16  C   UNL     1      25.722  43.909  52.444  1.00  0.00     0.022 C 
HETATM   17  H   UNL     1      24.373  46.576  48.868  1.00  0.00     0.170 HD
BRANCH  13  18
HETATM   18  C   UNL     1      23.521  44.515  49.467  1.00  0.00    -0.034 A 
HETATM   19  C   UNL     1      24.098  43.778  48.423  1.00  0.00     0.009 A 
HETATM   20  C   UNL     1      23.474  43.707  47.171  1.00  0.00     0.002 A 
HETATM   21  C   UNL     1      22.267  44.373  46.941  1.00  0.00     0.017 A 
HETATM   22  C   UNL     1      21.677  45.103  47.974  1.00  0.00     0.033 A 
HETATM   23  C   UNL     1      22.296  45.159  49.230  1.00  0.00     0.026 A 
BRANCH  22  24
HETATM   24  C   UNL     1      20.396  45.835  47.807  1.00  0.00     0.257 C 
HETATM   25  N   UNL     1      20.516  47.140  47.380  1.00  0.00    -0.301 N 
HETATM   26  H   UNL     1      21.417  47.566  47.227  1.00  0.00     0.171 HD
HETATM   27  O   UNL     1      19.367  45.250  48.120  1.00  0.00    -0.267 OA
BRANCH  25  28
HETATM   28  C   UNL     1      19.421  47.957  47.308  1.00  0.00     0.174 A 
HETATM   29  N   UNL     1      18.772  48.550  48.279  1.00  0.00    -0.228 NA
HETATM   30  C   UNL     1      17.761  49.313  47.762  1.00  0.00     0.050 A 
HETATM   31  C   UNL     1      16.889  50.124  48.653  1.00  0.00     0.062 C 
HETATM   32  C   UNL     1      17.660  49.303  46.388  1.00  0.00     0.013 A 
HETATM   33  C   UNL     1      15.649  50.631  47.898  1.00  0.00     0.039 C 
HETATM   34  C   UNL     1      16.021  51.168  46.499  1.00  0.00     0.191 C 
HETATM   35  C   UNL     1      16.650  50.061  45.603  1.00  0.00     0.081 C 
HETATM   36  S   UNL     1      18.845  48.270  45.724  1.00  0.00    -0.055 SA
BRANCH  34  37
HETATM   37  N   UNL     1      14.786  51.713  45.814  1.00  0.00    -0.071 N 
HETATM   38  H   UNL     1      13.958  51.536  46.401  1.00  0.00     0.277 HD
HETATM   39  H   UNL     1      14.627  51.184  44.945  1.00  0.00     0.277 HD
BRANCH  37  40
HETATM   40  C   UNL     1      14.835  53.171  45.456  1.00  0.00     0.232 C 
BRANCH  40  41
HETATM   41  C   UNL     1      15.304  53.311  44.014  1.00  0.00     0.023 C 
HETATM   42  C   UNL     1      16.798  53.594  43.951  1.00  0.00     0.007 C 
ENDBRANCH  40  41
ENDBRANCH  37  40
ENDBRANCH  34  37
ENDBRANCH  25  28
ENDBRANCH  22  24
ENDBRANCH  13  18
ENDBRANCH   1   9
TORSDOF 7
ENDMDL
MODEL 6
REMARK VINA RESULT:      -8.2      2.995      5.601
REMARK  7 active torsions:
REMARK  status: ('A' for Active; 'I' for Inactive)
REMARK    1  A    between atoms: C_2  and  C_3 
REMARK    2  A    between atoms: C_3  and  N_4 
REMARK    3  A    between atoms: N_4  and  C_7 
REMARK    4  A    between atoms: C_12  and  N_13 
REMARK       I    between atoms: N_13  and  C_14 
REMARK    5  A    between atoms: C_14  and  C_16 
REMARK    6  A    between atoms: C_20  and  C_22 
REMARK       I    between atoms: N_26  and  C_27 
REMARK       I    between atoms: C_27  and  N_29 
REMARK    7  A    between atoms: N_29  and  C_30 
ROOT
HETATM    1  C   UNL     1      18.751  50.258  47.728  1.00  0.00     0.037 A 
HETATM    2  C   UNL     1      17.915  51.024  48.539  1.00  0.00     0.029 A 
HETATM    3  C   UNL     1      18.439  51.713  49.638  1.00  0.00     0.004 A 
HETATM    4  C   UNL     1      19.803  51.645  49.928  1.00  0.00     0.023 A 
HETATM    5  C   UNL     1      20.647  50.889  49.113  1.00  0.00     0.046 A 
HETATM    6  C   UNL     1      20.118  50.196  48.019  1.00  0.00     0.052 A 
HETATM    7  C   UNL     1      22.057  50.846  49.360  1.00  0.00     0.099 C 
HETATM    8  N   UNL     1      23.209  50.825  49.505  1.00  0.00    -0.191 NA
ENDROOT
BRANCH   1   9
HETATM    9  N   UNL     1      18.315  49.567  46.587  1.00  0.00    -0.309 N 
HETATM   10  C   UNL     1      17.980  50.071  45.354  1.00  0.00     0.323 C 
HETATM   11  N   UNL     1      17.760  49.078  44.397  1.00  0.00    -0.325 N 
HETATM   12  O   UNL     1      17.818  51.262  45.112  1.00  0.00    -0.247 OA
HETATM   13  C   UNL     1      18.593  47.876  44.226  1.00  0.00     0.122 C 
HETATM   14  C   UNL     1      17.191  49.470  43.111  1.00  0.00     0.128 C 
HETATM   15  C   UNL     1      18.087  47.266  42.914  1.00  0.00     0.032 C 
HETATM   16  C   UNL     1      17.773  48.504  42.087  1.00  0.00     0.022 C 
HETATM   17  H   UNL     1      17.968  48.636  46.741  1.00  0.00     0.170 HD
BRANCH  13  18
HETATM   18  C   UNL     1      18.599  46.887  45.370  1.00  0.00    -0.034 A 
HETATM   19  C   UNL     1      17.431  46.489  46.037  1.00  0.00     0.009 A 
HETATM   20  C   UNL     1      17.499  45.640  47.148  1.00  0.00     0.002 A 
HETATM   21  C   UNL     1      18.733  45.178  47.614  1.00  0.00     0.017 A 
HETATM   22  C   UNL     1      19.903  45.559  46.955  1.00  0.00     0.033 A 
HETATM   23  C   UNL     1      19.830  46.396  45.833  1.00  0.00     0.026 A 
BRANCH  22  24
HETATM   24  C   UNL     1      21.250  45.108  47.387  1.00  0.00     0.257 C 
HETATM   25  N   UNL     1      21.579  45.409  48.691  1.00  0.00    -0.301 N 
HETATM   26  H   UNL     1      20.955  45.929  49.289  1.00  0.00     0.171 HD
HETATM   27  O   UNL     1      21.964  44.576  46.547  1.00  0.00    -0.267 OA
BRANCH  25  28
HETATM   28  C   UNL     1      22.835  45.159  49.172  1.00  0.00     0.174 A 
HETATM   29  N   UNL     1      23.923  45.877  49.045  1.00  0.00    -0.228 NA
HETATM   30  C   UNL     1      24.953  45.282  49.720  1.00  0.00     0.050 A 
HETATM   31  C   UNL     1      26.298  45.915  49.767  1.00  0.00     0.062 C 
HETATM   32  C   UNL     1      24.631  44.111  50.371  1.00  0.00     0.013 A 
HETATM   33  C   UNL     1      27.353  44.929  50.295  1.00  0.00     0.039 C 
HETATM   34  C   UNL     1      26.834  44.150  51.522  1.00  0.00     0.191 C 
HETATM   35  C   UNL     1      25.580  43.295  51.175  1.00  0.00     0.081 C 
HETATM   36  S   UNL     1      22.993  43.722  50.094  1.00  0.00    -0.055 SA
BRANCH  34  37
HETATM   37  N   UNL     1      27.921  43.237  52.047  1.00  0.00    -0.071 N 
HETATM   38  H   UNL     1      28.529  42.939  51.270  1.00  0.00     0.277 HD
HETATM   39  H   UNL     1      27.487  42.375  52.405  1.00  0.00     0.277 HD
BRANCH  37  40
HETATM   40  C   UNL     1      28.769  43.808  53.147  1.00  0.00     0.232 C 
BRANCH  40  41
HETATM   41  C   UNL     1      29.963  42.893  53.378  1.00  0.00     0.023 C 
HETATM   42  C   UNL     1      30.555  43.107  54.764  1.00  0.00     0.007 C 
ENDBRANCH  40  41
ENDBRANCH  37  40
ENDBRANCH  34  37
ENDBRANCH  25  28
ENDBRANCH  22  24
ENDBRANCH  13  18
ENDBRANCH   1   9
TORSDOF 7
ENDMDL
MODEL 7
REMARK VINA RESULT:      -7.9      2.277      5.568
REMARK  7 active torsions:
REMARK  status: ('A' for Active; 'I' for Inactive)
REMARK    1  A    between atoms: C_2  and  C_3 
REMARK    2  A    between atoms: C_3  and  N_4 
REMARK    3  A    between atoms: N_4  and  C_7 
REMARK    4  A    between atoms: C_12  and  N_13 
REMARK       I    between atoms: N_13  and  C_14 
REMARK    5  A    between atoms: C_14  and  C_16 
REMARK    6  A    between atoms: C_20  and  C_22 
REMARK       I    between atoms: N_26  and  C_27 
REMARK       I    between atoms: C_27  and  N_29 
REMARK    7  A    between atoms: N_29  and  C_30 
ROOT
HETATM    1  C   UNL     1      20.952  46.173  47.395  1.00  0.00     0.037 A 
HETATM    2  C   UNL     1      19.686  46.526  47.860  1.00  0.00     0.029 A 
HETATM    3  C   UNL     1      19.538  47.578  48.770  1.00  0.00     0.004 A 
HETATM    4  C   UNL     1      20.655  48.288  49.213  1.00  0.00     0.023 A 
HETATM    5  C   UNL     1      21.924  47.948  48.743  1.00  0.00     0.046 A 
HETATM    6  C   UNL     1      22.069  46.890  47.839  1.00  0.00     0.052 A 
HETATM    7  C   UNL     1      23.079  48.694  49.145  1.00  0.00     0.099 C 
HETATM    8  N   UNL     1      24.028  49.306  49.414  1.00  0.00    -0.191 NA
ENDROOT
BRANCH   1   9
HETATM    9  N   UNL     1      21.185  45.157  46.456  1.00  0.00    -0.309 N 
HETATM   10  C   UNL     1      21.011  45.189  45.094  1.00  0.00     0.323 C 
HETATM   11  N   UNL     1      21.511  44.057  44.449  1.00  0.00    -0.325 N 
HETATM   12  O   UNL     1      20.419  46.079  44.492  1.00  0.00    -0.247 OA
HETATM   13  C   UNL     1      22.795  43.408  44.764  1.00  0.00     0.122 C 
HETATM   14  C   UNL     1      21.198  43.870  43.036  1.00  0.00     0.128 C 
HETATM   15  C   UNL     1      22.979  42.395  43.629  1.00  0.00     0.032 C 
HETATM   16  C   UNL     1      22.394  43.139  42.438  1.00  0.00     0.022 C 
HETATM   17  H   UNL     1      21.250  44.223  46.824  1.00  0.00     0.170 HD
BRANCH  13  18
HETATM   18  C   UNL     1      22.922  42.785  46.136  1.00  0.00    -0.034 A 
HETATM   19  C   UNL     1      22.111  41.724  46.566  1.00  0.00     0.009 A 
HETATM   20  C   UNL     1      22.206  41.241  47.877  1.00  0.00     0.002 A 
HETATM   21  C   UNL     1      23.109  41.811  48.779  1.00  0.00     0.017 A 
HETATM   22  C   UNL     1      23.928  42.861  48.362  1.00  0.00     0.033 A 
HETATM   23  C   UNL     1      23.842  43.332  47.045  1.00  0.00     0.026 A 
BRANCH  22  24
HETATM   24  C   UNL     1      24.913  43.515  49.261  1.00  0.00     0.257 C 
HETATM   25  N   UNL     1      25.195  42.828  50.421  1.00  0.00    -0.301 N 
HETATM   26  H   UNL     1      24.733  41.960  50.649  1.00  0.00     0.171 HD
HETATM   27  O   UNL     1      25.331  44.618  48.932  1.00  0.00    -0.267 OA
BRANCH  25  28
HETATM   28  C   UNL     1      25.988  43.383  51.388  1.00  0.00     0.174 A 
HETATM   29  N   UNL     1      25.732  44.388  52.187  1.00  0.00    -0.228 NA
HETATM   30  C   UNL     1      26.786  44.588  53.035  1.00  0.00     0.050 A 
HETATM   31  C   UNL     1      26.736  45.651  54.073  1.00  0.00     0.062 C 
HETATM   32  C   UNL     1      27.840  43.713  52.879  1.00  0.00     0.013 A 
HETATM   33  C   UNL     1      28.128  45.897  54.678  1.00  0.00     0.039 C 
HETATM   34  C   UNL     1      28.853  44.568  54.982  1.00  0.00     0.191 C 
HETATM   35  C   UNL     1      29.086  43.729  53.691  1.00  0.00     0.081 C 
HETATM   36  S   UNL     1      27.515  42.631  51.601  1.00  0.00    -0.055 SA
BRANCH  34  37
HETATM   37  N   UNL     1      30.191  44.851  55.632  1.00  0.00    -0.071 N 
HETATM   38  H   UNL     1      30.055  45.459  56.453  1.00  0.00     0.277 HD
HETATM   39  H   UNL     1      30.770  45.396  54.977  1.00  0.00     0.277 HD
BRANCH  37  40
HETATM   40  C   UNL     1      30.982  43.641  56.038  1.00  0.00     0.232 C 
BRANCH  40  41
HETATM   41  C   UNL     1      31.643  43.909  57.382  1.00  0.00     0.023 C 
HETATM   42  C   UNL     1      30.780  44.819  58.244  1.00  0.00     0.007 C 
ENDBRANCH  40  41
ENDBRANCH  37  40
ENDBRANCH  34  37
ENDBRANCH  25  28
ENDBRANCH  22  24
ENDBRANCH  13  18
ENDBRANCH   1   9
TORSDOF 7
ENDMDL
MODEL 8
REMARK VINA RESULT:      -7.7     20.199     22.831
REMARK  7 active torsions:
REMARK  status: ('A' for Active; 'I' for Inactive)
REMARK    1  A    between atoms: C_2  and  C_3 
REMARK    2  A    between atoms: C_3  and  N_4 
REMARK    3  A    between atoms: N_4  and  C_7 
REMARK    4  A    between atoms: C_12  and  N_13 
REMARK       I    between atoms: N_13  and  C_14 
REMARK    5  A    between atoms: C_14  and  C_16 
REMARK    6  A    between atoms: C_20  and  C_22 
REMARK       I    between atoms: N_26  and  C_27 
REMARK       I    between atoms: C_27  and  N_29 
REMARK    7  A    between atoms: N_29  and  C_30 
ROOT
HETATM    1  C   UNL     1      38.441  44.864  64.215  1.00  0.00     0.037 A 
HETATM    2  C   UNL     1      39.098  44.335  63.105  1.00  0.00     0.029 A 
HETATM    3  C   UNL     1      38.786  43.050  62.649  1.00  0.00     0.004 A 
HETATM    4  C   UNL     1      37.809  42.290  63.295  1.00  0.00     0.023 A 
HETATM    5  C   UNL     1      37.139  42.818  64.399  1.00  0.00     0.046 A 
HETATM    6  C   UNL     1      37.459  44.101  64.857  1.00  0.00     0.052 A 
HETATM    7  C   UNL     1      36.098  42.078  65.047  1.00  0.00     0.099 C 
HETATM    8  N   UNL     1      35.220  41.524  65.566  1.00  0.00    -0.191 NA
ENDROOT
BRANCH   1   9
HETATM    9  N   UNL     1      38.665  46.156  64.715  1.00  0.00    -0.309 N 
HETATM   10  C   UNL     1      37.798  47.219  64.767  1.00  0.00     0.323 C 
HETATM   11  N   UNL     1      38.300  48.301  65.492  1.00  0.00    -0.325 N 
HETATM   12  O   UNL     1      36.718  47.262  64.188  1.00  0.00    -0.247 OA
HETATM   13  C   UNL     1      39.023  48.194  66.771  1.00  0.00     0.122 C 
HETATM   14  C   UNL     1      37.571  49.566  65.443  1.00  0.00     0.128 C 
HETATM   15  C   UNL     1      39.124  49.645  67.254  1.00  0.00     0.032 C 
HETATM   16  C   UNL     1      37.796  50.228  66.797  1.00  0.00     0.022 C 
HETATM   17  H   UNL     1      39.628  46.425  64.822  1.00  0.00     0.170 HD
BRANCH  13  18
HETATM   18  C   UNL     1      40.361  47.491  66.736  1.00  0.00    -0.034 A 
HETATM   19  C   UNL     1      41.570  48.167  66.517  1.00  0.00     0.009 A 
HETATM   20  C   UNL     1      42.772  47.459  66.404  1.00  0.00     0.002 A 
HETATM   21  C   UNL     1      42.787  46.065  66.504  1.00  0.00     0.017 A 
HETATM   22  C   UNL     1      41.593  45.380  66.731  1.00  0.00     0.033 A 
HETATM   23  C   UNL     1      40.393  46.092  66.859  1.00  0.00     0.026 A 
BRANCH  22  24
HETATM   24  C   UNL     1      41.528  43.901  66.851  1.00  0.00     0.257 C 
HETATM   25  N   UNL     1      41.770  43.206  65.686  1.00  0.00    -0.301 N 
HETATM   26  H   UNL     1      41.944  43.680  64.813  1.00  0.00     0.171 HD
HETATM   27  O   UNL     1      41.207  43.437  67.938  1.00  0.00    -0.267 OA
BRANCH  25  28
HETATM   28  C   UNL     1      41.617  41.847  65.637  1.00  0.00     0.174 A 
HETATM   29  N   UNL     1      40.523  41.147  65.466  1.00  0.00    -0.228 NA
HETATM   30  C   UNL     1      40.825  39.814  65.436  1.00  0.00     0.050 A 
HETATM   31  C   UNL     1      39.762  38.798  65.216  1.00  0.00     0.062 C 
HETATM   32  C   UNL     1      42.162  39.511  65.573  1.00  0.00     0.013 A 
HETATM   33  C   UNL     1      40.274  37.385  65.539  1.00  0.00     0.039 C 
HETATM   34  C   UNL     1      41.685  37.150  64.959  1.00  0.00     0.191 C 
HETATM   35  C   UNL     1      42.729  38.135  65.561  1.00  0.00     0.081 C 
HETATM   36  S   UNL     1      43.066  40.942  65.787  1.00  0.00    -0.055 SA
BRANCH  34  37
HETATM   37  N   UNL     1      42.127  35.730  65.245  1.00  0.00    -0.071 N 
HETATM   38  H   UNL     1      43.154  35.696  65.319  1.00  0.00     0.277 HD
HETATM   39  H   UNL     1      41.888  35.139  64.437  1.00  0.00     0.277 HD
BRANCH  37  40
HETATM   40  C   UNL     1      41.522  35.098  66.465  1.00  0.00     0.232 C 
BRANCH  40  41
HETATM   41  C   UNL     1      40.784  33.832  66.053  1.00  0.00     0.023 C 
HETATM   42  C   UNL     1      39.314  33.906  66.440  1.00  0.00     0.007 C 
ENDBRANCH  40  41
ENDBRANCH  37  40
ENDBRANCH  34  37
ENDBRANCH  25  28
ENDBRANCH  22  24
ENDBRANCH  13  18
ENDBRANCH   1   9
TORSDOF 7
ENDMDL
MODEL 9
REMARK VINA RESULT:      -7.7      2.457      5.231
REMARK  7 active torsions:
REMARK  status: ('A' for Active; 'I' for Inactive)
REMARK    1  A    between atoms: C_2  and  C_3 
REMARK    2  A    between atoms: C_3  and  N_4 
REMARK    3  A    between atoms: N_4  and  C_7 
REMARK    4  A    between atoms: C_12  and  N_13 
REMARK       I    between atoms: N_13  and  C_14 
REMARK    5  A    between atoms: C_14  and  C_16 
REMARK    6  A    between atoms: C_20  and  C_22 
REMARK       I    between atoms: N_26  and  C_27 
REMARK       I    between atoms: C_27  and  N_29 
REMARK    7  A    between atoms: N_29  and  C_30 
ROOT
HETATM    1  C   UNL     1      19.119  46.501  47.013  1.00  0.00     0.037 A 
HETATM    2  C   UNL     1      17.851  46.093  47.425  1.00  0.00     0.029 A 
HETATM    3  C   UNL     1      17.242  46.697  48.530  1.00  0.00     0.004 A 
HETATM    4  C   UNL     1      17.894  47.718  49.224  1.00  0.00     0.023 A 
HETATM    5  C   UNL     1      19.157  48.140  48.809  1.00  0.00     0.046 A 
HETATM    6  C   UNL     1      19.768  47.529  47.708  1.00  0.00     0.052 A 
HETATM    7  C   UNL     1      19.824  49.220  49.474  1.00  0.00     0.099 C 
HETATM    8  N   UNL     1      20.371  50.121  49.961  1.00  0.00    -0.191 NA
ENDROOT
BRANCH   1   9
HETATM    9  N   UNL     1      19.786  45.976  45.896  1.00  0.00    -0.309 N 
HETATM   10  C   UNL     1      19.786  46.435  44.601  1.00  0.00     0.323 C 
HETATM   11  N   UNL     1      20.703  45.771  43.784  1.00  0.00    -0.325 N 
HETATM   12  O   UNL     1      19.022  47.291  44.170  1.00  0.00    -0.247 OA
HETATM   13  C   UNL     1      22.076  45.414  44.178  1.00  0.00     0.122 C 
HETATM   14  C   UNL     1      20.651  46.015  42.346  1.00  0.00     0.128 C 
HETATM   15  C   UNL     1      22.720  44.945  42.869  1.00  0.00     0.032 C 
HETATM   16  C   UNL     1      22.085  45.878  41.849  1.00  0.00     0.022 C 
HETATM   17  H   UNL     1      20.100  45.024  45.978  1.00  0.00     0.170 HD
BRANCH  13  18
HETATM   18  C   UNL     1      22.219  44.406  45.297  1.00  0.00    -0.034 A 
HETATM   19  C   UNL     1      21.557  43.170  45.296  1.00  0.00     0.009 A 
HETATM   20  C   UNL     1      21.652  42.310  46.397  1.00  0.00     0.002 A 
HETATM   21  C   UNL     1      22.405  42.672  47.518  1.00  0.00     0.017 A 
HETATM   22  C   UNL     1      23.075  43.896  47.529  1.00  0.00     0.033 A 
HETATM   23  C   UNL     1      22.992  44.747  46.419  1.00  0.00     0.026 A 
BRANCH  22  24
HETATM   24  C   UNL     1      23.897  44.349  48.680  1.00  0.00     0.257 C 
HETATM   25  N   UNL     1      24.474  43.341  49.422  1.00  0.00    -0.301 N 
HETATM   26  H   UNL     1      24.315  42.369  49.208  1.00  0.00     0.171 HD
HETATM   27  O   UNL     1      23.936  45.552  48.907  1.00  0.00    -0.267 OA
BRANCH  25  28
HETATM   28  C   UNL     1      25.149  43.622  50.578  1.00  0.00     0.174 A 
HETATM   29  N   UNL     1      24.671  43.862  51.774  1.00  0.00    -0.228 NA
HETATM   30  C   UNL     1      25.699  44.051  52.655  1.00  0.00     0.050 A 
HETATM   31  C   UNL     1      25.429  44.305  54.095  1.00  0.00     0.062 C 
HETATM   32  C   UNL     1      26.963  43.940  52.118  1.00  0.00     0.013 A 
HETATM   33  C   UNL     1      26.695  44.798  54.816  1.00  0.00     0.039 C 
HETATM   34  C   UNL     1      27.934  43.975  54.405  1.00  0.00     0.191 C 
HETATM   35  C   UNL     1      28.230  44.095  52.882  1.00  0.00     0.081 C 
HETATM   36  S   UNL     1      26.859  43.628  50.443  1.00  0.00    -0.055 SA
BRANCH  34  37
HETATM   37  N   UNL     1      29.145  44.451  55.181  1.00  0.00    -0.071 N 
HETATM   38  H   UNL     1      28.933  44.448  56.189  1.00  0.00     0.277 HD
HETATM   39  H   UNL     1      29.329  45.434  54.939  1.00  0.00     0.277 HD
BRANCH  37  40
HETATM   40  C   UNL     1      30.411  43.680  54.938  1.00  0.00     0.232 C 
BRANCH  40  41
HETATM   41  C   UNL     1      30.761  42.894  56.195  1.00  0.00     0.023 C 
HETATM   42  C   UNL     1      31.762  43.653  57.053  1.00  0.00     0.007 C 
ENDBRANCH  40  41
ENDBRANCH  37  40
ENDBRANCH  34  37
ENDBRANCH  25  28
ENDBRANCH  22  24
ENDBRANCH  13  18
ENDBRANCH   1   9
TORSDOF 7
ENDMDL
MODEL 10
REMARK VINA RESULT:      -7.7      3.724      5.762
REMARK  7 active torsions:
REMARK  status: ('A' for Active; 'I' for Inactive)
REMARK    1  A    between atoms: C_2  and  C_3 
REMARK    2  A    between atoms: C_3  and  N_4 
REMARK    3  A    between atoms: N_4  and  C_7 
REMARK    4  A    between atoms: C_12  and  N_13 
REMARK       I    between atoms: N_13  and  C_14 
REMARK    5  A    between atoms: C_14  and  C_16 
REMARK    6  A    between atoms: C_20  and  C_22 
REMARK       I    between atoms: N_26  and  C_27 
REMARK       I    between atoms: C_27  and  N_29 
REMARK    7  A    between atoms: N_29  and  C_30 
ROOT
HETATM    1  C   UNL     1      23.745  47.876  49.529  1.00  0.00     0.037 A 
HETATM    2  C   UNL     1      23.892  46.579  50.019  1.00  0.00     0.029 A 
HETATM    3  C   UNL     1      25.169  46.041  50.214  1.00  0.00     0.004 A 
HETATM    4  C   UNL     1      26.305  46.800  49.929  1.00  0.00     0.023 A 
HETATM    5  C   UNL     1      26.165  48.103  49.450  1.00  0.00     0.046 A 
HETATM    6  C   UNL     1      24.887  48.636  49.248  1.00  0.00     0.052 A 
HETATM    7  C   UNL     1      27.316  48.918  49.198  1.00  0.00     0.099 C 
HETATM    8  N   UNL     1      28.224  49.620  49.027  1.00  0.00    -0.191 NA
ENDROOT
BRANCH   1   9
HETATM    9  N   UNL     1      22.505  48.505  49.340  1.00  0.00    -0.309 N 
HETATM   10  C   UNL     1      22.201  49.842  49.407  1.00  0.00     0.323 C 
HETATM   11  N   UNL     1      20.901  50.131  48.988  1.00  0.00    -0.325 N 
HETATM   12  O   UNL     1      22.954  50.703  49.850  1.00  0.00    -0.247 OA
HETATM   13  C   UNL     1      20.246  49.538  47.810  1.00  0.00     0.122 C 
HETATM   14  C   UNL     1      20.385  51.478  49.212  1.00  0.00     0.128 C 
HETATM   15  C   UNL     1      18.962  50.360  47.655  1.00  0.00     0.032 C 
HETATM   16  C   UNL     1      19.423  51.752  48.063  1.00  0.00     0.022 C 
HETATM   17  H   UNL     1      21.696  47.912  49.406  1.00  0.00     0.170 HD
BRANCH  13  18
HETATM   18  C   UNL     1      19.988  48.048  47.857  1.00  0.00    -0.034 A 
HETATM   19  C   UNL     1      18.793  47.499  48.345  1.00  0.00     0.009 A 
HETATM   20  C   UNL     1      18.639  46.111  48.450  1.00  0.00     0.002 A 
HETATM   21  C   UNL     1      19.674  45.251  48.075  1.00  0.00     0.017 A 
HETATM   22  C   UNL     1      20.865  45.784  47.579  1.00  0.00     0.033 A 
HETATM   23  C   UNL     1      21.011  47.172  47.460  1.00  0.00     0.026 A 
BRANCH  22  24
HETATM   24  C   UNL     1      22.008  44.936  47.157  1.00  0.00     0.257 C 
HETATM   25  N   UNL     1      22.048  43.680  47.724  1.00  0.00    -0.301 N 
HETATM   26  H   UNL     1      21.363  43.383  48.402  1.00  0.00     0.171 HD
HETATM   27  O   UNL     1      22.837  45.437  46.408  1.00  0.00    -0.267 OA
BRANCH  25  28
HETATM   28  C   UNL     1      23.116  42.851  47.515  1.00  0.00     0.174 A 
HETATM   29  N   UNL     1      23.485  42.246  46.413  1.00  0.00    -0.228 NA
HETATM   30  C   UNL     1      24.639  41.545  46.632  1.00  0.00     0.050 A 
HETATM   31  C   UNL     1      25.294  40.794  45.529  1.00  0.00     0.062 C 
HETATM   32  C   UNL     1      25.148  41.637  47.910  1.00  0.00     0.013 A 
HETATM   33  C   UNL     1      26.372  39.842  46.074  1.00  0.00     0.039 C 
HETATM   34  C   UNL     1      27.240  40.530  47.149  1.00  0.00     0.191 C 
HETATM   35  C   UNL     1      26.394  40.973  48.379  1.00  0.00     0.081 C 
HETATM   36  S   UNL     1      24.125  42.599  48.878  1.00  0.00    -0.055 SA
BRANCH  34  37
HETATM   37  N   UNL     1      28.325  39.582  47.615  1.00  0.00    -0.071 N 
HETATM   38  H   UNL     1      29.219  39.833  47.168  1.00  0.00     0.277 HD
HETATM   39  H   UNL     1      28.104  38.634  47.279  1.00  0.00     0.277 HD
BRANCH  37  40
HETATM   40  C   UNL     1      28.520  39.503  49.101  1.00  0.00     0.232 C 
BRANCH  40  41
HETATM   41  C   UNL     1      29.029  38.114  49.461  1.00  0.00     0.023 C 
HETATM   42  C   UNL     1      29.900  38.157  50.708  1.00  0.00     0.007 C 
ENDBRANCH  40  41
ENDBRANCH  37  40
ENDBRANCH  34  37
ENDBRANCH  25  28
ENDBRANCH  22  24
ENDBRANCH  13  18
ENDBRANCH   1   9
TORSDOF 7
ENDMDL
