MODEL 1
REMARK VINA RESULT:     -10.7      0.000      0.000
REMARK  5 active torsions:
REMARK  status: ('A' for Active; 'I' for Inactive)
REMARK    1  A    between atoms: C_4  and  N_5 
REMARK    2  A    between atoms: C_7  and  C_8 
REMARK       I    between atoms: C_8  and  N_9 
REMARK    3  A    between atoms: N_9  and  N_10 
REMARK       I    between atoms: N_10  and  C_11 
REMARK    4  A    between atoms: C_11  and  C_12 
REMARK    5  A    between atoms: C_16  and  C_17 
ROOT
HETATM    1  C   UNL     1      24.671  47.908  49.990  1.00  0.00     0.286 C 
HETATM    2  N   UNL     1      24.267  47.162  51.073  1.00  0.00    -0.262 N 
HETATM    3  O   UNL     1      25.830  47.983  49.601  1.00  0.00    -0.264 OA
HETATM    4  H   UNL     1      23.296  47.110  51.386  1.00  0.00     0.190 HD
ENDROOT
BRANCH   2   5
HETATM    5  N   UNL     1      25.246  46.430  51.750  1.00  0.00    -0.262 N 
HETATM    6  C   UNL     1      25.771  46.882  52.941  1.00  0.00     0.288 C 
HETATM    7  O   UNL     1      25.372  47.903  53.494  1.00  0.00    -0.264 OA
HETATM    8  H   UNL     1      25.606  45.612  51.267  1.00  0.00     0.190 HD
BRANCH   6   9
HETATM    9  C   UNL     1      26.820  46.056  53.482  1.00  0.00     0.121 A 
HETATM   10  N   UNL     1      27.243  44.912  52.866  1.00  0.00    -0.272 N 
HETATM   11  H   UNL     1      26.887  44.516  52.001  1.00  0.00     0.189 HD
HETATM   12  N   UNL     1      28.243  44.283  53.502  1.00  0.00    -0.174 NA
HETATM   13  C   UNL     1      28.475  45.025  54.596  1.00  0.00     0.089 A 
HETATM   14  C   UNL     1      27.604  46.150  54.615  1.00  0.00     0.071 A 
BRANCH  13  15
HETATM   15  C   UNL     1      29.507  44.673  55.578  1.00  0.00    -0.006 A 
HETATM   16  C   UNL     1      30.278  43.513  55.416  1.00  0.00     0.014 A 
HETATM   17  C   UNL     1      31.277  43.184  56.337  1.00  0.00     0.001 A 
HETATM   18  C   UNL     1      31.513  44.008  57.436  1.00  0.00     0.000 A 
HETATM   19  C   UNL     1      30.750  45.159  57.616  1.00  0.00     0.001 A 
HETATM   20  C   UNL     1      29.752  45.490  56.693  1.00  0.00     0.014 A 
ENDBRANCH  13  15
ENDBRANCH   6   9
ENDBRANCH   2   5
BRANCH   1  21
HETATM   21  C   UNL     1      23.569  48.656  49.259  1.00  0.00     0.125 C 
HETATM   22  N   UNL     1      22.412  48.086  49.098  1.00  0.00    -0.164 NA
HETATM   23  N   UNL     1      21.413  48.793  48.436  1.00  0.00    -0.200 N 
HETATM   24  C   UNL     1      21.631  50.039  47.828  1.00  0.00     0.245 C 
HETATM   25  C   UNL     1      23.083  50.350  47.584  1.00  0.00     0.111 C 
HETATM   26  O   UNL     1      20.769  50.841  47.470  1.00  0.00    -0.271 OA
HETATM   27  C   UNL     1      23.882  50.054  48.824  1.00  0.00     0.076 C 
BRANCH  23  28
HETATM   28  C   UNL     1      20.113  48.194  48.524  1.00  0.00     0.068 A 
HETATM   29  C   UNL     1      19.770  47.208  47.574  1.00  0.00     0.039 A 
HETATM   30  C   UNL     1      18.547  46.523  47.624  1.00  0.00    -0.060 A 
HETATM   31  C   UNL     1      18.236  45.429  46.646  1.00  0.00     0.048 C 
HETATM   32  C   UNL     1      17.648  46.823  48.645  1.00  0.00     0.007 A 
HETATM   33  C   UNL     1      17.946  47.825  49.566  1.00  0.00     0.009 A 
HETATM   34  C   UNL     1      19.157  48.542  49.503  1.00  0.00    -0.033 A 
HETATM   35  C   UNL     1      19.312  49.681  50.477  1.00  0.00     0.050 C 
ENDBRANCH  23  28
ENDBRANCH   1  21
TORSDOF 5
ENDMDL
MODEL 2
REMARK VINA RESULT:     -10.6      1.996      3.228
REMARK  5 active torsions:
REMARK  status: ('A' for Active; 'I' for Inactive)
REMARK    1  A    between atoms: C_4  and  N_5 
REMARK    2  A    between atoms: C_7  and  C_8 
REMARK       I    between atoms: C_8  and  N_9 
REMARK    3  A    between atoms: N_9  and  N_10 
REMARK       I    between atoms: N_10  and  C_11 
REMARK    4  A    between atoms: C_11  and  C_12 
REMARK    5  A    between atoms: C_16  and  C_17 
ROOT
HETATM    1  C   UNL     1      25.018  46.429  50.571  1.00  0.00     0.286 C 
HETATM    2  N   UNL     1      25.565  45.168  50.631  1.00  0.00    -0.262 N 
HETATM    3  O   UNL     1      25.361  47.362  51.288  1.00  0.00    -0.264 OA
HETATM    4  H   UNL     1      25.268  44.400  50.027  1.00  0.00     0.190 HD
ENDROOT
BRANCH   2   5
HETATM    5  N   UNL     1      26.589  44.956  51.558  1.00  0.00    -0.262 N 
HETATM    6  C   UNL     1      27.417  43.860  51.459  1.00  0.00     0.288 C 
HETATM    7  O   UNL     1      27.340  43.054  50.535  1.00  0.00    -0.264 OA
HETATM    8  H   UNL     1      26.619  45.598  52.345  1.00  0.00     0.190 HD
BRANCH   6   9
HETATM    9  C   UNL     1      28.378  43.740  52.525  1.00  0.00     0.121 A 
HETATM   10  N   UNL     1      29.454  42.902  52.450  1.00  0.00    -0.272 N 
HETATM   11  H   UNL     1      29.697  42.286  51.680  1.00  0.00     0.189 HD
HETATM   12  N   UNL     1      30.255  42.937  53.527  1.00  0.00    -0.174 NA
HETATM   13  C   UNL     1      29.672  43.815  54.359  1.00  0.00     0.089 A 
HETATM   14  C   UNL     1      28.494  44.343  53.762  1.00  0.00     0.071 A 
BRANCH  13  15
HETATM   15  C   UNL     1      30.237  44.143  55.673  1.00  0.00    -0.006 A 
HETATM   16  C   UNL     1      31.178  43.295  56.276  1.00  0.00     0.014 A 
HETATM   17  C   UNL     1      31.735  43.614  57.518  1.00  0.00     0.001 A 
HETATM   18  C   UNL     1      31.354  44.781  58.175  1.00  0.00     0.000 A 
HETATM   19  C   UNL     1      30.414  45.630  57.595  1.00  0.00     0.001 A 
HETATM   20  C   UNL     1      29.859  45.313  56.351  1.00  0.00     0.014 A 
ENDBRANCH  13  15
ENDBRANCH   6   9
ENDBRANCH   2   5
BRANCH   1  21
HETATM   21  C   UNL     1      23.936  46.627  49.523  1.00  0.00     0.125 C 
HETATM   22  N   UNL     1      23.130  47.641  49.625  1.00  0.00    -0.164 NA
HETATM   23  N   UNL     1      22.153  47.810  48.648  1.00  0.00    -0.200 N 
HETATM   24  C   UNL     1      21.918  46.874  47.629  1.00  0.00     0.245 C 
HETATM   25  C   UNL     1      22.497  45.513  47.909  1.00  0.00     0.111 C 
HETATM   26  O   UNL     1      21.283  47.062  46.593  1.00  0.00    -0.271 OA
HETATM   27  C   UNL     1      23.918  45.653  48.385  1.00  0.00     0.076 C 
BRANCH  23  28
HETATM   28  C   UNL     1      21.481  49.076  48.703  1.00  0.00     0.068 A 
HETATM   29  C   UNL     1      20.154  49.103  49.183  1.00  0.00     0.039 A 
HETATM   30  C   UNL     1      19.444  50.304  49.334  1.00  0.00    -0.060 A 
HETATM   31  C   UNL     1      18.060  50.313  49.913  1.00  0.00     0.048 C 
HETATM   32  C   UNL     1      20.070  51.503  49.003  1.00  0.00     0.007 A 
HETATM   33  C   UNL     1      21.363  51.496  48.483  1.00  0.00     0.009 A 
HETATM   34  C   UNL     1      22.071  50.292  48.298  1.00  0.00    -0.033 A 
HETATM   35  C   UNL     1      23.411  50.403  47.617  1.00  0.00     0.050 C 
ENDBRANCH  23  28
ENDBRANCH   1  21
TORSDOF 5
ENDMDL
MODEL 3
REMARK VINA RESULT:     -10.6      2.555     11.011
REMARK  5 active torsions:
REMARK  status: ('A' for Active; 'I' for Inactive)
REMARK    1  A    between atoms: C_4  and  N_5 
REMARK    2  A    between atoms: C_7  and  C_8 
REMARK       I    between atoms: C_8  and  N_9 
REMARK    3  A    between atoms: N_9  and  N_10 
REMARK       I    between atoms: N_10  and  C_11 
REMARK    4  A    between atoms: C_11  and  C_12 
REMARK    5  A    between atoms: C_16  and  C_17 
ROOT
HETATM    1  C   UNL     1      25.432  44.877  50.345  1.00  0.00     0.286 C 
HETATM    2  N   UNL     1      24.826  45.931  50.989  1.00  0.00    -0.262 N 
HETATM    3  O   UNL     1      25.349  44.667  49.141  1.00  0.00    -0.264 OA
HETATM    4  H   UNL     1      24.904  46.093  51.994  1.00  0.00     0.190 HD
ENDROOT
BRANCH   2   5
HETATM    5  N   UNL     1      24.091  46.824  50.204  1.00  0.00    -0.262 N 
HETATM    6  C   UNL     1      24.625  48.035  49.821  1.00  0.00     0.288 C 
HETATM    7  O   UNL     1      25.777  48.365  50.091  1.00  0.00    -0.264 OA
HETATM    8  H   UNL     1      23.124  46.569  50.023  1.00  0.00     0.190 HD
BRANCH   6   9
HETATM    9  C   UNL     1      23.724  48.875  49.076  1.00  0.00     0.121 A 
HETATM   10  N   UNL     1      24.116  49.566  47.964  1.00  0.00    -0.272 N 
HETATM   11  H   UNL     1      25.042  49.580  47.549  1.00  0.00     0.189 HD
HETATM   12  N   UNL     1      23.137  50.281  47.386  1.00  0.00    -0.174 NA
HETATM   13  C   UNL     1      22.061  50.075  48.161  1.00  0.00     0.089 A 
HETATM   14  C   UNL     1      22.389  49.195  49.228  1.00  0.00     0.071 A 
BRANCH  13  15
HETATM   15  C   UNL     1      20.760  50.693  47.875  1.00  0.00    -0.006 A 
HETATM   16  C   UNL     1      19.939  50.185  46.857  1.00  0.00     0.014 A 
HETATM   17  C   UNL     1      18.690  50.755  46.595  1.00  0.00     0.001 A 
HETATM   18  C   UNL     1      18.249  51.845  47.343  1.00  0.00     0.000 A 
HETATM   19  C   UNL     1      19.056  52.367  48.350  1.00  0.00     0.001 A 
HETATM   20  C   UNL     1      20.304  51.795  48.615  1.00  0.00     0.014 A 
ENDBRANCH  13  15
ENDBRANCH   6   9
ENDBRANCH   2   5
BRANCH   1  21
HETATM   21  C   UNL     1      26.254  43.954  51.228  1.00  0.00     0.125 C 
HETATM   22  N   UNL     1      27.023  44.465  52.142  1.00  0.00    -0.164 NA
HETATM   23  N   UNL     1      27.758  43.600  52.948  1.00  0.00    -0.200 N 
HETATM   24  C   UNL     1      27.804  42.213  52.741  1.00  0.00     0.245 C 
HETATM   25  C   UNL     1      27.354  41.789  51.369  1.00  0.00     0.111 C 
HETATM   26  O   UNL     1      28.193  41.365  53.542  1.00  0.00    -0.271 OA
HETATM   27  C   UNL     1      26.065  42.482  51.019  1.00  0.00     0.076 C 
BRANCH  23  28
HETATM   28  C   UNL     1      28.377  44.234  54.077  1.00  0.00     0.068 A 
HETATM   29  C   UNL     1      29.549  43.653  54.605  1.00  0.00     0.039 A 
HETATM   30  C   UNL     1      30.256  44.241  55.665  1.00  0.00    -0.060 A 
HETATM   31  C   UNL     1      31.539  43.642  56.161  1.00  0.00     0.048 C 
HETATM   32  C   UNL     1      29.787  45.435  56.207  1.00  0.00     0.007 A 
HETATM   33  C   UNL     1      28.605  46.001  55.732  1.00  0.00     0.009 A 
HETATM   34  C   UNL     1      27.871  45.400  54.691  1.00  0.00    -0.033 A 
HETATM   35  C   UNL     1      26.551  46.039  54.348  1.00  0.00     0.050 C 
ENDBRANCH  23  28
ENDBRANCH   1  21
TORSDOF 5
ENDMDL
MODEL 4
REMARK VINA RESULT:     -10.5      2.703     11.095
REMARK  5 active torsions:
REMARK  status: ('A' for Active; 'I' for Inactive)
REMARK    1  A    between atoms: C_4  and  N_5 
REMARK    2  A    between atoms: C_7  and  C_8 
REMARK       I    between atoms: C_8  and  N_9 
REMARK    3  A    between atoms: N_9  and  N_10 
REMARK       I    between atoms: N_10  and  C_11 
REMARK    4  A    between atoms: C_11  and  C_12 
REMARK    5  A    between atoms: C_16  and  C_17 
ROOT
HETATM    1  C   UNL     1      25.281  44.687  50.264  1.00  0.00     0.286 C 
HETATM    2  N   UNL     1      24.688  45.739  50.924  1.00  0.00    -0.262 N 
HETATM    3  O   UNL     1      25.208  44.506  49.055  1.00  0.00    -0.264 OA
HETATM    4  H   UNL     1      24.757  45.876  51.934  1.00  0.00     0.190 HD
ENDROOT
BRANCH   2   5
HETATM    5  N   UNL     1      23.982  46.665  50.152  1.00  0.00    -0.262 N 
HETATM    6  C   UNL     1      24.511  47.906  49.875  1.00  0.00     0.288 C 
HETATM    7  O   UNL     1      25.637  48.240  50.234  1.00  0.00    -0.264 OA
HETATM    8  H   UNL     1      23.033  46.402  49.897  1.00  0.00     0.190 HD
BRANCH   6   9
HETATM    9  C   UNL     1      23.637  48.774  49.129  1.00  0.00     0.121 A 
HETATM   10  N   UNL     1      24.055  49.459  48.024  1.00  0.00    -0.272 N 
HETATM   11  H   UNL     1      24.984  49.451  47.614  1.00  0.00     0.189 HD
HETATM   12  N   UNL     1      23.099  50.202  47.443  1.00  0.00    -0.174 NA
HETATM   13  C   UNL     1      22.012  50.022  48.210  1.00  0.00     0.089 A 
HETATM   14  C   UNL     1      22.310  49.127  49.274  1.00  0.00     0.071 A 
BRANCH  13  15
HETATM   15  C   UNL     1      20.731  50.675  47.918  1.00  0.00    -0.006 A 
HETATM   16  C   UNL     1      20.285  51.752  48.700  1.00  0.00     0.014 A 
HETATM   17  C   UNL     1      19.076  52.392  48.413  1.00  0.00     0.001 A 
HETATM   18  C   UNL     1      18.293  51.959  47.345  1.00  0.00     0.000 A 
HETATM   19  C   UNL     1      18.716  50.886  46.565  1.00  0.00     0.001 A 
HETATM   20  C   UNL     1      19.928  50.248  46.849  1.00  0.00     0.014 A 
ENDBRANCH  13  15
ENDBRANCH   6   9
ENDBRANCH   2   5
BRANCH   1  21
HETATM   21  C   UNL     1      26.072  43.726  51.136  1.00  0.00     0.125 C 
HETATM   22  N   UNL     1      26.975  44.197  51.943  1.00  0.00    -0.164 NA
HETATM   23  N   UNL     1      27.680  43.301  52.741  1.00  0.00    -0.200 N 
HETATM   24  C   UNL     1      27.552  41.908  52.627  1.00  0.00     0.245 C 
HETATM   25  C   UNL     1      26.932  41.460  51.331  1.00  0.00     0.111 C 
HETATM   26  O   UNL     1      27.916  41.068  53.449  1.00  0.00    -0.271 OA
HETATM   27  C   UNL     1      25.702  42.278  51.046  1.00  0.00     0.076 C 
BRANCH  23  28
HETATM   28  C   UNL     1      28.467  43.922  53.766  1.00  0.00     0.068 A 
HETATM   29  C   UNL     1      27.890  44.982  54.497  1.00  0.00     0.039 A 
HETATM   30  C   UNL     1      28.562  45.603  55.560  1.00  0.00    -0.060 A 
HETATM   31  C   UNL     1      27.898  46.679  56.367  1.00  0.00     0.048 C 
HETATM   32  C   UNL     1      29.835  45.156  55.906  1.00  0.00     0.007 A 
HETATM   33  C   UNL     1      30.443  44.141  55.169  1.00  0.00     0.009 A 
HETATM   34  C   UNL     1      29.789  43.535  54.078  1.00  0.00    -0.033 A 
HETATM   35  C   UNL     1      30.594  42.539  53.286  1.00  0.00     0.050 C 
ENDBRANCH  23  28
ENDBRANCH   1  21
TORSDOF 5
ENDMDL
MODEL 5
REMARK VINA RESULT:     -10.5      1.625      3.000
REMARK  5 active torsions:
REMARK  status: ('A' for Active; 'I' for Inactive)
REMARK    1  A    between atoms: C_4  and  N_5 
REMARK    2  A    between atoms: C_7  and  C_8 
REMARK       I    between atoms: C_8  and  N_9 
REMARK    3  A    between atoms: N_9  and  N_10 
REMARK       I    between atoms: N_10  and  C_11 
REMARK    4  A    between atoms: C_11  and  C_12 
REMARK    5  A    between atoms: C_16  and  C_17 
ROOT
HETATM    1  C   UNL     1      24.367  45.623  49.690  1.00  0.00     0.286 C 
HETATM    2  N   UNL     1      24.210  45.804  51.044  1.00  0.00    -0.262 N 
HETATM    3  O   UNL     1      25.360  45.124  49.173  1.00  0.00    -0.264 OA
HETATM    4  H   UNL     1      23.377  46.222  51.460  1.00  0.00     0.190 HD
ENDROOT
BRANCH   2   5
HETATM    5  N   UNL     1      25.246  45.367  51.874  1.00  0.00    -0.262 N 
HETATM    6  C   UNL     1      25.918  46.249  52.692  1.00  0.00     0.288 C 
HETATM    7  O   UNL     1      25.611  47.435  52.779  1.00  0.00    -0.264 OA
HETATM    8  H   UNL     1      25.528  44.397  51.764  1.00  0.00     0.190 HD
BRANCH   6   9
HETATM    9  C   UNL     1      27.004  45.664  53.435  1.00  0.00     0.121 A 
HETATM   10  N   UNL     1      27.678  44.558  52.999  1.00  0.00    -0.272 N 
HETATM   11  H   UNL     1      27.505  44.032  52.148  1.00  0.00     0.189 HD
HETATM   12  N   UNL     1      28.674  44.166  53.809  1.00  0.00    -0.174 NA
HETATM   13  C   UNL     1      28.642  45.031  54.835  1.00  0.00     0.089 A 
HETATM   14  C   UNL     1      27.611  45.989  54.632  1.00  0.00     0.071 A 
BRANCH  13  15
HETATM   15  C   UNL     1      29.580  44.947  55.961  1.00  0.00    -0.006 A 
HETATM   16  C   UNL     1      29.490  45.849  57.032  1.00  0.00     0.014 A 
HETATM   17  C   UNL     1      30.367  45.759  58.117  1.00  0.00     0.001 A 
HETATM   18  C   UNL     1      31.349  44.771  58.141  1.00  0.00     0.000 A 
HETATM   19  C   UNL     1      31.457  43.873  57.083  1.00  0.00     0.001 A 
HETATM   20  C   UNL     1      30.578  43.960  55.998  1.00  0.00     0.014 A 
ENDBRANCH  13  15
ENDBRANCH   6   9
ENDBRANCH   2   5
BRANCH   1  21
HETATM   21  C   UNL     1      23.201  46.075  48.827  1.00  0.00     0.125 C 
HETATM   22  N   UNL     1      22.597  47.191  49.107  1.00  0.00    -0.164 NA
HETATM   23  N   UNL     1      21.539  47.592  48.296  1.00  0.00    -0.200 N 
HETATM   24  C   UNL     1      21.015  46.793  47.269  1.00  0.00     0.245 C 
HETATM   25  C   UNL     1      21.391  45.339  47.379  1.00  0.00     0.111 C 
HETATM   26  O   UNL     1      20.286  47.164  46.351  1.00  0.00    -0.271 OA
HETATM   27  C   UNL     1      22.866  45.214  47.648  1.00  0.00     0.076 C 
BRANCH  23  28
HETATM   28  C   UNL     1      21.102  48.938  48.527  1.00  0.00     0.068 A 
HETATM   29  C   UNL     1      19.798  49.138  49.027  1.00  0.00     0.039 A 
HETATM   30  C   UNL     1      19.312  50.415  49.343  1.00  0.00    -0.060 A 
HETATM   31  C   UNL     1      17.947  50.593  49.941  1.00  0.00     0.048 C 
HETATM   32  C   UNL     1      20.143  51.517  49.161  1.00  0.00     0.007 A 
HETATM   33  C   UNL     1      21.419  51.348  48.624  1.00  0.00     0.009 A 
HETATM   34  C   UNL     1      21.903  50.073  48.273  1.00  0.00    -0.033 A 
HETATM   35  C   UNL     1      23.246  50.033  47.591  1.00  0.00     0.050 C 
ENDBRANCH  23  28
ENDBRANCH   1  21
TORSDOF 5
ENDMDL
MODEL 6
REMARK VINA RESULT:     -10.2      1.952      3.189
REMARK  5 active torsions:
REMARK  status: ('A' for Active; 'I' for Inactive)
REMARK    1  A    between atoms: C_4  and  N_5 
REMARK    2  A    between atoms: C_7  and  C_8 
REMARK       I    between atoms: C_8  and  N_9 
REMARK    3  A    between atoms: N_9  and  N_10 
REMARK       I    between atoms: N_10  and  C_11 
REMARK    4  A    between atoms: C_11  and  C_12 
REMARK    5  A    between atoms: C_16  and  C_17 
ROOT
HETATM    1  C   UNL     1      22.577  45.456  49.155  1.00  0.00     0.286 C 
HETATM    2  N   UNL     1      23.483  46.247  49.822  1.00  0.00    -0.262 N 
HETATM    3  O   UNL     1      22.524  44.236  49.257  1.00  0.00    -0.264 OA
HETATM    4  H   UNL     1      23.514  47.263  49.727  1.00  0.00     0.190 HD
ENDROOT
BRANCH   2   5
HETATM    5  N   UNL     1      24.379  45.610  50.684  1.00  0.00    -0.262 N 
HETATM    6  C   UNL     1      25.101  46.329  51.612  1.00  0.00     0.288 C 
HETATM    7  O   UNL     1      24.956  47.538  51.770  1.00  0.00    -0.264 OA
HETATM    8  H   UNL     1      24.531  44.619  50.519  1.00  0.00     0.190 HD
BRANCH   6   9
HETATM    9  C   UNL     1      26.034  45.545  52.379  1.00  0.00     0.121 A 
HETATM   10  N   UNL     1      26.032  44.178  52.359  1.00  0.00    -0.272 N 
HETATM   11  H   UNL     1      25.405  43.575  51.836  1.00  0.00     0.189 HD
HETATM   12  N   UNL     1      26.986  43.616  53.119  1.00  0.00    -0.174 NA
HETATM   13  C   UNL     1      27.628  44.651  53.684  1.00  0.00     0.089 A 
HETATM   14  C   UNL     1      27.062  45.877  53.239  1.00  0.00     0.071 A 
BRANCH  13  15
HETATM   15  C   UNL     1      28.754  44.464  54.606  1.00  0.00    -0.006 A 
HETATM   16  C   UNL     1      29.523  43.291  54.564  1.00  0.00     0.014 A 
HETATM   17  C   UNL     1      30.611  43.118  55.425  1.00  0.00     0.001 A 
HETATM   18  C   UNL     1      30.939  44.113  56.343  1.00  0.00     0.000 A 
HETATM   19  C   UNL     1      30.182  45.280  56.404  1.00  0.00     0.001 A 
HETATM   20  C   UNL     1      29.095  45.455  55.540  1.00  0.00     0.014 A 
ENDBRANCH  13  15
ENDBRANCH   6   9
ENDBRANCH   2   5
BRANCH   1  21
HETATM   21  C   UNL     1      21.594  46.192  48.259  1.00  0.00     0.125 C 
HETATM   22  N   UNL     1      21.131  47.345  48.637  1.00  0.00    -0.164 NA
HETATM   23  N   UNL     1      20.242  48.008  47.796  1.00  0.00    -0.200 N 
HETATM   24  C   UNL     1      19.727  47.437  46.621  1.00  0.00     0.245 C 
HETATM   25  C   UNL     1      19.873  45.940  46.560  1.00  0.00     0.111 C 
HETATM   26  O   UNL     1      19.169  48.031  45.701  1.00  0.00    -0.271 OA
HETATM   27  C   UNL     1      21.274  45.549  46.945  1.00  0.00     0.076 C 
BRANCH  23  28
HETATM   28  C   UNL     1      19.981  49.367  48.172  1.00  0.00     0.068 A 
HETATM   29  C   UNL     1      18.677  49.702  48.595  1.00  0.00     0.039 A 
HETATM   30  C   UNL     1      18.350  50.990  49.043  1.00  0.00    -0.060 A 
HETATM   31  C   UNL     1      16.975  51.301  49.556  1.00  0.00     0.048 C 
HETATM   32  C   UNL     1      19.344  51.966  49.074  1.00  0.00     0.007 A 
HETATM   33  C   UNL     1      20.627  51.670  48.616  1.00  0.00     0.009 A 
HETATM   34  C   UNL     1      20.955  50.388  48.133  1.00  0.00    -0.033 A 
HETATM   35  C   UNL     1      22.337  50.226  47.554  1.00  0.00     0.050 C 
ENDBRANCH  23  28
ENDBRANCH   1  21
TORSDOF 5
ENDMDL
MODEL 7
REMARK VINA RESULT:     -10.0      1.331      2.026
REMARK  5 active torsions:
REMARK  status: ('A' for Active; 'I' for Inactive)
REMARK    1  A    between atoms: C_4  and  N_5 
REMARK    2  A    between atoms: C_7  and  C_8 
REMARK       I    between atoms: C_8  and  N_9 
REMARK    3  A    between atoms: N_9  and  N_10 
REMARK       I    between atoms: N_10  and  C_11 
REMARK    4  A    between atoms: C_11  and  C_12 
REMARK    5  A    between atoms: C_16  and  C_17 
ROOT
HETATM    1  C   UNL     1      24.332  48.051  49.812  1.00  0.00     0.286 C 
HETATM    2  N   UNL     1      24.055  46.879  50.477  1.00  0.00    -0.262 N 
HETATM    3  O   UNL     1      25.435  48.583  49.787  1.00  0.00    -0.264 OA
HETATM    4  H   UNL     1      23.129  46.447  50.488  1.00  0.00     0.190 HD
ENDROOT
BRANCH   2   5
HETATM    5  N   UNL     1      25.112  46.254  51.144  1.00  0.00    -0.262 N 
HETATM    6  C   UNL     1      24.945  45.021  51.736  1.00  0.00     0.288 C 
HETATM    7  O   UNL     1      23.895  44.388  51.660  1.00  0.00    -0.264 OA
HETATM    8  H   UNL     1      25.963  46.800  51.243  1.00  0.00     0.190 HD
BRANCH   6   9
HETATM    9  C   UNL     1      26.103  44.538  52.444  1.00  0.00     0.121 A 
HETATM   10  N   UNL     1      26.668  43.323  52.180  1.00  0.00    -0.272 N 
HETATM   11  H   UNL     1      26.360  42.641  51.494  1.00  0.00     0.189 HD
HETATM   12  N   UNL     1      27.753  43.048  52.922  1.00  0.00    -0.174 NA
HETATM   13  C   UNL     1      27.895  44.113  53.727  1.00  0.00     0.089 A 
HETATM   14  C   UNL     1      26.881  45.071  53.453  1.00  0.00     0.071 A 
BRANCH  13  15
HETATM   15  C   UNL     1      28.977  44.209  54.714  1.00  0.00    -0.006 A 
HETATM   16  C   UNL     1      29.882  43.151  54.887  1.00  0.00     0.014 A 
HETATM   17  C   UNL     1      30.927  43.246  55.809  1.00  0.00     0.001 A 
HETATM   18  C   UNL     1      31.077  44.399  56.577  1.00  0.00     0.000 A 
HETATM   19  C   UNL     1      30.184  45.456  56.425  1.00  0.00     0.001 A 
HETATM   20  C   UNL     1      29.139  45.362  55.499  1.00  0.00     0.014 A 
ENDBRANCH  13  15
ENDBRANCH   6   9
ENDBRANCH   2   5
BRANCH   1  21
HETATM   21  C   UNL     1      23.165  48.676  49.067  1.00  0.00     0.125 C 
HETATM   22  N   UNL     1      22.218  47.911  48.611  1.00  0.00    -0.164 NA
HETATM   23  N   UNL     1      21.152  48.506  47.942  1.00  0.00    -0.200 N 
HETATM   24  C   UNL     1      21.111  49.873  47.628  1.00  0.00     0.245 C 
HETATM   25  C   UNL     1      22.454  50.551  47.691  1.00  0.00     0.111 C 
HETATM   26  O   UNL     1      20.119  50.519  47.294  1.00  0.00    -0.271 OA
HETATM   27  C   UNL     1      23.157  50.170  48.965  1.00  0.00     0.076 C 
BRANCH  23  28
HETATM   28  C   UNL     1      20.047  47.624  47.698  1.00  0.00     0.068 A 
HETATM   29  C   UNL     1      18.884  47.784  48.481  1.00  0.00     0.039 A 
HETATM   30  C   UNL     1      17.734  47.010  48.267  1.00  0.00    -0.060 A 
HETATM   31  C   UNL     1      16.486  47.248  49.065  1.00  0.00     0.048 C 
HETATM   32  C   UNL     1      17.741  46.060  47.249  1.00  0.00     0.007 A 
HETATM   33  C   UNL     1      18.894  45.853  46.494  1.00  0.00     0.009 A 
HETATM   34  C   UNL     1      20.064  46.602  46.724  1.00  0.00    -0.033 A 
HETATM   35  C   UNL     1      21.280  46.204  45.929  1.00  0.00     0.050 C 
ENDBRANCH  23  28
ENDBRANCH   1  21
TORSDOF 5
ENDMDL
MODEL 8
REMARK VINA RESULT:      -9.8      2.458      3.764
REMARK  5 active torsions:
REMARK  status: ('A' for Active; 'I' for Inactive)
REMARK    1  A    between atoms: C_4  and  N_5 
REMARK    2  A    between atoms: C_7  and  C_8 
REMARK       I    between atoms: C_8  and  N_9 
REMARK    3  A    between atoms: N_9  and  N_10 
REMARK       I    between atoms: N_10  and  C_11 
REMARK    4  A    between atoms: C_11  and  C_12 
REMARK    5  A    between atoms: C_16  and  C_17 
ROOT
HETATM    1  C   UNL     1      24.798  44.984  50.376  1.00  0.00     0.286 C 
HETATM    2  N   UNL     1      26.136  45.046  50.065  1.00  0.00    -0.262 N 
HETATM    3  O   UNL     1      24.362  44.705  51.486  1.00  0.00    -0.264 OA
HETATM    4  H   UNL     1      26.485  45.280  49.134  1.00  0.00     0.190 HD
ENDROOT
BRANCH   2   5
HETATM    5  N   UNL     1      27.047  44.795  51.096  1.00  0.00    -0.262 N 
HETATM    6  C   UNL     1      27.655  43.565  51.219  1.00  0.00     0.288 C 
HETATM    7  O   UNL     1      27.480  42.657  50.410  1.00  0.00    -0.264 OA
HETATM    8  H   UNL     1      27.152  45.532  51.787  1.00  0.00     0.190 HD
BRANCH   6   9
HETATM    9  C   UNL     1      28.512  43.437  52.369  1.00  0.00     0.121 A 
HETATM   10  N   UNL     1      29.404  42.411  52.506  1.00  0.00    -0.272 N 
HETATM   11  H   UNL     1      29.562  41.647  51.856  1.00  0.00     0.189 HD
HETATM   12  N   UNL     1      30.134  42.464  53.632  1.00  0.00    -0.174 NA
HETATM   13  C   UNL     1      29.691  43.554  54.277  1.00  0.00     0.089 A 
HETATM   14  C   UNL     1      28.676  44.194  53.512  1.00  0.00     0.071 A 
BRANCH  13  15
HETATM   15  C   UNL     1      30.235  43.973  55.574  1.00  0.00    -0.006 A 
HETATM   16  C   UNL     1      29.744  45.120  56.216  1.00  0.00     0.014 A 
HETATM   17  C   UNL     1      30.243  45.510  57.462  1.00  0.00     0.001 A 
HETATM   18  C   UNL     1      31.244  44.763  58.078  1.00  0.00     0.000 A 
HETATM   19  C   UNL     1      31.749  43.627  57.451  1.00  0.00     0.001 A 
HETATM   20  C   UNL     1      31.247  43.234  56.206  1.00  0.00     0.014 A 
ENDBRANCH  13  15
ENDBRANCH   6   9
ENDBRANCH   2   5
BRANCH   1  21
HETATM   21  C   UNL     1      23.843  45.303  49.237  1.00  0.00     0.125 C 
HETATM   22  N   UNL     1      23.154  46.403  49.274  1.00  0.00    -0.164 NA
HETATM   23  N   UNL     1      22.294  46.681  48.215  1.00  0.00    -0.200 N 
HETATM   24  C   UNL     1      22.045  45.776  47.173  1.00  0.00     0.245 C 
HETATM   25  C   UNL     1      22.435  44.358  47.494  1.00  0.00     0.111 C 
HETATM   26  O   UNL     1      21.531  46.033  46.086  1.00  0.00    -0.271 OA
HETATM   27  C   UNL     1      23.814  44.333  48.095  1.00  0.00     0.076 C 
BRANCH  23  28
HETATM   28  C   UNL     1      21.770  48.016  48.220  1.00  0.00     0.068 A 
HETATM   29  C   UNL     1      22.685  49.090  48.170  1.00  0.00     0.039 A 
HETATM   30  C   UNL     1      22.260  50.425  48.104  1.00  0.00    -0.060 A 
HETATM   31  C   UNL     1      23.251  51.544  47.979  1.00  0.00     0.048 C 
HETATM   32  C   UNL     1      20.894  50.697  48.085  1.00  0.00     0.007 A 
HETATM   33  C   UNL     1      19.973  49.655  48.180  1.00  0.00     0.009 A 
HETATM   34  C   UNL     1      20.392  48.314  48.280  1.00  0.00    -0.033 A 
HETATM   35  C   UNL     1      19.308  47.290  48.501  1.00  0.00     0.050 C 
ENDBRANCH  23  28
ENDBRANCH   1  21
TORSDOF 5
ENDMDL
MODEL 9
REMARK VINA RESULT:      -9.8      2.302      3.144
REMARK  5 active torsions:
REMARK  status: ('A' for Active; 'I' for Inactive)
REMARK    1  A    between atoms: C_4  and  N_5 
REMARK    2  A    between atoms: C_7  and  C_8 
REMARK       I    between atoms: C_8  and  N_9 
REMARK    3  A    between atoms: N_9  and  N_10 
REMARK       I    between atoms: N_10  and  C_11 
REMARK    4  A    between atoms: C_11  and  C_12 
REMARK    5  A    between atoms: C_16  and  C_17 
ROOT
HETATM    1  C   UNL     1      22.797  48.974  49.380  1.00  0.00     0.286 C 
HETATM    2  N   UNL     1      22.787  47.608  49.549  1.00  0.00    -0.262 N 
HETATM    3  O   UNL     1      23.782  49.681  49.557  1.00  0.00    -0.264 OA
HETATM    4  H   UNL     1      21.958  47.032  49.398  1.00  0.00     0.190 HD
ENDROOT
BRANCH   2   5
HETATM    5  N   UNL     1      23.988  46.999  49.924  1.00  0.00    -0.262 N 
HETATM    6  C   UNL     1      24.109  45.627  49.947  1.00  0.00     0.288 C 
HETATM    7  O   UNL     1      23.204  44.878  49.587  1.00  0.00    -0.264 OA
HETATM    8  H   UNL     1      24.716  47.620  50.265  1.00  0.00     0.190 HD
BRANCH   6   9
HETATM    9  C   UNL     1      25.381  45.148  50.421  1.00  0.00     0.121 A 
HETATM   10  N   UNL     1      26.427  44.894  49.580  1.00  0.00    -0.272 N 
HETATM   11  H   UNL     1      26.440  44.997  48.570  1.00  0.00     0.189 HD
HETATM   12  N   UNL     1      27.542  44.474  50.200  1.00  0.00    -0.174 NA
HETATM   13  C   UNL     1      27.212  44.424  51.500  1.00  0.00     0.089 A 
HETATM   14  C   UNL     1      25.865  44.845  51.678  1.00  0.00     0.071 A 
BRANCH  13  15
HETATM   15  C   UNL     1      28.164  44.001  52.534  1.00  0.00    -0.006 A 
HETATM   16  C   UNL     1      29.129  43.021  52.256  1.00  0.00     0.014 A 
HETATM   17  C   UNL     1      30.052  42.631  53.231  1.00  0.00     0.001 A 
HETATM   18  C   UNL     1      30.017  43.209  54.498  1.00  0.00     0.000 A 
HETATM   19  C   UNL     1      29.060  44.177  54.793  1.00  0.00     0.001 A 
HETATM   20  C   UNL     1      28.138  44.570  53.817  1.00  0.00     0.014 A 
ENDBRANCH  13  15
ENDBRANCH   6   9
ENDBRANCH   2   5
BRANCH   1  21
HETATM   21  C   UNL     1      21.483  49.590  48.933  1.00  0.00     0.125 C 
HETATM   22  N   UNL     1      20.726  48.941  48.101  1.00  0.00    -0.164 NA
HETATM   23  N   UNL     1      19.520  49.519  47.714  1.00  0.00    -0.200 N 
HETATM   24  C   UNL     1      19.141  50.819  48.081  1.00  0.00     0.245 C 
HETATM   25  C   UNL     1      20.285  51.673  48.557  1.00  0.00     0.111 C 
HETATM   26  O   UNL     1      18.010  51.298  48.018  1.00  0.00    -0.271 OA
HETATM   27  C   UNL     1      21.115  50.905  49.550  1.00  0.00     0.076 C 
BRANCH  23  28
HETATM   28  C   UNL     1      18.647  48.633  47.000  1.00  0.00     0.068 A 
HETATM   29  C   UNL     1      18.687  48.654  45.589  1.00  0.00     0.039 A 
HETATM   30  C   UNL     1      17.917  47.776  44.812  1.00  0.00    -0.060 A 
HETATM   31  C   UNL     1      18.030  47.770  43.316  1.00  0.00     0.048 C 
HETATM   32  C   UNL     1      17.092  46.854  45.453  1.00  0.00     0.007 A 
HETATM   33  C   UNL     1      17.002  46.847  46.844  1.00  0.00     0.009 A 
HETATM   34  C   UNL     1      17.747  47.747  47.631  1.00  0.00    -0.033 A 
HETATM   35  C   UNL     1      17.473  47.724  49.113  1.00  0.00     0.050 C 
ENDBRANCH  23  28
ENDBRANCH   1  21
TORSDOF 5
ENDMDL
MODEL 10
REMARK VINA RESULT:      -9.5      2.374      3.388
REMARK  5 active torsions:
REMARK  status: ('A' for Active; 'I' for Inactive)
REMARK    1  A    between atoms: C_4  and  N_5 
REMARK    2  A    between atoms: C_7  and  C_8 
REMARK       I    between atoms: C_8  and  N_9 
REMARK    3  A    between atoms: N_9  and  N_10 
REMARK       I    between atoms: N_10  and  C_11 
REMARK    4  A    between atoms: C_11  and  C_12 
REMARK    5  A    between atoms: C_16  and  C_17 
ROOT
HETATM    1  C   UNL     1      22.448  44.300  49.663  1.00  0.00     0.286 C 
HETATM    2  N   UNL     1      23.447  45.166  50.042  1.00  0.00    -0.262 N 
HETATM    3  O   UNL     1      22.283  43.186  50.147  1.00  0.00    -0.264 OA
HETATM    4  H   UNL     1      23.573  46.091  49.629  1.00  0.00     0.190 HD
ENDROOT
BRANCH   2   5
HETATM    5  N   UNL     1      24.308  44.747  51.061  1.00  0.00    -0.262 N 
HETATM    6  C   UNL     1      25.018  45.661  51.808  1.00  0.00     0.288 C 
HETATM    7  O   UNL     1      24.891  46.874  51.664  1.00  0.00    -0.264 OA
HETATM    8  H   UNL     1      24.445  43.743  51.145  1.00  0.00     0.190 HD
BRANCH   6   9
HETATM    9  C   UNL     1      25.914  45.075  52.772  1.00  0.00     0.121 A 
HETATM   10  N   UNL     1      25.598  43.948  53.475  1.00  0.00    -0.272 N 
HETATM   11  H   UNL     1      24.737  43.412  53.417  1.00  0.00     0.189 HD
HETATM   12  N   UNL     1      26.562  43.534  54.313  1.00  0.00    -0.174 NA
HETATM   13  C   UNL     1      27.545  44.438  54.177  1.00  0.00     0.089 A 
HETATM   14  C   UNL     1      27.176  45.418  53.215  1.00  0.00     0.071 A 
BRANCH  13  15
HETATM   15  C   UNL     1      28.798  44.352  54.936  1.00  0.00    -0.006 A 
HETATM   16  C   UNL     1      29.623  43.222  54.825  1.00  0.00     0.014 A 
HETATM   17  C   UNL     1      30.829  43.145  55.527  1.00  0.00     0.001 A 
HETATM   18  C   UNL     1      31.222  44.194  56.356  1.00  0.00     0.000 A 
HETATM   19  C   UNL     1      30.411  45.318  56.485  1.00  0.00     0.001 A 
HETATM   20  C   UNL     1      29.206  45.398  55.779  1.00  0.00     0.014 A 
ENDBRANCH  13  15
ENDBRANCH   6   9
ENDBRANCH   2   5
BRANCH   1  21
HETATM   21  C   UNL     1      21.511  44.810  48.582  1.00  0.00     0.125 C 
HETATM   22  N   UNL     1      20.755  45.838  48.828  1.00  0.00    -0.164 NA
HETATM   23  N   UNL     1      19.913  46.296  47.819  1.00  0.00    -0.200 N 
HETATM   24  C   UNL     1      19.750  45.630  46.595  1.00  0.00     0.245 C 
HETATM   25  C   UNL     1      20.215  44.199  46.616  1.00  0.00     0.111 C 
HETATM   26  O   UNL     1      19.254  46.092  45.569  1.00  0.00    -0.271 OA
HETATM   27  C   UNL     1      21.575  44.115  47.256  1.00  0.00     0.076 C 
BRANCH  23  28
HETATM   28  C   UNL     1      19.310  47.569  48.092  1.00  0.00     0.068 A 
HETATM   29  C   UNL     1      20.139  48.710  48.100  1.00  0.00     0.039 A 
HETATM   30  C   UNL     1      19.624  50.001  48.292  1.00  0.00    -0.060 A 
HETATM   31  C   UNL     1      20.517  51.204  48.225  1.00  0.00     0.048 C 
HETATM   32  C   UNL     1      18.253  50.158  48.476  1.00  0.00     0.007 A 
HETATM   33  C   UNL     1      17.420  49.041  48.518  1.00  0.00     0.009 A 
HETATM   34  C   UNL     1      17.934  47.739  48.360  1.00  0.00    -0.033 A 
HETATM   35  C   UNL     1      16.956  46.608  48.546  1.00  0.00     0.050 C 
ENDBRANCH  23  28
ENDBRANCH   1  21
TORSDOF 5
ENDMDL
