MODEL 1
REMARK VINA RESULT:      -9.6      0.000      0.000
REMARK  6 active torsions:
REMARK  status: ('A' for Active; 'I' for Inactive)
REMARK    1  A    between atoms: N_3  and  C_4 
REMARK    2  A    between atoms: C_12  and  C_13 
REMARK       I    between atoms: C_13  and  N_14 
REMARK    3  A    between atoms: N_14  and  N_15 
REMARK       I    between atoms: N_15  and  C_16 
REMARK    4  A    between atoms: C_16  and  C_17 
REMARK    5  A    between atoms: C_17  and  C_18 
REMARK    6  A    between atoms: C_23  and  O_24 
ROOT
HETATM    1  C   UNL     1      24.238  48.127  49.684  1.00  0.00     0.272 C 
HETATM    2  N   UNL     1      24.195  47.268  50.766  1.00  0.00    -0.263 N 
HETATM    3  O   UNL     1      25.302  48.571  49.254  1.00  0.00    -0.266 OA
HETATM    4  H   UNL     1      23.350  46.794  51.071  1.00  0.00     0.190 HD
ENDROOT
BRANCH   2   5
HETATM    5  N   UNL     1      25.398  46.802  51.307  1.00  0.00    -0.267 N 
HETATM    6  C   UNL     1      25.376  45.643  52.056  1.00  0.00     0.240 C 
HETATM    7  O   UNL     1      24.348  44.979  52.205  1.00  0.00    -0.272 OA
HETATM    8  H   UNL     1      26.192  47.441  51.282  1.00  0.00     0.190 HD
BRANCH   6   9
HETATM    9  C   UNL     1      26.724  45.205  52.596  1.00  0.00     0.145 C 
BRANCH   9  10
HETATM   10  C   UNL     1      27.078  45.877  53.884  1.00  0.00    -0.021 A 
HETATM   11  C   UNL     1      28.142  45.523  54.776  1.00  0.00     0.001 A 
HETATM   12  C   UNL     1      28.111  46.421  55.841  1.00  0.00     0.043 A 
HETATM   13  C   UNL     1      29.139  44.525  54.772  1.00  0.00     0.051 A 
HETATM   14  C   UNL     1      29.026  46.372  56.898  1.00  0.00     0.033 A 
HETATM   15  N   UNL     1      27.059  47.278  55.620  1.00  0.00    -0.365 N 
HETATM   16  C   UNL     1      30.017  45.382  56.858  1.00  0.00     0.039 A 
HETATM   17  C   UNL     1      30.085  44.474  55.803  1.00  0.00     0.069 A 
HETATM   18  H   UNL     1      26.795  48.034  56.237  1.00  0.00     0.165 HD
HETATM   19  C   UNL     1      26.433  46.962  54.445  1.00  0.00     0.097 A 
BRANCH  17  20
HETATM   20  O   UNL     1      31.013  43.475  55.673  1.00  0.00    -0.356 OA
HETATM   21  C   UNL     1      31.657  43.056  56.870  1.00  0.00     0.210 C 
ENDBRANCH  17  20
ENDBRANCH   9  10
ENDBRANCH   6   9
ENDBRANCH   2   5
BRANCH   1  22
HETATM   22  C   UNL     1      22.930  48.458  49.104  1.00  0.00     0.058 A 
HETATM   23  C   UNL     1      22.186  49.604  49.386  1.00  0.00     0.029 A 
HETATM   24  N   UNL     1      20.972  49.536  48.703  1.00  0.00    -0.319 N 
HETATM   25  C   UNL     1      22.605  50.785  50.207  1.00  0.00     0.070 C 
HETATM   26  C   UNL     1      20.985  48.387  47.918  1.00  0.00     0.014 A 
HETATM   27  C   UNL     1      19.848  47.916  47.074  1.00  0.00     0.068 C 
HETATM   28  C   UNL     1      22.169  47.720  48.160  1.00  0.00     0.044 A 
BRANCH  24  29
HETATM   29  C   UNL     1      19.892  50.462  48.814  1.00  0.00     0.039 A 
HETATM   30  C   UNL     1      18.882  50.243  49.761  1.00  0.00     0.030 A 
HETATM   31  C   UNL     1      17.816  51.139  49.864  1.00  0.00     0.002 A 
HETATM   32  C   UNL     1      17.755  52.253  49.029  1.00  0.00     0.000 A 
HETATM   33  C   UNL     1      18.760  52.475  48.087  1.00  0.00     0.002 A 
HETATM   34  C   UNL     1      19.827  51.581  47.977  1.00  0.00     0.030 A 
ENDBRANCH  24  29
ENDBRANCH   1  22
TORSDOF 6
ENDMDL
MODEL 2
REMARK VINA RESULT:      -9.2      2.392      3.345
REMARK  6 active torsions:
REMARK  status: ('A' for Active; 'I' for Inactive)
REMARK    1  A    between atoms: N_3  and  C_4 
REMARK    2  A    between atoms: C_12  and  C_13 
REMARK       I    between atoms: C_13  and  N_14 
REMARK    3  A    between atoms: N_14  and  N_15 
REMARK       I    between atoms: N_15  and  C_16 
REMARK    4  A    between atoms: C_16  and  C_17 
REMARK    5  A    between atoms: C_17  and  C_18 
REMARK    6  A    between atoms: C_23  and  O_24 
ROOT
HETATM    1  C   UNL     1      23.145  46.175  49.164  1.00  0.00     0.272 C 
HETATM    2  N   UNL     1      23.911  45.976  50.296  1.00  0.00    -0.263 N 
HETATM    3  O   UNL     1      22.762  45.233  48.471  1.00  0.00    -0.266 OA
HETATM    4  H   UNL     1      24.145  46.716  50.951  1.00  0.00     0.190 HD
ENDROOT
BRANCH   2   5
HETATM    5  N   UNL     1      24.155  44.667  50.726  1.00  0.00    -0.267 N 
HETATM    6  C   UNL     1      25.441  44.175  50.634  1.00  0.00     0.240 C 
HETATM    7  O   UNL     1      26.383  44.870  50.249  1.00  0.00    -0.272 OA
HETATM    8  H   UNL     1      23.339  44.082  50.905  1.00  0.00     0.190 HD
BRANCH   6   9
HETATM    9  C   UNL     1      25.618  42.752  51.130  1.00  0.00     0.145 C 
BRANCH   9  10
HETATM   10  C   UNL     1      27.015  42.465  51.581  1.00  0.00    -0.021 A 
HETATM   11  C   UNL     1      27.712  43.082  52.670  1.00  0.00     0.001 A 
HETATM   12  C   UNL     1      28.978  42.506  52.737  1.00  0.00     0.043 A 
HETATM   13  C   UNL     1      27.379  44.075  53.615  1.00  0.00     0.051 A 
HETATM   14  C   UNL     1      29.925  42.869  53.701  1.00  0.00     0.033 A 
HETATM   15  N   UNL     1      29.060  41.586  51.718  1.00  0.00    -0.365 N 
HETATM   16  C   UNL     1      29.560  43.844  54.639  1.00  0.00     0.039 A 
HETATM   17  C   UNL     1      28.298  44.435  54.609  1.00  0.00     0.069 A 
HETATM   18  H   UNL     1      29.872  41.017  51.522  1.00  0.00     0.165 HD
HETATM   19  C   UNL     1      27.884  41.551  51.019  1.00  0.00     0.097 A 
BRANCH  17  20
HETATM   20  O   UNL     1      27.849  45.392  55.480  1.00  0.00    -0.356 OA
HETATM   21  C   UNL     1      28.813  45.930  56.375  1.00  0.00     0.210 C 
ENDBRANCH  17  20
ENDBRANCH   9  10
ENDBRANCH   6   9
ENDBRANCH   2   5
BRANCH   1  22
HETATM   22  C   UNL     1      22.835  47.578  48.865  1.00  0.00     0.058 A 
HETATM   23  C   UNL     1      21.554  48.125  48.784  1.00  0.00     0.029 A 
HETATM   24  N   UNL     1      21.655  49.466  48.412  1.00  0.00    -0.319 N 
HETATM   25  C   UNL     1      20.254  47.458  49.114  1.00  0.00     0.070 C 
HETATM   26  C   UNL     1      23.007  49.791  48.345  1.00  0.00     0.014 A 
HETATM   27  C   UNL     1      23.547  51.117  47.925  1.00  0.00     0.068 C 
HETATM   28  C   UNL     1      23.733  48.648  48.612  1.00  0.00     0.044 A 
BRANCH  24  29
HETATM   29  C   UNL     1      20.568  50.342  48.120  1.00  0.00     0.039 A 
HETATM   30  C   UNL     1      20.238  51.366  49.017  1.00  0.00     0.030 A 
HETATM   31  C   UNL     1      19.165  52.217  48.741  1.00  0.00     0.002 A 
HETATM   32  C   UNL     1      18.424  52.052  47.573  1.00  0.00     0.000 A 
HETATM   33  C   UNL     1      18.751  51.035  46.677  1.00  0.00     0.002 A 
HETATM   34  C   UNL     1      19.821  50.179  46.948  1.00  0.00     0.030 A 
ENDBRANCH  24  29
ENDBRANCH   1  22
TORSDOF 6
ENDMDL
MODEL 3
REMARK VINA RESULT:      -9.2      3.049     11.531
REMARK  6 active torsions:
REMARK  status: ('A' for Active; 'I' for Inactive)
REMARK    1  A    between atoms: N_3  and  C_4 
REMARK    2  A    between atoms: C_12  and  C_13 
REMARK       I    between atoms: C_13  and  N_14 
REMARK    3  A    between atoms: N_14  and  N_15 
REMARK       I    between atoms: N_15  and  C_16 
REMARK    4  A    between atoms: C_16  and  C_17 
REMARK    5  A    between atoms: C_17  and  C_18 
REMARK    6  A    between atoms: C_23  and  O_24 
ROOT
HETATM    1  C   UNL     1      24.311  47.887  49.863  1.00  0.00     0.272 C 
HETATM    2  N   UNL     1      22.951  48.134  49.859  1.00  0.00    -0.263 N 
HETATM    3  O   UNL     1      25.122  48.738  49.500  1.00  0.00    -0.266 OA
HETATM    4  H   UNL     1      22.266  47.500  50.258  1.00  0.00     0.190 HD
ENDROOT
BRANCH   2   5
HETATM    5  N   UNL     1      22.500  49.421  49.547  1.00  0.00    -0.267 N 
HETATM    6  C   UNL     1      21.145  49.616  49.371  1.00  0.00     0.240 C 
HETATM    7  O   UNL     1      20.324  48.712  49.543  1.00  0.00    -0.272 OA
HETATM    8  H   UNL     1      23.206  50.105  49.278  1.00  0.00     0.190 HD
BRANCH   6   9
HETATM    9  C   UNL     1      20.740  51.041  49.045  1.00  0.00     0.145 C 
BRANCH   9  10
HETATM   10  C   UNL     1      19.558  51.114  48.132  1.00  0.00    -0.021 A 
HETATM   11  C   UNL     1      18.279  51.690  48.423  1.00  0.00     0.001 A 
HETATM   12  C   UNL     1      17.487  51.546  47.285  1.00  0.00     0.043 A 
HETATM   13  C   UNL     1      17.721  52.330  49.549  1.00  0.00     0.051 A 
HETATM   14  C   UNL     1      16.170  52.013  47.217  1.00  0.00     0.033 A 
HETATM   15  N   UNL     1      18.245  50.894  46.342  1.00  0.00    -0.365 N 
HETATM   16  C   UNL     1      15.649  52.662  48.344  1.00  0.00     0.039 A 
HETATM   17  C   UNL     1      16.415  52.832  49.496  1.00  0.00     0.069 A 
HETATM   18  H   UNL     1      17.923  50.650  45.416  1.00  0.00     0.165 HD
HETATM   19  C   UNL     1      19.493  50.632  46.839  1.00  0.00     0.097 A 
BRANCH  17  20
HETATM   20  O   UNL     1      15.997  53.452  50.644  1.00  0.00    -0.356 OA
HETATM   21  C   UNL     1      15.229  54.637  50.475  1.00  0.00     0.210 C 
ENDBRANCH  17  20
ENDBRANCH   9  10
ENDBRANCH   6   9
ENDBRANCH   2   5
BRANCH   1  22
HETATM   22  C   UNL     1      24.695  46.548  50.327  1.00  0.00     0.058 A 
HETATM   23  C   UNL     1      25.593  46.276  51.359  1.00  0.00     0.029 A 
HETATM   24  N   UNL     1      25.758  44.894  51.465  1.00  0.00    -0.319 N 
HETATM   25  C   UNL     1      26.237  47.256  52.291  1.00  0.00     0.070 C 
HETATM   26  C   UNL     1      24.896  44.289  50.556  1.00  0.00     0.014 A 
HETATM   27  C   UNL     1      24.804  42.820  50.313  1.00  0.00     0.068 C 
HETATM   28  C   UNL     1      24.249  45.286  49.854  1.00  0.00     0.044 A 
BRANCH  24  29
HETATM   29  C   UNL     1      26.674  44.221  52.326  1.00  0.00     0.039 A 
HETATM   30  C   UNL     1      27.953  43.888  51.860  1.00  0.00     0.030 A 
HETATM   31  C   UNL     1      28.848  43.216  52.696  1.00  0.00     0.002 A 
HETATM   32  C   UNL     1      28.473  42.878  53.994  1.00  0.00     0.000 A 
HETATM   33  C   UNL     1      27.202  43.210  54.462  1.00  0.00     0.002 A 
HETATM   34  C   UNL     1      26.301  43.879  53.631  1.00  0.00     0.030 A 
ENDBRANCH  24  29
ENDBRANCH   1  22
TORSDOF 6
ENDMDL
MODEL 4
REMARK VINA RESULT:      -9.2      2.899      4.064
REMARK  6 active torsions:
REMARK  status: ('A' for Active; 'I' for Inactive)
REMARK    1  A    between atoms: N_3  and  C_4 
REMARK    2  A    between atoms: C_12  and  C_13 
REMARK       I    between atoms: C_13  and  N_14 
REMARK    3  A    between atoms: N_14  and  N_15 
REMARK       I    between atoms: N_15  and  C_16 
REMARK    4  A    between atoms: C_16  and  C_17 
REMARK    5  A    between atoms: C_17  and  C_18 
REMARK    6  A    between atoms: C_23  and  O_24 
ROOT
HETATM    1  C   UNL     1      21.732  47.763  48.369  1.00  0.00     0.272 C 
HETATM    2  N   UNL     1      22.431  47.982  49.540  1.00  0.00    -0.263 N 
HETATM    3  O   UNL     1      22.282  47.318  47.363  1.00  0.00    -0.266 OA
HETATM    4  H   UNL     1      21.989  48.236  50.418  1.00  0.00     0.190 HD
ENDROOT
BRANCH   2   5
HETATM    5  N   UNL     1      23.768  47.575  49.614  1.00  0.00    -0.267 N 
HETATM    6  C   UNL     1      24.753  48.518  49.399  1.00  0.00     0.240 C 
HETATM    7  O   UNL     1      24.493  49.708  49.211  1.00  0.00    -0.272 OA
HETATM    8  H   UNL     1      23.944  46.572  49.633  1.00  0.00     0.190 HD
BRANCH   6   9
HETATM    9  C   UNL     1      26.174  47.996  49.507  1.00  0.00     0.145 C 
BRANCH   9  10
HETATM   10  C   UNL     1      26.251  46.661  50.178  1.00  0.00    -0.021 A 
HETATM   11  C   UNL     1      26.172  46.398  51.584  1.00  0.00     0.001 A 
HETATM   12  C   UNL     1      26.280  45.020  51.759  1.00  0.00     0.043 A 
HETATM   13  C   UNL     1      26.009  47.206  52.729  1.00  0.00     0.051 A 
HETATM   14  C   UNL     1      26.230  44.411  53.017  1.00  0.00     0.033 A 
HETATM   15  N   UNL     1      26.437  44.464  50.511  1.00  0.00    -0.365 N 
HETATM   16  C   UNL     1      26.048  45.237  54.135  1.00  0.00     0.039 A 
HETATM   17  C   UNL     1      25.927  46.618  53.997  1.00  0.00     0.069 A 
HETATM   18  H   UNL     1      26.545  43.475  50.334  1.00  0.00     0.165 HD
HETATM   19  C   UNL     1      26.418  45.440  49.554  1.00  0.00     0.097 A 
BRANCH  17  20
HETATM   20  O   UNL     1      25.745  47.506  55.025  1.00  0.00    -0.356 OA
HETATM   21  C   UNL     1      26.904  48.203  55.465  1.00  0.00     0.210 C 
ENDBRANCH  17  20
ENDBRANCH   9  10
ENDBRANCH   6   9
ENDBRANCH   2   5
BRANCH   1  22
HETATM   22  C   UNL     1      20.305  48.102  48.429  1.00  0.00     0.058 A 
HETATM   23  C   UNL     1      19.773  49.389  48.339  1.00  0.00     0.029 A 
HETATM   24  N   UNL     1      18.390  49.322  48.507  1.00  0.00    -0.319 N 
HETATM   25  C   UNL     1      20.506  50.659  48.031  1.00  0.00     0.070 C 
HETATM   26  C   UNL     1      18.036  47.980  48.613  1.00  0.00     0.014 A 
HETATM   27  C   UNL     1      16.652  47.478  48.858  1.00  0.00     0.068 C 
HETATM   28  C   UNL     1      19.194  47.230  48.573  1.00  0.00     0.044 A 
BRANCH  24  29
HETATM   29  C   UNL     1      17.498  50.432  48.589  1.00  0.00     0.039 A 
HETATM   30  C   UNL     1      16.687  50.757  47.493  1.00  0.00     0.030 A 
HETATM   31  C   UNL     1      15.823  51.851  47.565  1.00  0.00     0.002 A 
HETATM   32  C   UNL     1      15.762  52.620  48.725  1.00  0.00     0.000 A 
HETATM   33  C   UNL     1      16.566  52.299  49.818  1.00  0.00     0.002 A 
HETATM   34  C   UNL     1      17.435  51.207  49.752  1.00  0.00     0.030 A 
ENDBRANCH  24  29
ENDBRANCH   1  22
TORSDOF 6
ENDMDL
MODEL 5
REMARK VINA RESULT:      -9.1      3.111      9.974
REMARK  6 active torsions:
REMARK  status: ('A' for Active; 'I' for Inactive)
REMARK    1  A    between atoms: N_3  and  C_4 
REMARK    2  A    between atoms: C_12  and  C_13 
REMARK       I    between atoms: C_13  and  N_14 
REMARK    3  A    between atoms: N_14  and  N_15 
REMARK       I    between atoms: N_15  and  C_16 
REMARK    4  A    between atoms: C_16  and  C_17 
REMARK    5  A    between atoms: C_17  and  C_18 
REMARK    6  A    between atoms: C_23  and  O_24 
ROOT
HETATM    1  C   UNL     1      24.029  45.064  50.087  1.00  0.00     0.272 C 
HETATM    2  N   UNL     1      22.794  44.531  49.773  1.00  0.00    -0.263 N 
HETATM    3  O   UNL     1      24.287  46.252  49.896  1.00  0.00    -0.266 OA
HETATM    4  H   UNL     1      22.510  43.589  50.023  1.00  0.00     0.190 HD
ENDROOT
BRANCH   2   5
HETATM    5  N   UNL     1      21.778  45.390  49.339  1.00  0.00    -0.267 N 
HETATM    6  C   UNL     1      21.597  45.559  47.981  1.00  0.00     0.240 C 
HETATM    7  O   UNL     1      22.255  44.932  47.149  1.00  0.00    -0.272 OA
HETATM    8  H   UNL     1      21.352  45.992  50.043  1.00  0.00     0.190 HD
BRANCH   6   9
HETATM    9  C   UNL     1      20.470  46.499  47.598  1.00  0.00     0.145 C 
BRANCH   9  10
HETATM   10  C   UNL     1      20.432  47.733  48.442  1.00  0.00    -0.021 A 
HETATM   11  C   UNL     1      21.402  48.786  48.473  1.00  0.00     0.001 A 
HETATM   12  C   UNL     1      20.960  49.736  49.392  1.00  0.00     0.043 A 
HETATM   13  C   UNL     1      22.616  49.026  47.796  1.00  0.00     0.051 A 
HETATM   14  C   UNL     1      21.668  50.911  49.664  1.00  0.00     0.033 A 
HETATM   15  N   UNL     1      19.775  49.274  49.915  1.00  0.00    -0.365 N 
HETATM   16  C   UNL     1      22.861  51.132  48.963  1.00  0.00     0.039 A 
HETATM   17  C   UNL     1      23.328  50.209  48.029  1.00  0.00     0.069 A 
HETATM   18  H   UNL     1      19.229  49.759  50.613  1.00  0.00     0.165 HD
HETATM   19  C   UNL     1      19.447  48.072  49.349  1.00  0.00     0.097 A 
BRANCH  17  20
HETATM   20  O   UNL     1      24.478  50.335  47.295  1.00  0.00    -0.356 OA
HETATM   21  C   UNL     1      25.675  49.894  47.922  1.00  0.00     0.210 C 
ENDBRANCH  17  20
ENDBRANCH   9  10
ENDBRANCH   6   9
ENDBRANCH   2   5
BRANCH   1  22
HETATM   22  C   UNL     1      24.988  44.110  50.656  1.00  0.00     0.058 A 
HETATM   23  C   UNL     1      25.958  44.409  51.614  1.00  0.00     0.029 A 
HETATM   24  N   UNL     1      26.725  43.269  51.855  1.00  0.00    -0.319 N 
HETATM   25  C   UNL     1      26.139  45.697  52.358  1.00  0.00     0.070 C 
HETATM   26  C   UNL     1      26.183  42.223  51.114  1.00  0.00     0.014 A 
HETATM   27  C   UNL     1      26.744  40.842  51.048  1.00  0.00     0.068 C 
HETATM   28  C   UNL     1      25.130  42.725  50.376  1.00  0.00     0.044 A 
BRANCH  24  29
HETATM   29  C   UNL     1      27.881  43.194  52.687  1.00  0.00     0.039 A 
HETATM   30  C   UNL     1      29.155  43.127  52.105  1.00  0.00     0.030 A 
HETATM   31  C   UNL     1      30.288  43.040  52.916  1.00  0.00     0.002 A 
HETATM   32  C   UNL     1      30.157  43.023  54.302  1.00  0.00     0.000 A 
HETATM   33  C   UNL     1      28.892  43.092  54.885  1.00  0.00     0.002 A 
HETATM   34  C   UNL     1      27.754  43.176  54.080  1.00  0.00     0.030 A 
ENDBRANCH  24  29
ENDBRANCH   1  22
TORSDOF 6
ENDMDL
MODEL 6
REMARK VINA RESULT:      -9.0      2.471      9.894
REMARK  6 active torsions:
REMARK  status: ('A' for Active; 'I' for Inactive)
REMARK    1  A    between atoms: N_3  and  C_4 
REMARK    2  A    between atoms: C_12  and  C_13 
REMARK       I    between atoms: C_13  and  N_14 
REMARK    3  A    between atoms: N_14  and  N_15 
REMARK       I    between atoms: N_15  and  C_16 
REMARK    4  A    between atoms: C_16  and  C_17 
REMARK    5  A    between atoms: C_17  and  C_18 
REMARK    6  A    between atoms: C_23  and  O_24 
ROOT
HETATM    1  C   UNL     1      25.212  45.669  51.215  1.00  0.00     0.272 C 
HETATM    2  N   UNL     1      24.097  44.955  50.818  1.00  0.00    -0.263 N 
HETATM    3  O   UNL     1      25.456  46.787  50.763  1.00  0.00    -0.266 OA
HETATM    4  H   UNL     1      23.805  44.086  51.254  1.00  0.00     0.190 HD
ENDROOT
BRANCH   2   5
HETATM    5  N   UNL     1      23.166  45.570  49.974  1.00  0.00    -0.267 N 
HETATM    6  C   UNL     1      23.144  45.203  48.644  1.00  0.00     0.240 C 
HETATM    7  O   UNL     1      23.869  44.312  48.197  1.00  0.00    -0.272 OA
HETATM    8  H   UNL     1      22.685  46.391  50.340  1.00  0.00     0.190 HD
BRANCH   6   9
HETATM    9  C   UNL     1      22.099  45.911  47.802  1.00  0.00     0.145 C 
BRANCH   9  10
HETATM   10  C   UNL     1      21.590  47.163  48.442  1.00  0.00    -0.021 A 
HETATM   11  C   UNL     1      22.245  48.437  48.485  1.00  0.00     0.001 A 
HETATM   12  C   UNL     1      21.408  49.315  49.171  1.00  0.00     0.043 A 
HETATM   13  C   UNL     1      23.472  48.929  47.995  1.00  0.00     0.051 A 
HETATM   14  C   UNL     1      21.736  50.658  49.387  1.00  0.00     0.033 A 
HETATM   15  N   UNL     1      20.294  48.603  49.548  1.00  0.00    -0.365 N 
HETATM   16  C   UNL     1      22.953  51.124  48.872  1.00  0.00     0.039 A 
HETATM   17  C   UNL     1      23.810  50.276  48.172  1.00  0.00     0.069 A 
HETATM   18  H   UNL     1      19.517  48.987  50.068  1.00  0.00     0.165 HD
HETATM   19  C   UNL     1      20.391  47.310  49.113  1.00  0.00     0.097 A 
BRANCH  17  20
HETATM   20  O   UNL     1      25.016  50.637  47.631  1.00  0.00    -0.356 OA
HETATM   21  C   UNL     1      26.145  49.883  48.054  1.00  0.00     0.210 C 
ENDBRANCH  17  20
ENDBRANCH   9  10
ENDBRANCH   6   9
ENDBRANCH   2   5
BRANCH   1  22
HETATM   22  C   UNL     1      26.062  44.992  52.200  1.00  0.00     0.058 A 
HETATM   23  C   UNL     1      26.766  45.617  53.230  1.00  0.00     0.029 A 
HETATM   24  N   UNL     1      27.516  44.661  53.915  1.00  0.00    -0.319 N 
HETATM   25  C   UNL     1      26.700  47.058  53.636  1.00  0.00     0.070 C 
HETATM   26  C   UNL     1      27.217  43.414  53.374  1.00  0.00     0.014 A 
HETATM   27  C   UNL     1      27.851  42.128  53.787  1.00  0.00     0.068 C 
HETATM   28  C   UNL     1      26.339  43.605  52.326  1.00  0.00     0.044 A 
BRANCH  24  29
HETATM   29  C   UNL     1      28.450  44.917  54.962  1.00  0.00     0.039 A 
HETATM   30  C   UNL     1      28.100  45.775  56.014  1.00  0.00     0.030 A 
HETATM   31  C   UNL     1      29.016  46.039  57.034  1.00  0.00     0.002 A 
HETATM   32  C   UNL     1      30.278  45.448  57.011  1.00  0.00     0.000 A 
HETATM   33  C   UNL     1      30.629  44.592  55.967  1.00  0.00     0.002 A 
HETATM   34  C   UNL     1      29.718  44.326  54.943  1.00  0.00     0.030 A 
ENDBRANCH  24  29
ENDBRANCH   1  22
TORSDOF 6
ENDMDL
MODEL 7
REMARK VINA RESULT:      -8.9      2.655      3.860
REMARK  6 active torsions:
REMARK  status: ('A' for Active; 'I' for Inactive)
REMARK    1  A    between atoms: N_3  and  C_4 
REMARK    2  A    between atoms: C_12  and  C_13 
REMARK       I    between atoms: C_13  and  N_14 
REMARK    3  A    between atoms: N_14  and  N_15 
REMARK       I    between atoms: N_15  and  C_16 
REMARK    4  A    between atoms: C_16  and  C_17 
REMARK    5  A    between atoms: C_17  and  C_18 
REMARK    6  A    between atoms: C_23  and  O_24 
ROOT
HETATM    1  C   UNL     1      23.238  49.494  48.348  1.00  0.00     0.272 C 
HETATM    2  N   UNL     1      23.581  48.698  49.424  1.00  0.00    -0.263 N 
HETATM    3  O   UNL     1      24.062  49.808  47.489  1.00  0.00    -0.266 OA
HETATM    4  H   UNL     1      22.904  48.327  50.084  1.00  0.00     0.190 HD
ENDROOT
BRANCH   2   5
HETATM    5  N   UNL     1      24.863  48.139  49.470  1.00  0.00    -0.267 N 
HETATM    6  C   UNL     1      24.978  46.766  49.548  1.00  0.00     0.240 C 
HETATM    7  O   UNL     1      23.996  46.022  49.512  1.00  0.00    -0.272 OA
HETATM    8  H   UNL     1      25.638  48.780  49.637  1.00  0.00     0.190 HD
BRANCH   6   9
HETATM    9  C   UNL     1      26.402  46.245  49.584  1.00  0.00     0.145 C 
BRANCH   9  10
HETATM   10  C   UNL     1      26.610  45.197  50.631  1.00  0.00    -0.021 A 
HETATM   11  C   UNL     1      26.505  45.364  52.050  1.00  0.00     0.001 A 
HETATM   12  C   UNL     1      26.768  44.128  52.637  1.00  0.00     0.043 A 
HETATM   13  C   UNL     1      26.199  46.453  52.892  1.00  0.00     0.051 A 
HETATM   14  C   UNL     1      26.738  43.928  54.022  1.00  0.00     0.033 A 
HETATM   15  N   UNL     1      27.041  43.245  51.620  1.00  0.00    -0.365 N 
HETATM   16  C   UNL     1      26.413  45.023  54.833  1.00  0.00     0.039 A 
HETATM   17  C   UNL     1      26.134  46.271  54.279  1.00  0.00     0.069 A 
HETATM   18  H   UNL     1      27.273  42.270  51.753  1.00  0.00     0.165 HD
HETATM   19  C   UNL     1      26.946  43.875  50.410  1.00  0.00     0.097 A 
BRANCH  17  20
HETATM   20  O   UNL     1      25.806  47.398  54.986  1.00  0.00    -0.356 OA
HETATM   21  C   UNL     1      26.891  48.125  55.549  1.00  0.00     0.210 C 
ENDBRANCH  17  20
ENDBRANCH   9  10
ENDBRANCH   6   9
ENDBRANCH   2   5
BRANCH   1  22
HETATM   22  C   UNL     1      21.836  49.927  48.320  1.00  0.00     0.058 A 
HETATM   23  C   UNL     1      20.746  49.122  47.989  1.00  0.00     0.029 A 
HETATM   24  N   UNL     1      19.587  49.898  48.005  1.00  0.00    -0.319 N 
HETATM   25  C   UNL     1      20.746  47.646  47.734  1.00  0.00     0.070 C 
HETATM   26  C   UNL     1      19.932  51.176  48.434  1.00  0.00     0.014 A 
HETATM   27  C   UNL     1      18.989  52.327  48.535  1.00  0.00     0.068 C 
HETATM   28  C   UNL     1      21.299  51.207  48.622  1.00  0.00     0.044 A 
BRANCH  24  29
HETATM   29  C   UNL     1      18.282  49.469  47.618  1.00  0.00     0.039 A 
HETATM   30  C   UNL     1      17.418  48.918  48.573  1.00  0.00     0.030 A 
HETATM   31  C   UNL     1      16.146  48.484  48.196  1.00  0.00     0.002 A 
HETATM   32  C   UNL     1      15.732  48.600  46.871  1.00  0.00     0.000 A 
HETATM   33  C   UNL     1      16.588  49.150  45.918  1.00  0.00     0.002 A 
HETATM   34  C   UNL     1      17.863  49.583  46.288  1.00  0.00     0.030 A 
ENDBRANCH  24  29
ENDBRANCH   1  22
TORSDOF 6
ENDMDL
MODEL 8
REMARK VINA RESULT:      -8.8      3.069     11.454
REMARK  6 active torsions:
REMARK  status: ('A' for Active; 'I' for Inactive)
REMARK    1  A    between atoms: N_3  and  C_4 
REMARK    2  A    between atoms: C_12  and  C_13 
REMARK       I    between atoms: C_13  and  N_14 
REMARK    3  A    between atoms: N_14  and  N_15 
REMARK       I    between atoms: N_15  and  C_16 
REMARK    4  A    between atoms: C_16  and  C_17 
REMARK    5  A    between atoms: C_17  and  C_18 
REMARK    6  A    between atoms: C_23  and  O_24 
ROOT
HETATM    1  C   UNL     1      24.213  47.955  49.838  1.00  0.00     0.272 C 
HETATM    2  N   UNL     1      22.870  48.277  49.838  1.00  0.00    -0.263 N 
HETATM    3  O   UNL     1      25.065  48.738  49.418  1.00  0.00    -0.266 OA
HETATM    4  H   UNL     1      22.157  47.706  50.281  1.00  0.00     0.190 HD
ENDROOT
BRANCH   2   5
HETATM    5  N   UNL     1      22.485  49.568  49.461  1.00  0.00    -0.267 N 
HETATM    6  C   UNL     1      21.145  49.814  49.236  1.00  0.00     0.240 C 
HETATM    7  O   UNL     1      20.281  48.955  49.420  1.00  0.00    -0.272 OA
HETATM    8  H   UNL     1      23.228  50.209  49.186  1.00  0.00     0.190 HD
BRANCH   6   9
HETATM    9  C   UNL     1      20.814  51.241  48.841  1.00  0.00     0.145 C 
BRANCH   9  10
HETATM   10  C   UNL     1      19.349  51.534  48.901  1.00  0.00    -0.021 A 
HETATM   11  C   UNL     1      18.399  51.396  47.838  1.00  0.00     0.001 A 
HETATM   12  C   UNL     1      17.153  51.768  48.339  1.00  0.00     0.043 A 
HETATM   13  C   UNL     1      18.480  50.977  46.494  1.00  0.00     0.051 A 
HETATM   14  C   UNL     1      15.988  51.741  47.565  1.00  0.00     0.033 A 
HETATM   15  N   UNL     1      17.337  52.138  49.651  1.00  0.00    -0.365 N 
HETATM   16  C   UNL     1      16.095  51.302  46.239  1.00  0.00     0.039 A 
HETATM   17  C   UNL     1      17.323  50.912  45.707  1.00  0.00     0.069 A 
HETATM   18  H   UNL     1      16.601  52.460  50.265  1.00  0.00     0.165 HD
HETATM   19  C   UNL     1      18.652  51.998  50.000  1.00  0.00     0.097 A 
BRANCH  17  20
HETATM   20  O   UNL     1      17.530  50.470  44.427  1.00  0.00    -0.356 OA
HETATM   21  C   UNL     1      16.372  50.064  43.708  1.00  0.00     0.210 C 
ENDBRANCH  17  20
ENDBRANCH   9  10
ENDBRANCH   6   9
ENDBRANCH   2   5
BRANCH   1  22
HETATM   22  C   UNL     1      24.531  46.624  50.371  1.00  0.00     0.058 A 
HETATM   23  C   UNL     1      25.433  46.358  51.401  1.00  0.00     0.029 A 
HETATM   24  N   UNL     1      25.522  44.978  51.582  1.00  0.00    -0.319 N 
HETATM   25  C   UNL     1      26.152  47.350  52.264  1.00  0.00     0.070 C 
HETATM   26  C   UNL     1      24.607  44.374  50.725  1.00  0.00     0.014 A 
HETATM   27  C   UNL     1      24.427  42.901  50.568  1.00  0.00     0.068 C 
HETATM   28  C   UNL     1      24.003  45.366  49.979  1.00  0.00     0.044 A 
BRANCH  24  29
HETATM   29  C   UNL     1      26.416  44.301  52.464  1.00  0.00     0.039 A 
HETATM   30  C   UNL     1      26.010  44.002  53.772  1.00  0.00     0.030 A 
HETATM   31  C   UNL     1      26.887  43.352  54.643  1.00  0.00     0.002 A 
HETATM   32  C   UNL     1      28.164  42.997  54.214  1.00  0.00     0.000 A 
HETATM   33  C   UNL     1      28.570  43.291  52.913  1.00  0.00     0.002 A 
HETATM   34  C   UNL     1      27.699  43.944  52.037  1.00  0.00     0.030 A 
ENDBRANCH  24  29
ENDBRANCH   1  22
TORSDOF 6
ENDMDL
MODEL 9
REMARK VINA RESULT:      -8.8      2.031     11.047
REMARK  6 active torsions:
REMARK  status: ('A' for Active; 'I' for Inactive)
REMARK    1  A    between atoms: N_3  and  C_4 
REMARK    2  A    between atoms: C_12  and  C_13 
REMARK       I    between atoms: C_13  and  N_14 
REMARK    3  A    between atoms: N_14  and  N_15 
REMARK       I    between atoms: N_15  and  C_16 
REMARK    4  A    between atoms: C_16  and  C_17 
REMARK    5  A    between atoms: C_17  and  C_18 
REMARK    6  A    between atoms: C_23  and  O_24 
ROOT
HETATM    1  C   UNL     1      24.812  45.421  51.809  1.00  0.00     0.272 C 
HETATM    2  N   UNL     1      24.606  46.437  50.896  1.00  0.00    -0.263 N 
HETATM    3  O   UNL     1      24.184  44.364  51.751  1.00  0.00    -0.266 OA
HETATM    4  H   UNL     1      25.185  47.270  50.844  1.00  0.00     0.190 HD
ENDROOT
BRANCH   2   5
HETATM    5  N   UNL     1      23.750  46.209  49.812  1.00  0.00    -0.267 N 
HETATM    6  C   UNL     1      23.273  47.299  49.113  1.00  0.00     0.240 C 
HETATM    7  O   UNL     1      23.627  48.451  49.371  1.00  0.00    -0.272 OA
HETATM    8  H   UNL     1      23.371  45.268  49.715  1.00  0.00     0.190 HD
BRANCH   6   9
HETATM    9  C   UNL     1      22.359  46.962  47.949  1.00  0.00     0.145 C 
BRANCH   9  10
HETATM   10  C   UNL     1      20.913  46.951  48.332  1.00  0.00    -0.021 A 
HETATM   11  C   UNL     1      20.100  48.085  48.655  1.00  0.00     0.001 A 
HETATM   12  C   UNL     1      18.819  47.614  48.939  1.00  0.00     0.043 A 
HETATM   13  C   UNL     1      20.331  49.474  48.723  1.00  0.00     0.051 A 
HETATM   14  C   UNL     1      17.761  48.461  49.284  1.00  0.00     0.033 A 
HETATM   15  N   UNL     1      18.853  46.245  48.813  1.00  0.00    -0.365 N 
HETATM   16  C   UNL     1      18.015  49.839  49.326  1.00  0.00     0.039 A 
HETATM   17  C   UNL     1      19.280  50.346  49.038  1.00  0.00     0.069 A 
HETATM   18  H   UNL     1      18.062  45.635  48.965  1.00  0.00     0.165 HD
HETATM   19  C   UNL     1      20.106  45.836  48.445  1.00  0.00     0.097 A 
BRANCH  17  20
HETATM   20  O   UNL     1      19.626  51.672  49.050  1.00  0.00    -0.356 OA
HETATM   21  C   UNL     1      18.683  52.572  48.483  1.00  0.00     0.210 C 
ENDBRANCH  17  20
ENDBRANCH   9  10
ENDBRANCH   6   9
ENDBRANCH   2   5
BRANCH   1  22
HETATM   22  C   UNL     1      25.823  45.706  52.834  1.00  0.00     0.058 A 
HETATM   23  C   UNL     1      26.961  44.939  53.085  1.00  0.00     0.029 A 
HETATM   24  N   UNL     1      27.642  45.480  54.176  1.00  0.00    -0.319 N 
HETATM   25  C   UNL     1      27.465  43.769  52.297  1.00  0.00     0.070 C 
HETATM   26  C   UNL     1      26.982  46.644  54.559  1.00  0.00     0.014 A 
HETATM   27  C   UNL     1      27.359  47.496  55.724  1.00  0.00     0.068 C 
HETATM   28  C   UNL     1      25.870  46.787  53.753  1.00  0.00     0.044 A 
BRANCH  24  29
HETATM   29  C   UNL     1      28.793  44.923  54.809  1.00  0.00     0.039 A 
HETATM   30  C   UNL     1      29.532  45.696  55.715  1.00  0.00     0.030 A 
HETATM   31  C   UNL     1      30.666  45.159  56.327  1.00  0.00     0.002 A 
HETATM   32  C   UNL     1      31.064  43.855  56.041  1.00  0.00     0.000 A 
HETATM   33  C   UNL     1      30.329  43.082  55.143  1.00  0.00     0.002 A 
HETATM   34  C   UNL     1      29.195  43.614  54.525  1.00  0.00     0.030 A 
ENDBRANCH  24  29
ENDBRANCH   1  22
TORSDOF 6
ENDMDL
MODEL 10
REMARK VINA RESULT:      -8.8      2.110     10.578
REMARK  6 active torsions:
REMARK  status: ('A' for Active; 'I' for Inactive)
REMARK    1  A    between atoms: N_3  and  C_4 
REMARK    2  A    between atoms: C_12  and  C_13 
REMARK       I    between atoms: C_13  and  N_14 
REMARK    3  A    between atoms: N_14  and  N_15 
REMARK       I    between atoms: N_15  and  C_16 
REMARK    4  A    between atoms: C_16  and  C_17 
REMARK    5  A    between atoms: C_17  and  C_18 
REMARK    6  A    between atoms: C_23  and  O_24 
ROOT
HETATM    1  C   UNL     1      25.888  46.243  51.971  1.00  0.00     0.272 C 
HETATM    2  N   UNL     1      24.843  45.503  51.452  1.00  0.00    -0.263 N 
HETATM    3  O   UNL     1      26.070  47.417  51.651  1.00  0.00    -0.266 OA
HETATM    4  H   UNL     1      24.597  44.574  51.780  1.00  0.00     0.190 HD
ENDROOT
BRANCH   2   5
HETATM    5  N   UNL     1      23.904  46.142  50.635  1.00  0.00    -0.267 N 
HETATM    6  C   UNL     1      23.866  45.812  49.295  1.00  0.00     0.240 C 
HETATM    7  O   UNL     1      24.584  44.932  48.817  1.00  0.00    -0.272 OA
HETATM    8  H   UNL     1      23.428  46.954  51.028  1.00  0.00     0.190 HD
BRANCH   6   9
HETATM    9  C   UNL     1      22.813  46.544  48.485  1.00  0.00     0.145 C 
BRANCH   9  10
HETATM   10  C   UNL     1      22.823  48.020  48.721  1.00  0.00    -0.021 A 
HETATM   11  C   UNL     1      21.700  48.849  49.044  1.00  0.00     0.001 A 
HETATM   12  C   UNL     1      22.170  50.154  49.185  1.00  0.00     0.043 A 
HETATM   13  C   UNL     1      20.325  48.609  49.240  1.00  0.00     0.051 A 
HETATM   14  C   UNL     1      21.334  51.226  49.514  1.00  0.00     0.033 A 
HETATM   15  N   UNL     1      23.522  50.128  48.939  1.00  0.00    -0.365 N 
HETATM   16  C   UNL     1      19.975  50.955  49.722  1.00  0.00     0.039 A 
HETATM   17  C   UNL     1      19.473  49.661  49.599  1.00  0.00     0.069 A 
HETATM   18  H   UNL     1      24.126  50.938  48.966  1.00  0.00     0.165 HD
HETATM   19  C   UNL     1      23.927  48.850  48.662  1.00  0.00     0.097 A 
BRANCH  17  20
HETATM   20  O   UNL     1      18.165  49.296  49.784  1.00  0.00    -0.356 OA
HETATM   21  C   UNL     1      17.826  47.965  49.415  1.00  0.00     0.210 C 
ENDBRANCH  17  20
ENDBRANCH   9  10
ENDBRANCH   6   9
ENDBRANCH   2   5
BRANCH   1  22
HETATM   22  C   UNL     1      26.746  45.521  52.918  1.00  0.00     0.058 A 
HETATM   23  C   UNL     1      27.294  46.055  54.085  1.00  0.00     0.029 A 
HETATM   24  N   UNL     1      28.108  45.094  54.686  1.00  0.00    -0.319 N 
HETATM   25  C   UNL     1      27.022  47.399  54.689  1.00  0.00     0.070 C 
HETATM   26  C   UNL     1      28.004  43.921  53.946  1.00  0.00     0.014 A 
HETATM   27  C   UNL     1      28.763  42.666  54.222  1.00  0.00     0.068 C 
HETATM   28  C   UNL     1      27.183  44.171  52.864  1.00  0.00     0.044 A 
BRANCH  24  29
HETATM   29  C   UNL     1      28.928  45.289  55.837  1.00  0.00     0.039 A 
HETATM   30  C   UNL     1      30.232  44.775  55.857  1.00  0.00     0.030 A 
HETATM   31  C   UNL     1      31.034  44.951  56.987  1.00  0.00     0.002 A 
HETATM   32  C   UNL     1      30.542  45.639  58.094  1.00  0.00     0.000 A 
HETATM   33  C   UNL     1      29.246  46.153  58.076  1.00  0.00     0.002 A 
HETATM   34  C   UNL     1      28.437  45.978  56.951  1.00  0.00     0.030 A 
ENDBRANCH  24  29
ENDBRANCH   1  22
TORSDOF 6
ENDMDL
