MODEL 1
REMARK VINA RESULT:      -6.6      0.000      0.000
REMARK  2 active torsions:
REMARK  status: ('A' for Active; 'I' for Inactive)
REMARK    1  A    between atoms: N_6  and  C_7 
REMARK    2  A    between atoms: C_12  and  N_13 
ROOT
HETATM    1  C   UNL     1      30.547  52.350  40.924  1.00  0.00     0.070 A 
HETATM    2  C   UNL     1      31.001  52.327  42.265  1.00  0.00     0.162 A 
HETATM    3  F   UNL     1      30.174  52.743  43.241  1.00  0.00    -0.202 F 
HETATM    4  C   UNL     1      32.297  51.928  42.623  1.00  0.00     0.084 A 
HETATM    5 BR   UNL     1      32.764  51.917  44.463  1.00  0.00    -0.045 Br
HETATM    6  C   UNL     1      33.167  51.542  41.611  1.00  0.00     0.123 A 
HETATM    7  C   UNL     1      32.767  51.532  40.273  1.00  0.00     0.040 A 
HETATM    8  C   UNL     1      31.467  51.929  39.944  1.00  0.00     0.035 A 
ENDROOT
BRANCH   1   9
HETATM    9  N   UNL     1      29.250  52.708  40.537  1.00  0.00    -0.375 N 
HETATM   10  C   UNL     1      28.107  52.055  41.211  1.00  0.00     0.150 C 
HETATM   11  C   UNL     1      27.564  50.881  40.363  1.00  0.00     0.254 C 
HETATM   12  N   UNL     1      27.226  51.349  38.947  1.00  0.00    -0.072 N 
HETATM   13  C   UNL     1      26.659  50.241  38.111  1.00  0.00     0.269 C 
HETATM   14  H   UNL     1      26.502  52.075  39.030  1.00  0.00     0.279 HD
HETATM   15  C   UNL     1      28.441  52.003  38.281  1.00  0.00     0.254 C 
HETATM   16  C   UNL     1      28.968  53.159  39.158  1.00  0.00     0.150 C 
ENDBRANCH   1   9
BRANCH   6  17
HETATM   17  N   UNL     1      34.525  51.147  41.905  1.00  0.00    -0.114 N 
HETATM   18  O   UNL     1      35.351  52.056  42.051  1.00  0.00    -0.532 OA
HETATM   19  O   UNL     1      34.757  49.932  41.934  1.00  0.00    -0.532 OA
ENDBRANCH   6  17
TORSDOF 2
ENDMDL
MODEL 2
REMARK VINA RESULT:      -6.6     14.031     14.797
REMARK  2 active torsions:
REMARK  status: ('A' for Active; 'I' for Inactive)
REMARK    1  A    between atoms: N_6  and  C_7 
REMARK    2  A    between atoms: C_12  and  N_13 
ROOT
HETATM    1  C   UNL     1      27.426  44.485  53.077  1.00  0.00     0.070 A 
HETATM    2  C   UNL     1      28.511  43.792  53.667  1.00  0.00     0.162 A 
HETATM    3  F   UNL     1      28.905  42.623  53.131  1.00  0.00    -0.202 F 
HETATM    4  C   UNL     1      29.169  44.247  54.818  1.00  0.00     0.084 A 
HETATM    5 BR   UNL     1      30.627  43.233  55.487  1.00  0.00    -0.045 Br
HETATM    6  C   UNL     1      28.731  45.431  55.399  1.00  0.00     0.123 A 
HETATM    7  C   UNL     1      27.676  46.163  54.850  1.00  0.00     0.040 A 
HETATM    8  C   UNL     1      27.039  45.689  53.698  1.00  0.00     0.035 A 
ENDROOT
BRANCH   1   9
HETATM    9  N   UNL     1      26.771  44.077  51.909  1.00  0.00    -0.375 N 
HETATM   10  C   UNL     1      27.281  44.562  50.608  1.00  0.00     0.150 C 
HETATM   11  C   UNL     1      26.466  45.779  50.115  1.00  0.00     0.254 C 
HETATM   12  N   UNL     1      24.973  45.451  50.078  1.00  0.00    -0.072 N 
HETATM   13  C   UNL     1      24.158  46.601  49.566  1.00  0.00     0.269 C 
HETATM   14  H   UNL     1      24.848  44.668  49.423  1.00  0.00     0.279 HD
HETATM   15  C   UNL     1      24.484  44.970  51.449  1.00  0.00     0.254 C 
HETATM   16  C   UNL     1      25.327  43.765  51.919  1.00  0.00     0.150 C 
ENDBRANCH   1   9
BRANCH   6  17
HETATM   17  N   UNL     1      29.345  45.944  56.602  1.00  0.00    -0.114 N 
HETATM   18  O   UNL     1      30.527  46.300  56.515  1.00  0.00    -0.532 OA
HETATM   19  O   UNL     1      28.654  45.933  57.627  1.00  0.00    -0.532 OA
ENDBRANCH   6  17
TORSDOF 2
ENDMDL
MODEL 3
REMARK VINA RESULT:      -6.5     13.900     14.608
REMARK  2 active torsions:
REMARK  status: ('A' for Active; 'I' for Inactive)
REMARK    1  A    between atoms: N_6  and  C_7 
REMARK    2  A    between atoms: C_12  and  N_13 
ROOT
HETATM    1  C   UNL     1      26.746  45.659  53.060  1.00  0.00     0.070 A 
HETATM    2  C   UNL     1      27.678  44.633  53.353  1.00  0.00     0.162 A 
HETATM    3  F   UNL     1      27.702  43.535  52.577  1.00  0.00    -0.202 F 
HETATM    4  C   UNL     1      28.553  44.690  54.446  1.00  0.00     0.084 A 
HETATM    5 BR   UNL     1      29.772  43.258  54.704  1.00  0.00    -0.045 Br
HETATM    6  C   UNL     1      28.496  45.804  55.275  1.00  0.00     0.123 A 
HETATM    7  C   UNL     1      27.607  46.851  55.024  1.00  0.00     0.040 A 
HETATM    8  C   UNL     1      26.747  46.772  53.923  1.00  0.00     0.035 A 
ENDROOT
BRANCH   1   9
HETATM    9  N   UNL     1      25.883  45.650  51.957  1.00  0.00    -0.375 N 
HETATM   10  C   UNL     1      24.696  44.769  51.997  1.00  0.00     0.150 C 
HETATM   11  C   UNL     1      24.964  43.447  51.243  1.00  0.00     0.254 C 
HETATM   12  N   UNL     1      25.444  43.726  49.818  1.00  0.00    -0.072 N 
HETATM   13  C   UNL     1      25.675  42.462  49.046  1.00  0.00     0.269 C 
HETATM   14  H   UNL     1      24.697  44.248  49.340  1.00  0.00     0.279 HD
HETATM   15  C   UNL     1      26.684  44.627  49.824  1.00  0.00     0.254 C 
HETATM   16  C   UNL     1      26.389  45.930  50.597  1.00  0.00     0.150 C 
ENDBRANCH   1   9
BRANCH   6  17
HETATM   17  N   UNL     1      29.350  45.915  56.435  1.00  0.00    -0.114 N 
HETATM   18  O   UNL     1      28.789  45.967  57.536  1.00  0.00    -0.532 OA
HETATM   19  O   UNL     1      30.565  46.003  56.225  1.00  0.00    -0.532 OA
ENDBRANCH   6  17
TORSDOF 2
ENDMDL
MODEL 4
REMARK VINA RESULT:      -6.5     13.716     14.467
REMARK  2 active torsions:
REMARK  status: ('A' for Active; 'I' for Inactive)
REMARK    1  A    between atoms: N_6  and  C_7 
REMARK    2  A    between atoms: C_12  and  N_13 
ROOT
HETATM    1  C   UNL     1      27.283  44.550  52.769  1.00  0.00     0.070 A 
HETATM    2  C   UNL     1      26.939  45.778  53.385  1.00  0.00     0.162 A 
HETATM    3  F   UNL     1      26.012  46.561  52.804  1.00  0.00    -0.202 F 
HETATM    4  C   UNL     1      27.554  46.240  54.557  1.00  0.00     0.084 A 
HETATM    5 BR   UNL     1      26.975  47.892  55.292  1.00  0.00    -0.045 Br
HETATM    6  C   UNL     1      28.545  45.454  55.131  1.00  0.00     0.123 A 
HETATM    7  C   UNL     1      28.913  44.227  54.574  1.00  0.00     0.040 A 
HETATM    8  C   UNL     1      28.279  43.786  53.407  1.00  0.00     0.035 A 
ENDROOT
BRANCH   1   9
HETATM    9  N   UNL     1      26.663  44.044  51.620  1.00  0.00    -0.375 N 
HETATM   10  C   UNL     1      27.098  44.553  50.301  1.00  0.00     0.150 C 
HETATM   11  C   UNL     1      26.143  45.658  49.795  1.00  0.00     0.254 C 
HETATM   12  N   UNL     1      24.697  45.162  49.789  1.00  0.00    -0.072 N 
HETATM   13  C   UNL     1      23.749  46.199  49.265  1.00  0.00     0.269 C 
HETATM   14  H   UNL     1      24.654  44.354  49.153  1.00  0.00     0.279 HD
HETATM   15  C   UNL     1      24.283  44.659  51.177  1.00  0.00     0.254 C 
HETATM   16  C   UNL     1      25.264  43.569  51.659  1.00  0.00     0.150 C 
ENDBRANCH   1   9
BRANCH   6  17
HETATM   17  N   UNL     1      29.240  45.881  56.323  1.00  0.00    -0.114 N 
HETATM   18  O   UNL     1      30.458  46.074  56.219  1.00  0.00    -0.532 OA
HETATM   19  O   UNL     1      28.569  45.967  57.358  1.00  0.00    -0.532 OA
ENDBRANCH   6  17
TORSDOF 2
ENDMDL
MODEL 5
REMARK VINA RESULT:      -6.4     12.000     13.241
REMARK  2 active torsions:
REMARK  status: ('A' for Active; 'I' for Inactive)
REMARK    1  A    between atoms: N_6  and  C_7 
REMARK    2  A    between atoms: C_12  and  N_13 
ROOT
HETATM    1  C   UNL     1      24.975  46.000  49.996  1.00  0.00     0.070 A 
HETATM    2  C   UNL     1      23.713  46.343  49.452  1.00  0.00     0.162 A 
HETATM    3  F   UNL     1      22.767  45.392  49.352  1.00  0.00    -0.202 F 
HETATM    4  C   UNL     1      23.416  47.625  48.968  1.00  0.00     0.084 A 
HETATM    5 BR   UNL     1      21.673  47.954  48.292  1.00  0.00    -0.045 Br
HETATM    6  C   UNL     1      24.409  48.595  49.028  1.00  0.00     0.123 A 
HETATM    7  C   UNL     1      25.666  48.316  49.568  1.00  0.00     0.040 A 
HETATM    8  C   UNL     1      25.935  47.030  50.049  1.00  0.00     0.035 A 
ENDROOT
BRANCH   1   9
HETATM    9  N   UNL     1      25.293  44.742  50.519  1.00  0.00    -0.375 N 
HETATM   10  C   UNL     1      24.907  44.440  51.914  1.00  0.00     0.150 C 
HETATM   11  C   UNL     1      26.099  44.653  52.875  1.00  0.00     0.254 C 
HETATM   12  N   UNL     1      27.316  43.851  52.413  1.00  0.00    -0.072 N 
HETATM   13  C   UNL     1      28.479  44.006  53.347  1.00  0.00     0.269 C 
HETATM   14  H   UNL     1      27.047  42.858  52.416  1.00  0.00     0.279 HD
HETATM   15  C   UNL     1      27.691  44.207  50.969  1.00  0.00     0.254 C 
HETATM   16  C   UNL     1      26.477  43.997  50.040  1.00  0.00     0.150 C 
ENDBRANCH   1   9
BRANCH   6  17
HETATM   17  N   UNL     1      24.180  49.929  48.523  1.00  0.00    -0.114 N 
HETATM   18  O   UNL     1      24.529  50.150  47.356  1.00  0.00    -0.532 OA
HETATM   19  O   UNL     1      23.704  50.750  49.315  1.00  0.00    -0.532 OA
ENDBRANCH   6  17
TORSDOF 2
ENDMDL
MODEL 6
REMARK VINA RESULT:      -6.3     11.487     12.719
REMARK  2 active torsions:
REMARK  status: ('A' for Active; 'I' for Inactive)
REMARK    1  A    between atoms: N_6  and  C_7 
REMARK    2  A    between atoms: C_12  and  N_13 
ROOT
HETATM    1  C   UNL     1      21.010  50.068  48.767  1.00  0.00     0.070 A 
HETATM    2  C   UNL     1      21.630  48.803  48.912  1.00  0.00     0.162 A 
HETATM    3  F   UNL     1      20.867  47.734  49.201  1.00  0.00    -0.202 F 
HETATM    4  C   UNL     1      23.016  48.619  48.810  1.00  0.00     0.084 A 
HETATM    5 BR   UNL     1      23.710  46.862  48.997  1.00  0.00    -0.045 Br
HETATM    6  C   UNL     1      23.809  49.731  48.557  1.00  0.00     0.123 A 
HETATM    7  C   UNL     1      23.249  51.000  48.390  1.00  0.00     0.040 A 
HETATM    8  C   UNL     1      21.862  51.156  48.492  1.00  0.00     0.035 A 
ENDROOT
BRANCH   1   9
HETATM    9  N   UNL     1      19.628  50.281  48.827  1.00  0.00    -0.375 N 
HETATM   10  C   UNL     1      18.931  50.035  50.108  1.00  0.00     0.150 C 
HETATM   11  C   UNL     1      18.273  48.636  50.119  1.00  0.00     0.254 C 
HETATM   12  N   UNL     1      17.359  48.460  48.907  1.00  0.00    -0.072 N 
HETATM   13  C   UNL     1      16.674  47.126  48.909  1.00  0.00     0.269 C 
HETATM   14  H   UNL     1      16.628  49.182  48.967  1.00  0.00     0.279 HD
HETATM   15  C   UNL     1      18.124  48.707  47.601  1.00  0.00     0.254 C 
HETATM   16  C   UNL     1      18.780  50.104  47.629  1.00  0.00     0.150 C 
ENDBRANCH   1   9
BRANCH   6  17
HETATM   17  N   UNL     1      25.246  49.619  48.467  1.00  0.00    -0.114 N 
HETATM   18  O   UNL     1      25.830  49.146  49.450  1.00  0.00    -0.532 OA
HETATM   19  O   UNL     1      25.775  50.053  47.437  1.00  0.00    -0.532 OA
ENDBRANCH   6  17
TORSDOF 2
ENDMDL
MODEL 7
REMARK VINA RESULT:      -6.3      2.015      2.560
REMARK  2 active torsions:
REMARK  status: ('A' for Active; 'I' for Inactive)
REMARK    1  A    between atoms: N_6  and  C_7 
REMARK    2  A    between atoms: C_12  and  N_13 
ROOT
HETATM    1  C   UNL     1      31.190  51.269  42.048  1.00  0.00     0.070 A 
HETATM    2  C   UNL     1      32.026  51.406  40.913  1.00  0.00     0.162 A 
HETATM    3  F   UNL     1      31.469  51.405  39.689  1.00  0.00    -0.202 F 
HETATM    4  C   UNL     1      33.422  51.499  41.004  1.00  0.00     0.084 A 
HETATM    5 BR   UNL     1      34.420  51.709  39.403  1.00  0.00    -0.045 Br
HETATM    6  C   UNL     1      34.002  51.453  42.266  1.00  0.00     0.123 A 
HETATM    7  C   UNL     1      33.223  51.334  43.419  1.00  0.00     0.040 A 
HETATM    8  C   UNL     1      31.832  51.248  43.301  1.00  0.00     0.035 A 
ENDROOT
BRANCH   1   9
HETATM    9  N   UNL     1      29.792  51.208  41.994  1.00  0.00    -0.375 N 
HETATM   10  C   UNL     1      29.154  49.924  41.634  1.00  0.00     0.150 C 
HETATM   11  C   UNL     1      28.774  49.897  40.136  1.00  0.00     0.254 C 
HETATM   12  N   UNL     1      27.910  51.106  39.777  1.00  0.00    -0.072 N 
HETATM   13  C   UNL     1      27.491  51.088  38.337  1.00  0.00     0.269 C 
HETATM   14  H   UNL     1      27.056  51.052  40.347  1.00  0.00     0.279 HD
HETATM   15  C   UNL     1      28.615  52.415  40.150  1.00  0.00     0.254 C 
HETATM   16  C   UNL     1      28.994  52.403  41.647  1.00  0.00     0.150 C 
ENDBRANCH   1   9
BRANCH   6  17
HETATM   17  N   UNL     1      35.435  51.517  42.431  1.00  0.00    -0.114 N 
HETATM   18  O   UNL     1      36.047  50.442  42.404  1.00  0.00    -0.532 OA
HETATM   19  O   UNL     1      35.923  52.634  42.639  1.00  0.00    -0.532 OA
ENDBRANCH   6  17
TORSDOF 2
ENDMDL
MODEL 8
REMARK VINA RESULT:      -6.2     10.594     11.767
REMARK  2 active torsions:
REMARK  status: ('A' for Active; 'I' for Inactive)
REMARK    1  A    between atoms: N_6  and  C_7 
REMARK    2  A    between atoms: C_12  and  N_13 
ROOT
HETATM    1  C   UNL     1      22.769  49.329  48.390  1.00  0.00     0.070 A 
HETATM    2  C   UNL     1      24.086  49.828  48.244  1.00  0.00     0.162 A 
HETATM    3  F   UNL     1      24.287  50.928  47.498  1.00  0.00    -0.202 F 
HETATM    4  C   UNL     1      25.205  49.199  48.809  1.00  0.00     0.084 A 
HETATM    5 BR   UNL     1      26.911  49.993  48.559  1.00  0.00    -0.045 Br
HETATM    6  C   UNL     1      25.003  48.035  49.541  1.00  0.00     0.123 A 
HETATM    7  C   UNL     1      23.724  47.508  49.729  1.00  0.00     0.040 A 
HETATM    8  C   UNL     1      22.624  48.157  49.159  1.00  0.00     0.035 A 
ENDROOT
BRANCH   1   9
HETATM    9  N   UNL     1      21.628  49.951  47.870  1.00  0.00    -0.375 N 
HETATM   10  C   UNL     1      21.272  51.299  48.363  1.00  0.00     0.150 C 
HETATM   11  C   UNL     1      20.189  51.215  49.463  1.00  0.00     0.254 C 
HETATM   12  N   UNL     1      18.975  50.430  48.966  1.00  0.00    -0.072 N 
HETATM   13  C   UNL     1      17.888  50.365  49.997  1.00  0.00     0.269 C 
HETATM   14  H   UNL     1      18.598  50.932  48.151  1.00  0.00     0.279 HD
HETATM   15  C   UNL     1      19.386  49.035  48.480  1.00  0.00     0.254 C 
HETATM   16  C   UNL     1      20.478  49.153  47.396  1.00  0.00     0.150 C 
ENDBRANCH   1   9
BRANCH   6  17
HETATM   17  N   UNL     1      26.113  47.321  50.127  1.00  0.00    -0.114 N 
HETATM   18  O   UNL     1      26.400  47.601  51.298  1.00  0.00    -0.532 OA
HETATM   19  O   UNL     1      26.716  46.529  49.393  1.00  0.00    -0.532 OA
ENDBRANCH   6  17
TORSDOF 2
ENDMDL
MODEL 9
REMARK VINA RESULT:      -6.2      2.261      2.590
REMARK  2 active torsions:
REMARK  status: ('A' for Active; 'I' for Inactive)
REMARK    1  A    between atoms: N_6  and  C_7 
REMARK    2  A    between atoms: C_12  and  N_13 
ROOT
HETATM    1  C   UNL     1      30.264  50.916  41.187  1.00  0.00     0.070 A 
HETATM    2  C   UNL     1      31.496  50.883  41.884  1.00  0.00     0.162 A 
HETATM    3  F   UNL     1      31.523  50.393  43.136  1.00  0.00    -0.202 F 
HETATM    4  C   UNL     1      32.690  51.382  41.344  1.00  0.00     0.084 A 
HETATM    5 BR   UNL     1      34.276  51.248  42.378  1.00  0.00    -0.045 Br
HETATM    6  C   UNL     1      32.654  51.931  40.068  1.00  0.00     0.123 A 
HETATM    7  C   UNL     1      31.469  51.975  39.329  1.00  0.00     0.040 A 
HETATM    8  C   UNL     1      30.293  51.466  39.890  1.00  0.00     0.035 A 
ENDROOT
BRANCH   1   9
HETATM    9  N   UNL     1      29.063  50.395  41.682  1.00  0.00    -0.375 N 
HETATM   10  C   UNL     1      28.993  48.949  41.984  1.00  0.00     0.150 C 
HETATM   11  C   UNL     1      28.338  48.173  40.818  1.00  0.00     0.254 C 
HETATM   12  N   UNL     1      26.974  48.771  40.471  1.00  0.00    -0.072 N 
HETATM   13  C   UNL     1      26.294  48.015  39.369  1.00  0.00     0.269 C 
HETATM   14  H   UNL     1      26.383  48.692  41.309  1.00  0.00     0.279 HD
HETATM   15  C   UNL     1      27.095  50.265  40.149  1.00  0.00     0.254 C 
HETATM   16  C   UNL     1      27.766  51.006  41.325  1.00  0.00     0.150 C 
ENDBRANCH   1   9
BRANCH   6  17
HETATM   17  N   UNL     1      33.840  52.488  39.461  1.00  0.00    -0.114 N 
HETATM   18  O   UNL     1      34.017  53.705  39.598  1.00  0.00    -0.532 OA
HETATM   19  O   UNL     1      34.550  51.711  38.811  1.00  0.00    -0.532 OA
ENDBRANCH   6  17
TORSDOF 2
ENDMDL
MODEL 10
REMARK VINA RESULT:      -6.1      2.882      3.483
REMARK  2 active torsions:
REMARK  status: ('A' for Active; 'I' for Inactive)
REMARK    1  A    between atoms: N_6  and  C_7 
REMARK    2  A    between atoms: C_12  and  N_13 
ROOT
HETATM    1  C   UNL     1      30.017  49.099  41.430  1.00  0.00     0.070 A 
HETATM    2  C   UNL     1      30.068  50.481  41.125  1.00  0.00     0.162 A 
HETATM    3  F   UNL     1      29.282  50.962  40.146  1.00  0.00    -0.202 F 
HETATM    4  C   UNL     1      30.939  51.371  41.770  1.00  0.00     0.084 A 
HETATM    5 BR   UNL     1      30.883  53.204  41.282  1.00  0.00    -0.045 Br
HETATM    6  C   UNL     1      31.785  50.866  42.750  1.00  0.00     0.123 A 
HETATM    7  C   UNL     1      31.765  49.514  43.101  1.00  0.00     0.040 A 
HETATM    8  C   UNL     1      30.883  48.648  42.445  1.00  0.00     0.035 A 
ENDROOT
BRANCH   1   9
HETATM    9  N   UNL     1      29.135  48.191  40.830  1.00  0.00    -0.375 N 
HETATM   10  C   UNL     1      29.467  47.668  39.488  1.00  0.00     0.150 C 
HETATM   11  C   UNL     1      28.713  48.451  38.389  1.00  0.00     0.254 C 
HETATM   12  N   UNL     1      27.209  48.457  38.665  1.00  0.00    -0.072 N 
HETATM   13  C   UNL     1      26.445  49.176  37.594  1.00  0.00     0.269 C 
HETATM   14  H   UNL     1      26.894  47.478  38.664  1.00  0.00     0.279 HD
HETATM   15  C   UNL     1      26.909  49.022  40.058  1.00  0.00     0.254 C 
HETATM   16  C   UNL     1      27.688  48.229  41.129  1.00  0.00     0.150 C 
ENDBRANCH   1   9
BRANCH   6  17
HETATM   17  N   UNL     1      32.726  51.720  43.435  1.00  0.00    -0.114 N 
HETATM   18  O   UNL     1      33.778  51.982  42.838  1.00  0.00    -0.532 OA
HETATM   19  O   UNL     1      32.425  52.074  44.581  1.00  0.00    -0.532 OA
ENDBRANCH   6  17
TORSDOF 2
ENDMDL
