MODEL 1
REMARK VINA RESULT:     -10.0      0.000      0.000
REMARK  5 active torsions:
REMARK  status: ('A' for Active; 'I' for Inactive)
REMARK    1  A    between atoms: C_5  and  N_6 
REMARK    2  A    between atoms: C_7  and  N_8 
REMARK    3  A    between atoms: N_8  and  N_9 
REMARK    4  A    between atoms: N_13  and  C_14 
REMARK    5  A    between atoms: C_14  and  N_15 
ROOT
HETATM    1  N   UNL     1      26.288  45.993  50.706  1.00  0.00    -0.166 NA
HETATM    2  C   UNL     1      25.590  46.827  50.007  1.00  0.00     0.157 A 
HETATM    3  C   UNL     1      24.123  46.765  49.592  1.00  0.00     0.281 A 
HETATM    4  O   UNL     1      23.363  45.876  49.926  1.00  0.00    -0.265 OA
HETATM    5  N   UNL     1      23.907  47.895  48.826  1.00  0.00    -0.284 N 
HETATM    6  C   UNL     1      26.120  48.063  49.446  1.00  0.00     0.027 A 
HETATM    7  C   UNL     1      25.079  48.675  48.753  1.00  0.00     0.052 A 
HETATM    8  C   UNL     1      25.288  49.884  48.118  1.00  0.00     0.031 A 
HETATM    9  C   UNL     1      26.565  50.456  48.190  1.00  0.00     0.002 A 
HETATM   10  C   UNL     1      27.607  49.822  48.896  1.00  0.00     0.001 A 
HETATM   11  C   UNL     1      27.388  48.604  49.538  1.00  0.00     0.016 A 
ENDROOT
BRANCH   1  12
HETATM   12  N   UNL     1      25.676  44.866  51.182  1.00  0.00    -0.252 N 
HETATM   13  H   UNL     1      24.822  44.974  51.726  1.00  0.00     0.191 HD
BRANCH  12  14
HETATM   14  C   UNL     1      26.329  43.662  51.169  1.00  0.00     0.192 C 
HETATM   15  N   UNL     1      27.385  43.459  52.006  1.00  0.00    -0.332 N 
HETATM   16  H   UNL     1      27.857  42.598  51.761  1.00  0.00     0.168 HD
HETATM   17  S   UNL     1      25.958  42.377  50.144  1.00  0.00    -0.039 SA
BRANCH  15  18
HETATM   18  C   UNL     1      27.857  44.092  53.179  1.00  0.00     0.040 A 
HETATM   19  C   UNL     1      29.106  43.669  53.714  1.00  0.00    -0.029 A 
HETATM   20  C   UNL     1      29.565  44.211  54.941  1.00  0.00    -0.054 A 
HETATM   21  C   UNL     1      29.926  42.616  53.000  1.00  0.00     0.051 C 
HETATM   22  C   UNL     1      30.847  43.761  55.589  1.00  0.00     0.049 C 
HETATM   23  C   UNL     1      28.807  45.199  55.583  1.00  0.00     0.007 A 
HETATM   24  C   UNL     1      27.591  45.613  55.054  1.00  0.00     0.003 A 
HETATM   25  C   UNL     1      27.109  45.048  53.873  1.00  0.00     0.030 A 
ENDBRANCH  15  18
ENDBRANCH  12  14
ENDBRANCH   1  12
BRANCH   5  26
HETATM   26  C   UNL     1      22.629  48.270  48.279  1.00  0.00     0.405 C 
BRANCH  26  27
HETATM   27  N   UNL     1      21.771  48.821  49.329  1.00  0.00     0.106 N 
HETATM   28  C   UNL     1      22.023  50.246  49.597  1.00  0.00     0.274 C 
HETATM   29  C   UNL     1      21.490  51.193  48.517  1.00  0.00     0.030 C 
HETATM   30  C   UNL     1      20.015  50.935  48.228  1.00  0.00     0.003 C 
HETATM   31  C   UNL     1      19.768  49.457  47.947  1.00  0.00     0.030 C 
HETATM   32  C   UNL     1      20.347  48.584  49.061  1.00  0.00     0.274 C 
ENDBRANCH  26  27
ENDBRANCH   5  26
TORSDOF 5
ENDMDL
MODEL 2
REMARK VINA RESULT:      -9.7      2.142      8.933
REMARK  5 active torsions:
REMARK  status: ('A' for Active; 'I' for Inactive)
REMARK    1  A    between atoms: C_5  and  N_6 
REMARK    2  A    between atoms: C_7  and  N_8 
REMARK    3  A    between atoms: N_8  and  N_9 
REMARK    4  A    between atoms: N_13  and  C_14 
REMARK    5  A    between atoms: C_14  and  N_15 
ROOT
HETATM    1  N   UNL     1      25.036  47.532  51.757  1.00  0.00    -0.166 NA
HETATM    2  C   UNL     1      25.881  46.632  52.143  1.00  0.00     0.157 A 
HETATM    3  C   UNL     1      26.386  45.390  51.413  1.00  0.00     0.281 A 
HETATM    4  O   UNL     1      26.061  45.094  50.280  1.00  0.00    -0.265 OA
HETATM    5  N   UNL     1      27.246  44.766  52.298  1.00  0.00    -0.284 N 
HETATM    6  C   UNL     1      26.546  46.641  53.440  1.00  0.00     0.027 A 
HETATM    7  C   UNL     1      27.359  45.512  53.488  1.00  0.00     0.052 A 
HETATM    8  C   UNL     1      28.127  45.261  54.609  1.00  0.00     0.031 A 
HETATM    9  C   UNL     1      28.053  46.166  55.677  1.00  0.00     0.002 A 
HETATM   10  C   UNL     1      27.225  47.303  55.610  1.00  0.00     0.001 A 
HETATM   11  C   UNL     1      26.455  47.553  54.474  1.00  0.00     0.016 A 
ENDROOT
BRANCH   1  12
HETATM   12  N   UNL     1      24.480  47.415  50.514  1.00  0.00    -0.252 N 
HETATM   13  H   UNL     1      23.886  46.609  50.325  1.00  0.00     0.191 HD
BRANCH  12  14
HETATM   14  C   UNL     1      24.920  48.196  49.479  1.00  0.00     0.192 C 
HETATM   15  N   UNL     1      24.030  48.659  48.558  1.00  0.00    -0.332 N 
HETATM   16  H   UNL     1      24.525  49.071  47.777  1.00  0.00     0.168 HD
HETATM   17  S   UNL     1      26.529  48.618  49.209  1.00  0.00    -0.039 SA
BRANCH  15  18
HETATM   18  C   UNL     1      22.624  48.806  48.523  1.00  0.00     0.040 A 
HETATM   19  C   UNL     1      22.086  50.124  48.523  1.00  0.00    -0.029 A 
HETATM   20  C   UNL     1      20.683  50.310  48.588  1.00  0.00    -0.054 A 
HETATM   21  C   UNL     1      23.007  51.325  48.494  1.00  0.00     0.051 C 
HETATM   22  C   UNL     1      20.055  51.678  48.652  1.00  0.00     0.049 C 
HETATM   23  C   UNL     1      19.839  49.192  48.596  1.00  0.00     0.007 A 
HETATM   24  C   UNL     1      20.368  47.907  48.589  1.00  0.00     0.003 A 
HETATM   25  C   UNL     1      21.750  47.716  48.577  1.00  0.00     0.030 A 
ENDBRANCH  15  18
ENDBRANCH  12  14
ENDBRANCH   1  12
BRANCH   5  26
HETATM   26  C   UNL     1      28.002  43.580  51.990  1.00  0.00     0.405 C 
BRANCH  26  27
HETATM   27  N   UNL     1      27.196  42.385  52.247  1.00  0.00     0.106 N 
HETATM   28  C   UNL     1      26.765  41.701  51.018  1.00  0.00     0.274 C 
HETATM   29  C   UNL     1      27.878  40.926  50.305  1.00  0.00     0.030 C 
HETATM   30  C   UNL     1      28.586  39.967  51.255  1.00  0.00     0.003 C 
HETATM   31  C   UNL     1      29.034  40.689  52.520  1.00  0.00     0.030 C 
HETATM   32  C   UNL     1      27.870  41.450  53.157  1.00  0.00     0.274 C 
ENDBRANCH  26  27
ENDBRANCH   5  26
TORSDOF 5
ENDMDL
MODEL 3
REMARK VINA RESULT:      -9.5      2.131      3.578
REMARK  5 active torsions:
REMARK  status: ('A' for Active; 'I' for Inactive)
REMARK    1  A    between atoms: C_5  and  N_6 
REMARK    2  A    between atoms: C_7  and  N_8 
REMARK    3  A    between atoms: N_8  and  N_9 
REMARK    4  A    between atoms: N_13  and  C_14 
REMARK    5  A    between atoms: C_14  and  N_15 
ROOT
HETATM    1  N   UNL     1      25.980  45.141  51.618  1.00  0.00    -0.166 NA
HETATM    2  C   UNL     1      25.120  45.597  50.766  1.00  0.00     0.157 A 
HETATM    3  C   UNL     1      24.886  47.027  50.287  1.00  0.00     0.281 A 
HETATM    4  O   UNL     1      25.555  47.978  50.643  1.00  0.00    -0.265 OA
HETATM    5  N   UNL     1      23.823  46.952  49.405  1.00  0.00    -0.284 N 
HETATM    6  C   UNL     1      24.148  44.769  50.067  1.00  0.00     0.027 A 
HETATM    7  C   UNL     1      23.397  45.617  49.257  1.00  0.00     0.052 A 
HETATM    8  C   UNL     1      22.393  45.103  48.460  1.00  0.00     0.031 A 
HETATM    9  C   UNL     1      22.159  43.721  48.501  1.00  0.00     0.002 A 
HETATM   10  C   UNL     1      22.928  42.877  49.326  1.00  0.00     0.001 A 
HETATM   11  C   UNL     1      23.943  43.403  50.126  1.00  0.00     0.016 A 
ENDROOT
BRANCH   1  12
HETATM   12  N   UNL     1      26.844  46.020  52.208  1.00  0.00    -0.252 N 
HETATM   13  H   UNL     1      27.690  46.279  51.702  1.00  0.00     0.191 HD
BRANCH  12  14
HETATM   14  C   UNL     1      26.725  46.325  53.539  1.00  0.00     0.192 C 
HETATM   15  N   UNL     1      27.340  45.540  54.467  1.00  0.00    -0.332 N 
HETATM   16  H   UNL     1      27.022  45.793  55.395  1.00  0.00     0.168 HD
HETATM   17  S   UNL     1      25.819  47.605  54.155  1.00  0.00    -0.039 SA
BRANCH  15  18
HETATM   18  C   UNL     1      28.383  44.587  54.427  1.00  0.00     0.040 A 
HETATM   19  C   UNL     1      29.376  44.635  55.446  1.00  0.00    -0.029 A 
HETATM   20  C   UNL     1      30.490  43.760  55.383  1.00  0.00    -0.054 A 
HETATM   21  C   UNL     1      29.269  45.642  56.570  1.00  0.00     0.051 C 
HETATM   22  C   UNL     1      31.604  43.802  56.396  1.00  0.00     0.049 C 
HETATM   23  C   UNL     1      30.569  42.819  54.348  1.00  0.00     0.007 A 
HETATM   24  C   UNL     1      29.593  42.772  53.360  1.00  0.00     0.003 A 
HETATM   25  C   UNL     1      28.522  43.664  53.386  1.00  0.00     0.030 A 
ENDBRANCH  15  18
ENDBRANCH  12  14
ENDBRANCH   1  12
BRANCH   5  26
HETATM   26  C   UNL     1      23.308  48.072  48.662  1.00  0.00     0.405 C 
BRANCH  26  27
HETATM   27  N   UNL     1      22.315  48.794  49.460  1.00  0.00     0.106 N 
HETATM   28  C   UNL     1      22.537  50.249  49.485  1.00  0.00     0.274 C 
HETATM   29  C   UNL     1      22.167  50.965  48.182  1.00  0.00     0.030 C 
HETATM   30  C   UNL     1      20.745  50.628  47.745  1.00  0.00     0.003 C 
HETATM   31  C   UNL     1      20.530  49.119  47.717  1.00  0.00     0.030 C 
HETATM   32  C   UNL     1      20.941  48.482  49.045  1.00  0.00     0.274 C 
ENDBRANCH  26  27
ENDBRANCH   5  26
TORSDOF 5
ENDMDL
MODEL 4
REMARK VINA RESULT:      -9.5      4.757      7.666
REMARK  5 active torsions:
REMARK  status: ('A' for Active; 'I' for Inactive)
REMARK    1  A    between atoms: C_5  and  N_6 
REMARK    2  A    between atoms: C_7  and  N_8 
REMARK    3  A    between atoms: N_8  and  N_9 
REMARK    4  A    between atoms: N_13  and  C_14 
REMARK    5  A    between atoms: C_14  and  N_15 
ROOT
HETATM    1  N   UNL     1      25.589  44.360  52.302  1.00  0.00    -0.166 NA
HETATM    2  C   UNL     1      25.584  43.314  51.542  1.00  0.00     0.157 A 
HETATM    3  C   UNL     1      26.524  42.111  51.533  1.00  0.00     0.281 A 
HETATM    4  O   UNL     1      27.435  41.958  52.323  1.00  0.00    -0.265 OA
HETATM    5  N   UNL     1      26.086  41.309  50.494  1.00  0.00    -0.284 N 
HETATM    6  C   UNL     1      24.616  43.083  50.478  1.00  0.00     0.027 A 
HETATM    7  C   UNL     1      24.948  41.870  49.882  1.00  0.00     0.052 A 
HETATM    8  C   UNL     1      24.188  41.383  48.835  1.00  0.00     0.031 A 
HETATM    9  C   UNL     1      23.096  42.147  48.402  1.00  0.00     0.002 A 
HETATM   10  C   UNL     1      22.775  43.373  49.017  1.00  0.00     0.001 A 
HETATM   11  C   UNL     1      23.544  43.856  50.075  1.00  0.00     0.016 A 
ENDROOT
BRANCH   1  12
HETATM   12  N   UNL     1      26.549  44.462  53.269  1.00  0.00    -0.252 N 
HETATM   13  H   UNL     1      26.874  43.607  53.720  1.00  0.00     0.191 HD
BRANCH  12  14
HETATM   14  C   UNL     1      26.864  45.680  53.811  1.00  0.00     0.192 C 
HETATM   15  N   UNL     1      27.850  45.766  54.747  1.00  0.00    -0.332 N 
HETATM   16  H   UNL     1      27.848  46.688  55.166  1.00  0.00     0.168 HD
HETATM   17  S   UNL     1      26.086  47.128  53.441  1.00  0.00    -0.039 SA
BRANCH  15  18
HETATM   18  C   UNL     1      28.918  44.928  55.143  1.00  0.00     0.040 A 
HETATM   19  C   UNL     1      29.508  45.151  56.419  1.00  0.00    -0.029 A 
HETATM   20  C   UNL     1      30.643  44.396  56.810  1.00  0.00    -0.054 A 
HETATM   21  C   UNL     1      28.955  46.215  57.342  1.00  0.00     0.051 C 
HETATM   22  C   UNL     1      31.349  44.626  58.120  1.00  0.00     0.049 C 
HETATM   23  C   UNL     1      31.136  43.401  55.956  1.00  0.00     0.007 A 
HETATM   24  C   UNL     1      30.552  43.183  54.714  1.00  0.00     0.003 A 
HETATM   25  C   UNL     1      29.467  43.956  54.301  1.00  0.00     0.030 A 
ENDBRANCH  15  18
ENDBRANCH  12  14
ENDBRANCH   1  12
BRANCH   5  26
HETATM   26  C   UNL     1      26.654  40.027  50.168  1.00  0.00     0.405 C 
BRANCH  26  27
HETATM   27  N   UNL     1      28.017  40.191  49.660  1.00  0.00     0.106 N 
HETATM   28  C   UNL     1      28.894  39.051  49.969  1.00  0.00     0.274 C 
HETATM   29  C   UNL     1      28.618  37.800  49.129  1.00  0.00     0.030 C 
HETATM   30  C   UNL     1      28.625  38.116  47.638  1.00  0.00     0.003 C 
HETATM   31  C   UNL     1      27.708  39.295  47.330  1.00  0.00     0.030 C 
HETATM   32  C   UNL     1      28.038  40.492  48.223  1.00  0.00     0.274 C 
ENDBRANCH  26  27
ENDBRANCH   5  26
TORSDOF 5
ENDMDL
MODEL 5
REMARK VINA RESULT:      -9.3      2.061      9.187
REMARK  5 active torsions:
REMARK  status: ('A' for Active; 'I' for Inactive)
REMARK    1  A    between atoms: C_5  and  N_6 
REMARK    2  A    between atoms: C_7  and  N_8 
REMARK    3  A    between atoms: N_8  and  N_9 
REMARK    4  A    between atoms: N_13  and  C_14 
REMARK    5  A    between atoms: C_14  and  N_15 
ROOT
HETATM    1  N   UNL     1      24.095  45.444  49.778  1.00  0.00    -0.166 NA
HETATM    2  C   UNL     1      24.843  44.632  50.449  1.00  0.00     0.157 A 
HETATM    3  C   UNL     1      25.651  44.875  51.722  1.00  0.00     0.281 A 
HETATM    4  O   UNL     1      25.658  45.930  52.326  1.00  0.00    -0.265 OA
HETATM    5  N   UNL     1      26.292  43.679  51.986  1.00  0.00    -0.284 N 
HETATM    6  C   UNL     1      25.071  43.240  50.082  1.00  0.00     0.027 A 
HETATM    7  C   UNL     1      25.937  42.705  51.032  1.00  0.00     0.052 A 
HETATM    8  C   UNL     1      26.327  41.383  50.944  1.00  0.00     0.031 A 
HETATM    9  C   UNL     1      25.832  40.617  49.880  1.00  0.00     0.002 A 
HETATM   10  C   UNL     1      24.956  41.175  48.928  1.00  0.00     0.001 A 
HETATM   11  C   UNL     1      24.563  42.510  49.025  1.00  0.00     0.016 A 
ENDROOT
BRANCH   1  12
HETATM   12  N   UNL     1      23.957  46.728  50.225  1.00  0.00    -0.252 N 
HETATM   13  H   UNL     1      23.242  46.922  50.925  1.00  0.00     0.191 HD
BRANCH  12  14
HETATM   14  C   UNL     1      24.561  47.764  49.562  1.00  0.00     0.192 C 
HETATM   15  N   UNL     1      23.826  48.548  48.725  1.00  0.00    -0.332 N 
HETATM   16  H   UNL     1      24.440  49.151  48.191  1.00  0.00     0.168 HD
HETATM   17  S   UNL     1      26.200  48.145  49.661  1.00  0.00    -0.039 SA
BRANCH  15  18
HETATM   18  C   UNL     1      22.444  48.788  48.549  1.00  0.00     0.040 A 
HETATM   19  C   UNL     1      21.992  50.138  48.550  1.00  0.00    -0.029 A 
HETATM   20  C   UNL     1      20.603  50.414  48.475  1.00  0.00    -0.054 A 
HETATM   21  C   UNL     1      22.983  51.276  48.670  1.00  0.00     0.051 C 
HETATM   22  C   UNL     1      20.058  51.817  48.532  1.00  0.00     0.049 C 
HETATM   23  C   UNL     1      19.697  49.354  48.345  1.00  0.00     0.007 A 
HETATM   24  C   UNL     1      20.143  48.039  48.338  1.00  0.00     0.003 A 
HETATM   25  C   UNL     1      21.504  47.757  48.463  1.00  0.00     0.030 A 
ENDBRANCH  15  18
ENDBRANCH  12  14
ENDBRANCH   1  12
BRANCH   5  26
HETATM   26  C   UNL     1      27.116  43.442  53.143  1.00  0.00     0.405 C 
BRANCH  26  27
HETATM   27  N   UNL     1      28.344  44.234  53.061  1.00  0.00     0.106 N 
HETATM   28  C   UNL     1      28.752  44.809  54.353  1.00  0.00     0.274 C 
HETATM   29  C   UNL     1      29.347  43.794  55.334  1.00  0.00     0.030 C 
HETATM   30  C   UNL     1      30.483  43.002  54.696  1.00  0.00     0.003 C 
HETATM   31  C   UNL     1      30.046  42.406  53.362  1.00  0.00     0.030 C 
HETATM   32  C   UNL     1      29.448  43.481  52.453  1.00  0.00     0.274 C 
ENDBRANCH  26  27
ENDBRANCH   5  26
TORSDOF 5
ENDMDL
MODEL 6
REMARK VINA RESULT:      -9.2      2.072      8.385
REMARK  5 active torsions:
REMARK  status: ('A' for Active; 'I' for Inactive)
REMARK    1  A    between atoms: C_5  and  N_6 
REMARK    2  A    between atoms: C_7  and  N_8 
REMARK    3  A    between atoms: N_8  and  N_9 
REMARK    4  A    between atoms: N_13  and  C_14 
REMARK    5  A    between atoms: C_14  and  N_15 
ROOT
HETATM    1  N   UNL     1      22.766  47.691  48.611  1.00  0.00    -0.166 NA
HETATM    2  C   UNL     1      23.911  47.468  49.168  1.00  0.00     0.157 A 
HETATM    3  C   UNL     1      24.345  46.326  50.082  1.00  0.00     0.281 A 
HETATM    4  O   UNL     1      23.626  45.395  50.390  1.00  0.00    -0.265 OA
HETATM    5  N   UNL     1      25.659  46.599  50.416  1.00  0.00    -0.284 N 
HETATM    6  C   UNL     1      25.074  48.333  49.016  1.00  0.00     0.027 A 
HETATM    7  C   UNL     1      26.099  47.773  49.773  1.00  0.00     0.052 A 
HETATM    8  C   UNL     1      27.340  48.379  49.811  1.00  0.00     0.031 A 
HETATM    9  C   UNL     1      27.521  49.561  49.079  1.00  0.00     0.002 A 
HETATM   10  C   UNL     1      26.472  50.113  48.319  1.00  0.00     0.001 A 
HETATM   11  C   UNL     1      25.223  49.494  48.281  1.00  0.00     0.016 A 
ENDROOT
BRANCH   1  12
HETATM   12  N   UNL     1      21.749  46.804  48.828  1.00  0.00    -0.252 N 
HETATM   13  H   UNL     1      21.862  46.111  49.566  1.00  0.00     0.191 HD
BRANCH  12  14
HETATM   14  C   UNL     1      20.739  46.666  47.912  1.00  0.00     0.192 C 
HETATM   15  N   UNL     1      19.595  47.391  48.058  1.00  0.00    -0.332 N 
HETATM   16  H   UNL     1      18.892  47.057  47.410  1.00  0.00     0.168 HD
HETATM   17  S   UNL     1      20.769  45.612  46.598  1.00  0.00    -0.039 SA
BRANCH  15  18
HETATM   18  C   UNL     1      19.239  48.547  48.790  1.00  0.00     0.040 A 
HETATM   19  C   UNL     1      19.214  49.794  48.103  1.00  0.00    -0.029 A 
HETATM   20  C   UNL     1      18.958  50.988  48.824  1.00  0.00    -0.054 A 
HETATM   21  C   UNL     1      19.498  49.855  46.618  1.00  0.00     0.051 C 
HETATM   22  C   UNL     1      18.978  52.343  48.168  1.00  0.00     0.049 C 
HETATM   23  C   UNL     1      18.678  50.918  50.195  1.00  0.00     0.007 A 
HETATM   24  C   UNL     1      18.698  49.698  50.859  1.00  0.00     0.003 A 
HETATM   25  C   UNL     1      18.999  48.525  50.167  1.00  0.00     0.030 A 
ENDBRANCH  15  18
ENDBRANCH  12  14
ENDBRANCH   1  12
BRANCH   5  26
HETATM   26  C   UNL     1      26.486  45.736  51.218  1.00  0.00     0.405 C 
BRANCH  26  27
HETATM   27  N   UNL     1      25.855  45.495  52.517  1.00  0.00     0.106 N 
HETATM   28  C   UNL     1      26.482  44.399  53.273  1.00  0.00     0.274 C 
HETATM   29  C   UNL     1      27.843  44.752  53.881  1.00  0.00     0.030 C 
HETATM   30  C   UNL     1      27.769  46.027  54.712  1.00  0.00     0.003 C 
HETATM   31  C   UNL     1      27.125  47.157  53.917  1.00  0.00     0.030 C 
HETATM   32  C   UNL     1      25.782  46.716  53.330  1.00  0.00     0.274 C 
ENDBRANCH  26  27
ENDBRANCH   5  26
TORSDOF 5
ENDMDL
MODEL 7
REMARK VINA RESULT:      -9.1      2.248      9.008
REMARK  5 active torsions:
REMARK  status: ('A' for Active; 'I' for Inactive)
REMARK    1  A    between atoms: C_5  and  N_6 
REMARK    2  A    between atoms: C_7  and  N_8 
REMARK    3  A    between atoms: N_8  and  N_9 
REMARK    4  A    between atoms: N_13  and  C_14 
REMARK    5  A    between atoms: C_14  and  N_15 
ROOT
HETATM    1  N   UNL     1      23.465  47.288  49.601  1.00  0.00    -0.166 NA
HETATM    2  C   UNL     1      24.236  46.426  50.178  1.00  0.00     0.157 A 
HETATM    3  C   UNL     1      25.468  46.650  51.052  1.00  0.00     0.281 A 
HETATM    4  O   UNL     1      25.882  47.748  51.368  1.00  0.00    -0.265 OA
HETATM    5  N   UNL     1      25.927  45.385  51.373  1.00  0.00    -0.284 N 
HETATM    6  C   UNL     1      24.059  44.983  50.087  1.00  0.00     0.027 A 
HETATM    7  C   UNL     1      25.087  44.398  50.821  1.00  0.00     0.052 A 
HETATM    8  C   UNL     1      25.168  43.023  50.923  1.00  0.00     0.031 A 
HETATM    9  C   UNL     1      24.199  42.253  50.265  1.00  0.00     0.002 A 
HETATM   10  C   UNL     1      23.166  42.862  49.525  1.00  0.00     0.001 A 
HETATM   11  C   UNL     1      23.087  44.251  49.431  1.00  0.00     0.016 A 
ENDROOT
BRANCH   1  12
HETATM   12  N   UNL     1      23.734  48.618  49.763  1.00  0.00    -0.252 N 
HETATM   13  H   UNL     1      23.484  49.057  50.649  1.00  0.00     0.191 HD
BRANCH  12  14
HETATM   14  C   UNL     1      24.068  49.397  48.687  1.00  0.00     0.192 C 
HETATM   15  N   UNL     1      23.084  49.945  47.921  1.00  0.00    -0.332 N 
HETATM   16  H   UNL     1      23.484  50.345  47.081  1.00  0.00     0.168 HD
HETATM   17  S   UNL     1      25.644  49.715  48.182  1.00  0.00    -0.039 SA
BRANCH  15  18
HETATM   18  C   UNL     1      21.704  50.189  48.105  1.00  0.00     0.040 A 
HETATM   19  C   UNL     1      20.784  49.180  47.699  1.00  0.00    -0.029 A 
HETATM   20  C   UNL     1      19.391  49.428  47.777  1.00  0.00    -0.054 A 
HETATM   21  C   UNL     1      21.288  47.863  47.150  1.00  0.00     0.051 C 
HETATM   22  C   UNL     1      18.369  48.426  47.308  1.00  0.00     0.049 C 
HETATM   23  C   UNL     1      18.935  50.643  48.305  1.00  0.00     0.007 A 
HETATM   24  C   UNL     1      19.836  51.622  48.705  1.00  0.00     0.003 A 
HETATM   25  C   UNL     1      21.209  51.406  48.584  1.00  0.00     0.030 A 
ENDBRANCH  15  18
ENDBRANCH  12  14
ENDBRANCH   1  12
BRANCH   5  26
HETATM   26  C   UNL     1      27.044  45.128  52.245  1.00  0.00     0.405 C 
BRANCH  26  27
HETATM   27  N   UNL     1      26.576  44.902  53.613  1.00  0.00     0.106 N 
HETATM   28  C   UNL     1      27.262  43.788  54.286  1.00  0.00     0.274 C 
HETATM   29  C   UNL     1      28.699  44.101  54.716  1.00  0.00     0.030 C 
HETATM   30  C   UNL     1      28.766  45.377  55.548  1.00  0.00     0.003 C 
HETATM   31  C   UNL     1      28.058  46.525  54.838  1.00  0.00     0.030 C 
HETATM   32  C   UNL     1      26.640  46.123  54.427  1.00  0.00     0.274 C 
ENDBRANCH  26  27
ENDBRANCH   5  26
TORSDOF 5
ENDMDL
MODEL 8
REMARK VINA RESULT:      -9.0      3.883      5.357
REMARK  5 active torsions:
REMARK  status: ('A' for Active; 'I' for Inactive)
REMARK    1  A    between atoms: C_5  and  N_6 
REMARK    2  A    between atoms: C_7  and  N_8 
REMARK    3  A    between atoms: N_8  and  N_9 
REMARK    4  A    between atoms: N_13  and  C_14 
REMARK    5  A    between atoms: C_14  and  N_15 
ROOT
HETATM    1  N   UNL     1      26.742  43.394  52.614  1.00  0.00    -0.166 NA
HETATM    2  C   UNL     1      26.012  43.056  51.602  1.00  0.00     0.157 A 
HETATM    3  C   UNL     1      24.598  43.496  51.229  1.00  0.00     0.281 A 
HETATM    4  O   UNL     1      23.954  44.308  51.863  1.00  0.00    -0.265 OA
HETATM    5  N   UNL     1      24.289  42.803  50.073  1.00  0.00    -0.284 N 
HETATM    6  C   UNL     1      26.435  42.124  50.566  1.00  0.00     0.027 A 
HETATM    7  C   UNL     1      25.378  42.006  49.667  1.00  0.00     0.052 A 
HETATM    8  C   UNL     1      25.498  41.186  48.562  1.00  0.00     0.031 A 
HETATM    9  C   UNL     1      26.700  40.485  48.387  1.00  0.00     0.002 A 
HETATM   10  C   UNL     1      27.759  40.616  49.307  1.00  0.00     0.001 A 
HETATM   11  C   UNL     1      27.632  41.449  50.418  1.00  0.00     0.016 A 
ENDROOT
BRANCH   1  12
HETATM   12  N   UNL     1      26.234  44.281  53.520  1.00  0.00    -0.252 N 
HETATM   13  H   UNL     1      25.343  44.061  53.965  1.00  0.00     0.191 HD
BRANCH  12  14
HETATM   14  C   UNL     1      26.753  45.545  53.624  1.00  0.00     0.192 C 
HETATM   15  N   UNL     1      27.872  45.753  54.373  1.00  0.00    -0.332 N 
HETATM   16  H   UNL     1      28.030  46.748  54.486  1.00  0.00     0.168 HD
HETATM   17  S   UNL     1      26.087  46.921  52.916  1.00  0.00    -0.039 SA
BRANCH  15  18
HETATM   18  C   UNL     1      28.892  44.920  54.886  1.00  0.00     0.040 A 
HETATM   19  C   UNL     1      29.389  45.193  56.192  1.00  0.00    -0.029 A 
HETATM   20  C   UNL     1      30.478  44.442  56.701  1.00  0.00    -0.054 A 
HETATM   21  C   UNL     1      28.787  46.307  57.021  1.00  0.00     0.051 C 
HETATM   22  C   UNL     1      31.088  44.722  58.049  1.00  0.00     0.049 C 
HETATM   23  C   UNL     1      31.015  43.401  55.932  1.00  0.00     0.007 A 
HETATM   24  C   UNL     1      30.522  43.134  54.661  1.00  0.00     0.003 A 
HETATM   25  C   UNL     1      29.485  43.902  54.133  1.00  0.00     0.030 A 
ENDBRANCH  15  18
ENDBRANCH  12  14
ENDBRANCH   1  12
BRANCH   5  26
HETATM   26  C   UNL     1      23.064  42.967  49.335  1.00  0.00     0.405 C 
BRANCH  26  27
HETATM   27  N   UNL     1      23.206  44.043  48.352  1.00  0.00     0.106 N 
HETATM   28  C   UNL     1      22.939  43.609  46.972  1.00  0.00     0.274 C 
HETATM   29  C   UNL     1      21.457  43.377  46.661  1.00  0.00     0.030 C 
HETATM   30  C   UNL     1      20.612  44.591  47.034  1.00  0.00     0.003 C 
HETATM   31  C   UNL     1      20.893  45.027  48.467  1.00  0.00     0.030 C 
HETATM   32  C   UNL     1      22.394  45.217  48.697  1.00  0.00     0.274 C 
ENDBRANCH  26  27
ENDBRANCH   5  26
TORSDOF 5
ENDMDL
MODEL 9
REMARK VINA RESULT:      -8.6      2.441      9.027
REMARK  5 active torsions:
REMARK  status: ('A' for Active; 'I' for Inactive)
REMARK    1  A    between atoms: C_5  and  N_6 
REMARK    2  A    between atoms: C_7  and  N_8 
REMARK    3  A    between atoms: N_8  and  N_9 
REMARK    4  A    between atoms: N_13  and  C_14 
REMARK    5  A    between atoms: C_14  and  N_15 
ROOT
HETATM    1  N   UNL     1      23.614  46.030  49.330  1.00  0.00    -0.166 NA
HETATM    2  C   UNL     1      24.621  45.280  49.640  1.00  0.00     0.157 A 
HETATM    3  C   UNL     1      25.792  45.558  50.579  1.00  0.00     0.281 A 
HETATM    4  O   UNL     1      25.910  46.579  51.228  1.00  0.00    -0.265 OA
HETATM    5  N   UNL     1      26.593  44.433  50.513  1.00  0.00    -0.284 N 
HETATM    6  C   UNL     1      24.835  43.941  49.108  1.00  0.00     0.027 A 
HETATM    7  C   UNL     1      26.022  43.468  49.661  1.00  0.00     0.052 A 
HETATM    8  C   UNL     1      26.478  42.204  49.340  1.00  0.00     0.031 A 
HETATM    9  C   UNL     1      25.718  41.434  48.449  1.00  0.00     0.002 A 
HETATM   10  C   UNL     1      24.520  41.929  47.898  1.00  0.00     0.001 A 
HETATM   11  C   UNL     1      24.063  43.204  48.230  1.00  0.00     0.016 A 
ENDROOT
BRANCH   1  12
HETATM   12  N   UNL     1      23.522  47.269  49.899  1.00  0.00    -0.252 N 
HETATM   13  H   UNL     1      23.320  47.329  50.896  1.00  0.00     0.191 HD
BRANCH  12  14
HETATM   14  C   UNL     1      23.426  48.389  49.116  1.00  0.00     0.192 C 
HETATM   15  N   UNL     1      22.222  48.738  48.584  1.00  0.00    -0.332 N 
HETATM   16  H   UNL     1      22.347  49.478  47.904  1.00  0.00     0.168 HD
HETATM   17  S   UNL     1      24.720  49.387  48.702  1.00  0.00    -0.039 SA
BRANCH  15  18
HETATM   18  C   UNL     1      20.878  48.401  48.865  1.00  0.00     0.040 A 
HETATM   19  C   UNL     1      20.254  47.402  48.065  1.00  0.00    -0.029 A 
HETATM   20  C   UNL     1      18.881  47.108  48.254  1.00  0.00    -0.054 A 
HETATM   21  C   UNL     1      21.040  46.683  46.991  1.00  0.00     0.051 C 
HETATM   22  C   UNL     1      18.149  46.106  47.400  1.00  0.00     0.049 C 
HETATM   23  C   UNL     1      18.167  47.766  49.264  1.00  0.00     0.007 A 
HETATM   24  C   UNL     1      18.782  48.735  50.046  1.00  0.00     0.003 A 
HETATM   25  C   UNL     1      20.120  49.067  49.833  1.00  0.00     0.030 A 
ENDBRANCH  15  18
ENDBRANCH  12  14
ENDBRANCH   1  12
BRANCH   5  26
HETATM   26  C   UNL     1      27.785  44.242  51.299  1.00  0.00     0.405 C 
BRANCH  26  27
HETATM   27  N   UNL     1      27.528  43.293  52.383  1.00  0.00     0.106 N 
HETATM   28  C   UNL     1      28.541  42.230  52.477  1.00  0.00     0.274 C 
HETATM   29  C   UNL     1      29.884  42.689  53.054  1.00  0.00     0.030 C 
HETATM   30  C   UNL     1      29.702  43.401  54.390  1.00  0.00     0.003 C 
HETATM   31  C   UNL     1      28.655  44.504  54.279  1.00  0.00     0.030 C 
HETATM   32  C   UNL     1      27.356  43.966  53.677  1.00  0.00     0.274 C 
ENDBRANCH  26  27
ENDBRANCH   5  26
TORSDOF 5
ENDMDL
MODEL 10
REMARK VINA RESULT:      -8.6      3.926      7.814
REMARK  5 active torsions:
REMARK  status: ('A' for Active; 'I' for Inactive)
REMARK    1  A    between atoms: C_5  and  N_6 
REMARK    2  A    between atoms: C_7  and  N_8 
REMARK    3  A    between atoms: N_8  and  N_9 
REMARK    4  A    between atoms: N_13  and  C_14 
REMARK    5  A    between atoms: C_14  and  N_15 
ROOT
HETATM    1  N   UNL     1      24.608  42.255  49.340  1.00  0.00    -0.166 NA
HETATM    2  C   UNL     1      25.374  42.988  50.081  1.00  0.00     0.157 A 
HETATM    3  C   UNL     1      26.625  42.606  50.868  1.00  0.00     0.281 A 
HETATM    4  O   UNL     1      27.113  41.493  50.864  1.00  0.00    -0.265 OA
HETATM    5  N   UNL     1      27.025  43.765  51.509  1.00  0.00    -0.284 N 
HETATM    6  C   UNL     1      25.162  44.409  50.317  1.00  0.00     0.027 A 
HETATM    7  C   UNL     1      26.175  44.836  51.170  1.00  0.00     0.052 A 
HETATM    8  C   UNL     1      26.235  46.159  51.565  1.00  0.00     0.031 A 
HETATM    9  C   UNL     1      25.252  47.036  51.087  1.00  0.00     0.002 A 
HETATM   10  C   UNL     1      24.233  46.586  50.224  1.00  0.00     0.001 A 
HETATM   11  C   UNL     1      24.181  45.251  49.827  1.00  0.00     0.016 A 
ENDROOT
BRANCH   1  12
HETATM   12  N   UNL     1      24.914  40.931  49.193  1.00  0.00    -0.252 N 
HETATM   13  H   UNL     1      25.257  40.421  50.006  1.00  0.00     0.191 HD
BRANCH  12  14
HETATM   14  C   UNL     1      25.022  40.376  47.945  1.00  0.00     0.192 C 
HETATM   15  N   UNL     1      25.998  39.458  47.698  1.00  0.00    -0.332 N 
HETATM   16  H   UNL     1      26.052  39.273  46.704  1.00  0.00     0.168 HD
HETATM   17  S   UNL     1      24.048  40.773  46.628  1.00  0.00    -0.039 SA
BRANCH  15  18
HETATM   18  C   UNL     1      26.818  38.640  48.509  1.00  0.00     0.040 A 
HETATM   19  C   UNL     1      28.193  38.985  48.637  1.00  0.00    -0.029 A 
HETATM   20  C   UNL     1      29.067  38.135  49.360  1.00  0.00    -0.054 A 
HETATM   21  C   UNL     1      28.733  40.233  47.971  1.00  0.00     0.051 C 
HETATM   22  C   UNL     1      30.542  38.413  49.480  1.00  0.00     0.049 C 
HETATM   23  C   UNL     1      28.553  36.994  49.988  1.00  0.00     0.007 A 
HETATM   24  C   UNL     1      27.209  36.664  49.866  1.00  0.00     0.003 A 
HETATM   25  C   UNL     1      26.353  37.468  49.113  1.00  0.00     0.030 A 
ENDBRANCH  15  18
ENDBRANCH  12  14
ENDBRANCH   1  12
BRANCH   5  26
HETATM   26  C   UNL     1      28.213  43.874  52.316  1.00  0.00     0.405 C 
BRANCH  26  27
HETATM   27  N   UNL     1      27.977  43.302  53.643  1.00  0.00     0.106 N 
HETATM   28  C   UNL     1      29.052  42.401  54.086  1.00  0.00     0.274 C 
HETATM   29  C   UNL     1      30.340  43.118  54.507  1.00  0.00     0.030 C 
HETATM   30  C   UNL     1      30.062  44.201  55.543  1.00  0.00     0.003 C 
HETATM   31  C   UNL     1      28.951  45.132  55.069  1.00  0.00     0.030 C 
HETATM   32  C   UNL     1      27.713  44.337  54.651  1.00  0.00     0.274 C 
ENDBRANCH  26  27
ENDBRANCH   5  26
TORSDOF 5
ENDMDL
