MODEL 1
REMARK VINA RESULT:      -8.5      0.000      0.000
REMARK  7 active torsions:
REMARK  status: ('A' for Active; 'I' for Inactive)
REMARK    1  A    between atoms: C_8  and  C_9 
REMARK    2  A    between atoms: C_9  and  N_10 
REMARK    3  A    between atoms: C_9  and  C_14 
REMARK       I    between atoms: C_14  and  N_15 
REMARK    4  A    between atoms: N_15  and  C_16 
REMARK    5  A    between atoms: C_16  and  C_17 
REMARK    6  A    between atoms: C_17  and  C_18 
REMARK    7  A    between atoms: C_20  and  C_21 
ROOT
HETATM    1  C   UNL     1      26.798  42.917  51.201  1.00  0.00     0.253 C 
HETATM    2  N   UNL     1      27.091  42.405  52.441  1.00  0.00    -0.359 N 
HETATM    3  O   UNL     1      27.524  42.804  50.212  1.00  0.00    -0.271 OA
HETATM    4  H   UNL     1      26.362  42.342  53.146  1.00  0.00     0.162 HD
ENDROOT
BRANCH   1   5
HETATM    5  C   UNL     1      25.499  43.744  51.077  1.00  0.00     0.311 C 
BRANCH   5   6
HETATM    6  C   UNL     1      25.602  45.050  51.787  1.00  0.00     0.031 A 
HETATM    7  C   UNL     1      25.436  45.336  53.138  1.00  0.00     0.035 A 
HETATM    8  C   UNL     1      25.150  44.491  54.326  1.00  0.00     0.070 C 
HETATM    9  N   UNL     1      25.632  46.687  53.264  1.00  0.00    -0.282 N 
HETATM   10  H   UNL     1      25.603  47.258  54.105  1.00  0.00     0.189 HD
HETATM   11  N   UNL     1      25.890  47.289  52.100  1.00  0.00    -0.179 NA
HETATM   12  C   UNL     1      25.891  46.312  51.195  1.00  0.00     0.061 A 
HETATM   13  C   UNL     1      26.172  46.637  49.770  1.00  0.00     0.073 C 
ENDBRANCH   5   6
BRANCH   5  14
HETATM   14  N   UNL     1      24.362  42.941  51.636  1.00  0.00    -0.062 N 
HETATM   15  H   UNL     1      24.709  42.145  52.181  1.00  0.00     0.275 HD
HETATM   16  H   UNL     1      23.861  43.541  52.306  1.00  0.00     0.275 HD
HETATM   17  H   UNL     1      23.712  42.627  50.910  1.00  0.00     0.275 HD
ENDBRANCH   5  14
ENDBRANCH   1   5
BRANCH   2  18
HETATM   18  C   UNL     1      28.246  41.541  52.664  1.00  0.00     0.127 C 
BRANCH  18  19
HETATM   19  C   UNL     1      29.562  42.324  52.730  1.00  0.00     0.058 C 
BRANCH  19  20
HETATM   20  C   UNL     1      29.647  43.285  53.895  1.00  0.00    -0.056 A 
HETATM   21  C   UNL     1      30.485  43.004  54.985  1.00  0.00     0.023 A 
HETATM   22  C   UNL     1      30.562  43.875  56.084  1.00  0.00     0.048 A 
HETATM   23  C   UNL     1      29.788  45.044  56.078  1.00  0.00     0.016 A 
HETATM   24  C   UNL     1      28.946  45.327  55.003  1.00  0.00     0.001 A 
HETATM   25  C   UNL     1      28.872  44.451  53.920  1.00  0.00     0.007 A 
BRANCH  22  26
HETATM   26  C   UNL     1      31.462  43.574  57.260  1.00  0.00     0.417 C 
HETATM   27  F   UNL     1      31.307  44.451  58.292  1.00  0.00    -0.166 F 
HETATM   28  F   UNL     1      31.217  42.342  57.786  1.00  0.00    -0.166 F 
HETATM   29  F   UNL     1      32.782  43.597  56.938  1.00  0.00    -0.166 F 
ENDBRANCH  22  26
ENDBRANCH  19  20
ENDBRANCH  18  19
ENDBRANCH   2  18
TORSDOF 7
ENDMDL
MODEL 2
REMARK VINA RESULT:      -8.4      1.796      2.323
REMARK  7 active torsions:
REMARK  status: ('A' for Active; 'I' for Inactive)
REMARK    1  A    between atoms: C_8  and  C_9 
REMARK    2  A    between atoms: C_9  and  N_10 
REMARK    3  A    between atoms: C_9  and  C_14 
REMARK       I    between atoms: C_14  and  N_15 
REMARK    4  A    between atoms: N_15  and  C_16 
REMARK    5  A    between atoms: C_16  and  C_17 
REMARK    6  A    between atoms: C_17  and  C_18 
REMARK    7  A    between atoms: C_20  and  C_21 
ROOT
HETATM    1  C   UNL     1      26.516  44.390  51.265  1.00  0.00     0.253 C 
HETATM    2  N   UNL     1      27.184  43.197  51.403  1.00  0.00    -0.359 N 
HETATM    3  O   UNL     1      26.000  45.009  52.197  1.00  0.00    -0.271 OA
HETATM    4  H   UNL     1      27.767  42.856  50.644  1.00  0.00     0.162 HD
ENDROOT
BRANCH   1   5
HETATM    5  C   UNL     1      26.353  44.937  49.831  1.00  0.00     0.311 C 
BRANCH   5   6
HETATM    6  C   UNL     1      25.236  45.919  49.732  1.00  0.00     0.031 A 
HETATM    7  C   UNL     1      23.868  45.692  49.629  1.00  0.00     0.035 A 
HETATM    8  C   UNL     1      23.042  44.458  49.618  1.00  0.00     0.070 C 
HETATM    9  N   UNL     1      23.285  46.931  49.563  1.00  0.00    -0.282 N 
HETATM   10  H   UNL     1      22.298  47.167  49.494  1.00  0.00     0.189 HD
HETATM   11  N   UNL     1      24.173  47.930  49.597  1.00  0.00    -0.179 NA
HETATM   12  C   UNL     1      25.359  47.337  49.714  1.00  0.00     0.061 A 
HETATM   13  C   UNL     1      26.587  48.173  49.802  1.00  0.00     0.073 C 
ENDBRANCH   5   6
BRANCH   5  14
HETATM   14  N   UNL     1      26.109  43.785  48.900  1.00  0.00    -0.062 N 
HETATM   15  H   UNL     1      26.553  43.950  47.991  1.00  0.00     0.275 HD
HETATM   16  H   UNL     1      26.585  42.962  49.297  1.00  0.00     0.275 HD
HETATM   17  H   UNL     1      25.113  43.579  48.786  1.00  0.00     0.275 HD
ENDBRANCH   5  14
ENDBRANCH   1   5
BRANCH   2  18
HETATM   18  C   UNL     1      27.471  42.622  52.713  1.00  0.00     0.127 C 
BRANCH  18  19
HETATM   19  C   UNL     1      28.964  42.656  53.055  1.00  0.00     0.058 C 
BRANCH  19  20
HETATM   20  C   UNL     1      29.313  43.592  54.192  1.00  0.00    -0.056 A 
HETATM   21  C   UNL     1      30.250  43.206  55.163  1.00  0.00     0.023 A 
HETATM   22  C   UNL     1      30.572  44.053  56.236  1.00  0.00     0.048 A 
HETATM   23  C   UNL     1      29.944  45.303  56.324  1.00  0.00     0.016 A 
HETATM   24  C   UNL     1      29.005  45.691  55.369  1.00  0.00     0.001 A 
HETATM   25  C   UNL     1      28.688  44.839  54.311  1.00  0.00     0.007 A 
BRANCH  22  26
HETATM   26  C   UNL     1      31.579  43.641  57.284  1.00  0.00     0.417 C 
HETATM   27  F   UNL     1      31.386  42.373  57.744  1.00  0.00    -0.166 F 
HETATM   28  F   UNL     1      32.853  43.666  56.803  1.00  0.00    -0.166 F 
HETATM   29  F   UNL     1      31.568  44.448  58.378  1.00  0.00    -0.166 F 
ENDBRANCH  22  26
ENDBRANCH  19  20
ENDBRANCH  18  19
ENDBRANCH   2  18
TORSDOF 7
ENDMDL
MODEL 3
REMARK VINA RESULT:      -8.4      3.590      4.943
REMARK  7 active torsions:
REMARK  status: ('A' for Active; 'I' for Inactive)
REMARK    1  A    between atoms: C_8  and  C_9 
REMARK    2  A    between atoms: C_9  and  N_10 
REMARK    3  A    between atoms: C_9  and  C_14 
REMARK       I    between atoms: C_14  and  N_15 
REMARK    4  A    between atoms: N_15  and  C_16 
REMARK    5  A    between atoms: C_16  and  C_17 
REMARK    6  A    between atoms: C_17  and  C_18 
REMARK    7  A    between atoms: C_20  and  C_21 
ROOT
HETATM    1  C   UNL     1      28.167  41.769  51.991  1.00  0.00     0.253 C 
HETATM    2  N   UNL     1      29.512  41.857  52.257  1.00  0.00    -0.359 N 
HETATM    3  O   UNL     1      27.329  42.590  52.368  1.00  0.00    -0.271 OA
HETATM    4  H   UNL     1      30.168  41.279  51.739  1.00  0.00     0.162 HD
ENDROOT
BRANCH   1   5
HETATM    5  C   UNL     1      27.688  40.516  51.226  1.00  0.00     0.311 C 
BRANCH   5   6
HETATM    6  C   UNL     1      27.920  40.636  49.759  1.00  0.00     0.031 A 
HETATM    7  C   UNL     1      28.710  39.855  48.924  1.00  0.00     0.035 A 
HETATM    8  C   UNL     1      29.544  38.647  49.153  1.00  0.00     0.070 C 
HETATM    9  N   UNL     1      28.579  40.392  47.669  1.00  0.00    -0.282 N 
HETATM   10  H   UNL     1      29.000  40.082  46.797  1.00  0.00     0.189 HD
HETATM   11  N   UNL     1      27.784  41.466  47.641  1.00  0.00    -0.179 NA
HETATM   12  C   UNL     1      27.364  41.621  48.894  1.00  0.00     0.061 A 
HETATM   13  C   UNL     1      26.428  42.732  49.218  1.00  0.00     0.073 C 
ENDBRANCH   5   6
BRANCH   5  14
HETATM   14  N   UNL     1      26.228  40.312  51.502  1.00  0.00    -0.062 N 
HETATM   15  H   UNL     1      25.729  41.207  51.510  1.00  0.00     0.275 HD
HETATM   16  H   UNL     1      25.836  39.781  50.712  1.00  0.00     0.275 HD
HETATM   17  H   UNL     1      26.063  39.799  52.373  1.00  0.00     0.275 HD
ENDBRANCH   5  14
ENDBRANCH   1   5
BRANCH   2  18
HETATM   18  C   UNL     1      30.095  43.031  52.900  1.00  0.00     0.127 C 
BRANCH  18  19
HETATM   19  C   UNL     1      30.513  42.760  54.349  1.00  0.00     0.058 C 
BRANCH  19  20
HETATM   20  C   UNL     1      30.197  43.892  55.302  1.00  0.00    -0.056 A 
HETATM   21  C   UNL     1      29.206  44.832  54.980  1.00  0.00     0.023 A 
HETATM   22  C   UNL     1      28.914  45.901  55.843  1.00  0.00     0.048 A 
HETATM   23  C   UNL     1      29.626  46.016  57.045  1.00  0.00     0.016 A 
HETATM   24  C   UNL     1      30.618  45.092  57.369  1.00  0.00     0.001 A 
HETATM   25  C   UNL     1      30.906  44.038  56.501  1.00  0.00     0.007 A 
BRANCH  22  26
HETATM   26  C   UNL     1      27.849  46.916  55.499  1.00  0.00     0.417 C 
HETATM   27  F   UNL     1      28.298  47.908  54.680  1.00  0.00    -0.166 F 
HETATM   28  F   UNL     1      26.797  46.348  54.845  1.00  0.00    -0.166 F 
HETATM   29  F   UNL     1      27.330  47.533  56.593  1.00  0.00    -0.166 F 
ENDBRANCH  22  26
ENDBRANCH  19  20
ENDBRANCH  18  19
ENDBRANCH   2  18
TORSDOF 7
ENDMDL
MODEL 4
REMARK VINA RESULT:      -8.3      2.647      3.270
REMARK  7 active torsions:
REMARK  status: ('A' for Active; 'I' for Inactive)
REMARK    1  A    between atoms: C_8  and  C_9 
REMARK    2  A    between atoms: C_9  and  N_10 
REMARK    3  A    between atoms: C_9  and  C_14 
REMARK       I    between atoms: C_14  and  N_15 
REMARK    4  A    between atoms: N_15  and  C_16 
REMARK    5  A    between atoms: C_16  and  C_17 
REMARK    6  A    between atoms: C_17  and  C_18 
REMARK    7  A    between atoms: C_20  and  C_21 
ROOT
HETATM    1  C   UNL     1      26.672  43.756  51.416  1.00  0.00     0.253 C 
HETATM    2  N   UNL     1      27.557  42.716  51.563  1.00  0.00    -0.359 N 
HETATM    3  O   UNL     1      25.954  44.192  52.318  1.00  0.00    -0.271 OA
HETATM    4  H   UNL     1      28.266  42.553  50.854  1.00  0.00     0.162 HD
ENDROOT
BRANCH   1   5
HETATM    5  C   UNL     1      26.534  44.359  50.001  1.00  0.00     0.311 C 
BRANCH   5   6
HETATM    6  C   UNL     1      25.352  45.261  49.893  1.00  0.00     0.031 A 
HETATM    7  C   UNL     1      24.000  44.941  49.850  1.00  0.00     0.035 A 
HETATM    8  C   UNL     1      23.257  43.658  49.931  1.00  0.00     0.070 C 
HETATM    9  N   UNL     1      23.334  46.135  49.742  1.00  0.00    -0.282 N 
HETATM   10  H   UNL     1      22.332  46.303  49.696  1.00  0.00     0.189 HD
HETATM   11  N   UNL     1      24.154  47.189  49.693  1.00  0.00    -0.179 NA
HETATM   12  C   UNL     1      25.380  46.681  49.798  1.00  0.00     0.061 A 
HETATM   13  C   UNL     1      26.552  47.598  49.800  1.00  0.00     0.073 C 
ENDBRANCH   5   6
BRANCH   5  14
HETATM   14  N   UNL     1      26.421  43.240  49.009  1.00  0.00    -0.062 N 
HETATM   15  H   UNL     1      25.598  43.364  48.410  1.00  0.00     0.275 HD
HETATM   16  H   UNL     1      27.234  43.301  48.380  1.00  0.00     0.275 HD
HETATM   17  H   UNL     1      26.407  42.320  49.458  1.00  0.00     0.275 HD
ENDBRANCH   5  14
ENDBRANCH   1   5
BRANCH   2  18
HETATM   18  C   UNL     1      27.833  42.119  52.865  1.00  0.00     0.127 C 
BRANCH  18  19
HETATM   19  C   UNL     1      29.304  42.253  53.274  1.00  0.00     0.058 C 
BRANCH  19  20
HETATM   20  C   UNL     1      29.562  43.342  54.293  1.00  0.00    -0.056 A 
HETATM   21  C   UNL     1      28.706  44.451  54.375  1.00  0.00     0.023 A 
HETATM   22  C   UNL     1      28.942  45.481  55.301  1.00  0.00     0.048 A 
HETATM   23  C   UNL     1      30.050  45.384  56.155  1.00  0.00     0.016 A 
HETATM   24  C   UNL     1      30.910  44.290  56.074  1.00  0.00     0.001 A 
HETATM   25  C   UNL     1      30.671  43.276  55.145  1.00  0.00     0.007 A 
BRANCH  22  26
HETATM   26  C   UNL     1      28.024  46.677  55.392  1.00  0.00     0.417 C 
HETATM   27  F   UNL     1      26.776  46.433  54.902  1.00  0.00    -0.166 F 
HETATM   28  F   UNL     1      27.840  47.080  56.680  1.00  0.00    -0.166 F 
HETATM   29  F   UNL     1      28.492  47.759  54.717  1.00  0.00    -0.166 F 
ENDBRANCH  22  26
ENDBRANCH  19  20
ENDBRANCH  18  19
ENDBRANCH   2  18
TORSDOF 7
ENDMDL
MODEL 5
REMARK VINA RESULT:      -8.1      2.596      3.916
REMARK  7 active torsions:
REMARK  status: ('A' for Active; 'I' for Inactive)
REMARK    1  A    between atoms: C_8  and  C_9 
REMARK    2  A    between atoms: C_9  and  N_10 
REMARK    3  A    between atoms: C_9  and  C_14 
REMARK       I    between atoms: C_14  and  N_15 
REMARK    4  A    between atoms: N_15  and  C_16 
REMARK    5  A    between atoms: C_16  and  C_17 
REMARK    6  A    between atoms: C_17  and  C_18 
REMARK    7  A    between atoms: C_20  and  C_21 
ROOT
HETATM    1  C   UNL     1      25.598  45.684  50.165  1.00  0.00     0.253 C 
HETATM    2  N   UNL     1      26.640  45.373  51.004  1.00  0.00    -0.359 N 
HETATM    3  O   UNL     1      25.362  45.103  49.104  1.00  0.00    -0.271 OA
HETATM    4  H   UNL     1      26.648  45.736  51.953  1.00  0.00     0.162 HD
ENDROOT
BRANCH   1   5
HETATM    5  C   UNL     1      24.718  46.889  50.562  1.00  0.00     0.311 C 
BRANCH   5   6
HETATM    6  C   UNL     1      24.781  47.982  49.551  1.00  0.00     0.031 A 
HETATM    7  C   UNL     1      25.876  48.719  49.115  1.00  0.00     0.035 A 
HETATM    8  C   UNL     1      27.324  48.676  49.442  1.00  0.00     0.070 C 
HETATM    9  N   UNL     1      25.390  49.599  48.182  1.00  0.00    -0.282 N 
HETATM   10  H   UNL     1      25.897  50.292  47.636  1.00  0.00     0.189 HD
HETATM   11  N   UNL     1      24.070  49.496  48.002  1.00  0.00    -0.179 NA
HETATM   12  C   UNL     1      23.685  48.511  48.811  1.00  0.00     0.061 A 
HETATM   13  C   UNL     1      22.251  48.113  48.845  1.00  0.00     0.073 C 
ENDBRANCH   5   6
BRANCH   5  14
HETATM   14  N   UNL     1      25.173  47.398  51.899  1.00  0.00    -0.062 N 
HETATM   15  H   UNL     1      24.901  46.752  52.647  1.00  0.00     0.275 HD
HETATM   16  H   UNL     1      26.202  47.401  51.894  1.00  0.00     0.275 HD
HETATM   17  H   UNL     1      24.830  48.343  52.094  1.00  0.00     0.275 HD
ENDBRANCH   5  14
ENDBRANCH   1   5
BRANCH   2  18
HETATM   18  C   UNL     1      27.489  44.208  50.778  1.00  0.00     0.127 C 
BRANCH  18  19
HETATM   19  C   UNL     1      27.402  43.187  51.917  1.00  0.00     0.058 C 
BRANCH  19  20
HETATM   20  C   UNL     1      28.424  43.398  53.012  1.00  0.00    -0.056 A 
HETATM   21  C   UNL     1      28.306  44.487  53.889  1.00  0.00     0.023 A 
HETATM   22  C   UNL     1      29.256  44.711  54.899  1.00  0.00     0.048 A 
HETATM   23  C   UNL     1      30.331  43.821  55.026  1.00  0.00     0.016 A 
HETATM   24  C   UNL     1      30.462  42.741  54.154  1.00  0.00     0.001 A 
HETATM   25  C   UNL     1      29.516  42.533  53.150  1.00  0.00     0.007 A 
BRANCH  22  26
HETATM   26  C   UNL     1      29.133  45.884  55.844  1.00  0.00     0.417 C 
HETATM   27  F   UNL     1      28.244  45.667  56.854  1.00  0.00    -0.166 F 
HETATM   28  F   UNL     1      30.316  46.172  56.453  1.00  0.00    -0.166 F 
HETATM   29  F   UNL     1      28.734  47.026  55.225  1.00  0.00    -0.166 F 
ENDBRANCH  22  26
ENDBRANCH  19  20
ENDBRANCH  18  19
ENDBRANCH   2  18
TORSDOF 7
ENDMDL
MODEL 6
REMARK VINA RESULT:      -8.1      2.156      3.216
REMARK  7 active torsions:
REMARK  status: ('A' for Active; 'I' for Inactive)
REMARK    1  A    between atoms: C_8  and  C_9 
REMARK    2  A    between atoms: C_9  and  N_10 
REMARK    3  A    between atoms: C_9  and  C_14 
REMARK       I    between atoms: C_14  and  N_15 
REMARK    4  A    between atoms: N_15  and  C_16 
REMARK    5  A    between atoms: C_16  and  C_17 
REMARK    6  A    between atoms: C_17  and  C_18 
REMARK    7  A    between atoms: C_20  and  C_21 
ROOT
HETATM    1  C   UNL     1      25.419  44.966  51.190  1.00  0.00     0.253 C 
HETATM    2  N   UNL     1      26.457  45.302  52.026  1.00  0.00    -0.359 N 
HETATM    3  O   UNL     1      24.450  44.283  51.525  1.00  0.00    -0.271 OA
HETATM    4  H   UNL     1      27.103  46.039  51.757  1.00  0.00     0.162 HD
ENDROOT
BRANCH   1   5
HETATM    5  C   UNL     1      25.531  45.428  49.721  1.00  0.00     0.311 C 
BRANCH   5   6
HETATM    6  C   UNL     1      24.803  46.707  49.483  1.00  0.00     0.031 A 
HETATM    7  C   UNL     1      23.472  46.913  49.138  1.00  0.00     0.035 A 
HETATM    8  C   UNL     1      22.324  45.995  48.927  1.00  0.00     0.070 C 
HETATM    9  N   UNL     1      23.316  48.272  49.035  1.00  0.00    -0.282 N 
HETATM   10  H   UNL     1      22.477  48.801  48.810  1.00  0.00     0.189 HD
HETATM   11  N   UNL     1      24.445  48.947  49.267  1.00  0.00    -0.179 NA
HETATM   12  C   UNL     1      25.354  48.018  49.555  1.00  0.00     0.061 A 
HETATM   13  C   UNL     1      26.743  48.434  49.892  1.00  0.00     0.073 C 
ENDBRANCH   5   6
BRANCH   5  14
HETATM   14  N   UNL     1      24.982  44.350  48.834  1.00  0.00    -0.062 N 
HETATM   15  H   UNL     1      24.748  43.513  49.378  1.00  0.00     0.275 HD
HETATM   16  H   UNL     1      24.090  44.690  48.450  1.00  0.00     0.275 HD
HETATM   17  H   UNL     1      25.617  44.116  48.065  1.00  0.00     0.275 HD
ENDBRANCH   5  14
ENDBRANCH   1   5
BRANCH   2  18
HETATM   18  C   UNL     1      26.428  44.992  53.452  1.00  0.00     0.127 C 
BRANCH  18  19
HETATM   19  C   UNL     1      27.365  45.890  54.267  1.00  0.00     0.058 C 
BRANCH  19  20
HETATM   20  C   UNL     1      28.531  45.155  54.890  1.00  0.00    -0.056 A 
HETATM   21  C   UNL     1      29.046  45.565  56.130  1.00  0.00     0.023 A 
HETATM   22  C   UNL     1      30.141  44.908  56.714  1.00  0.00     0.048 A 
HETATM   23  C   UNL     1      30.717  43.822  56.040  1.00  0.00     0.016 A 
HETATM   24  C   UNL     1      30.219  43.412  54.804  1.00  0.00     0.001 A 
HETATM   25  C   UNL     1      29.135  44.077  54.230  1.00  0.00     0.007 A 
BRANCH  22  26
HETATM   26  C   UNL     1      30.699  45.348  58.047  1.00  0.00     0.417 C 
HETATM   27  F   UNL     1      31.041  46.667  58.076  1.00  0.00    -0.166 F 
HETATM   28  F   UNL     1      29.798  45.180  59.055  1.00  0.00    -0.166 F 
HETATM   29  F   UNL     1      31.812  44.659  58.411  1.00  0.00    -0.166 F 
ENDBRANCH  22  26
ENDBRANCH  19  20
ENDBRANCH  18  19
ENDBRANCH   2  18
TORSDOF 7
ENDMDL
MODEL 7
REMARK VINA RESULT:      -8.1      3.857      5.944
REMARK  7 active torsions:
REMARK  status: ('A' for Active; 'I' for Inactive)
REMARK    1  A    between atoms: C_8  and  C_9 
REMARK    2  A    between atoms: C_9  and  N_10 
REMARK    3  A    between atoms: C_9  and  C_14 
REMARK       I    between atoms: C_14  and  N_15 
REMARK    4  A    between atoms: N_15  and  C_16 
REMARK    5  A    between atoms: C_16  and  C_17 
REMARK    6  A    between atoms: C_17  and  C_18 
REMARK    7  A    between atoms: C_20  and  C_21 
ROOT
HETATM    1  C   UNL     1      27.697  40.894  50.516  1.00  0.00     0.253 C 
HETATM    2  N   UNL     1      28.751  41.515  51.141  1.00  0.00    -0.359 N 
HETATM    3  O   UNL     1      26.538  40.901  50.934  1.00  0.00    -0.271 OA
HETATM    4  H   UNL     1      29.623  41.657  50.639  1.00  0.00     0.162 HD
ENDROOT
BRANCH   1   5
HETATM    5  C   UNL     1      28.022  40.081  49.244  1.00  0.00     0.311 C 
BRANCH   5   6
HETATM    6  C   UNL     1      27.905  38.613  49.476  1.00  0.00     0.031 A 
HETATM    7  C   UNL     1      28.688  37.780  50.267  1.00  0.00     0.035 A 
HETATM    8  C   UNL     1      29.848  38.025  51.162  1.00  0.00     0.070 C 
HETATM    9  N   UNL     1      28.160  36.522  50.127  1.00  0.00    -0.282 N 
HETATM   10  H   UNL     1      28.460  35.654  50.563  1.00  0.00     0.189 HD
HETATM   11  N   UNL     1      27.115  36.484  49.295  1.00  0.00    -0.179 NA
HETATM   12  C   UNL     1      26.936  37.742  48.903  1.00  0.00     0.061 A 
HETATM   13  C   UNL     1      25.821  38.065  47.971  1.00  0.00     0.073 C 
ENDBRANCH   5   6
BRANCH   5  14
HETATM   14  N   UNL     1      29.413  40.422  48.796  1.00  0.00    -0.062 N 
HETATM   15  H   UNL     1      29.396  41.163  48.087  1.00  0.00     0.275 HD
HETATM   16  H   UNL     1      29.908  40.822  49.605  1.00  0.00     0.275 HD
HETATM   17  H   UNL     1      29.925  39.605  48.454  1.00  0.00     0.275 HD
ENDBRANCH   5  14
ENDBRANCH   1   5
BRANCH   2  18
HETATM   18  C   UNL     1      28.557  42.377  52.303  1.00  0.00     0.127 C 
BRANCH  18  19
HETATM   19  C   UNL     1      29.598  42.129  53.399  1.00  0.00     0.058 C 
BRANCH  19  20
HETATM   20  C   UNL     1      29.737  43.268  54.385  1.00  0.00    -0.056 A 
HETATM   21  C   UNL     1      28.853  44.358  54.336  1.00  0.00     0.023 A 
HETATM   22  C   UNL     1      28.979  45.434  55.230  1.00  0.00     0.048 A 
HETATM   23  C   UNL     1      30.004  45.404  56.185  1.00  0.00     0.016 A 
HETATM   24  C   UNL     1      30.892  44.331  56.236  1.00  0.00     0.001 A 
HETATM   25  C   UNL     1      30.762  43.271  55.338  1.00  0.00     0.007 A 
BRANCH  22  26
HETATM   26  C   UNL     1      28.031  46.609  55.179  1.00  0.00     0.417 C 
HETATM   27  F   UNL     1      26.856  46.323  54.551  1.00  0.00    -0.166 F 
HETATM   28  F   UNL     1      27.685  47.037  56.425  1.00  0.00    -0.166 F 
HETATM   29  F   UNL     1      28.553  47.686  54.536  1.00  0.00    -0.166 F 
ENDBRANCH  22  26
ENDBRANCH  19  20
ENDBRANCH  18  19
ENDBRANCH   2  18
TORSDOF 7
ENDMDL
MODEL 8
REMARK VINA RESULT:      -8.0      2.810      4.191
REMARK  7 active torsions:
REMARK  status: ('A' for Active; 'I' for Inactive)
REMARK    1  A    between atoms: C_8  and  C_9 
REMARK    2  A    between atoms: C_9  and  N_10 
REMARK    3  A    between atoms: C_9  and  C_14 
REMARK       I    between atoms: C_14  and  N_15 
REMARK    4  A    between atoms: N_15  and  C_16 
REMARK    5  A    between atoms: C_16  and  C_17 
REMARK    6  A    between atoms: C_17  and  C_18 
REMARK    7  A    between atoms: C_20  and  C_21 
ROOT
HETATM    1  C   UNL     1      25.675  46.089  51.412  1.00  0.00     0.253 C 
HETATM    2  N   UNL     1      26.373  46.795  52.362  1.00  0.00    -0.359 N 
HETATM    3  O   UNL     1      24.813  45.246  51.666  1.00  0.00    -0.271 OA
HETATM    4  H   UNL     1      26.902  47.619  52.090  1.00  0.00     0.162 HD
ENDROOT
BRANCH   1   5
HETATM    5  C   UNL     1      26.061  46.335  49.937  1.00  0.00     0.311 C 
BRANCH   5   6
HETATM    6  C   UNL     1      25.561  47.649  49.442  1.00  0.00     0.031 A 
HETATM    7  C   UNL     1      24.258  48.053  49.173  1.00  0.00     0.035 A 
HETATM    8  C   UNL     1      22.939  47.382  49.306  1.00  0.00     0.070 C 
HETATM    9  N   UNL     1      24.348  49.350  48.738  1.00  0.00    -0.282 N 
HETATM   10  H   UNL     1      23.600  49.980  48.459  1.00  0.00     0.189 HD
HETATM   11  N   UNL     1      25.605  49.799  48.690  1.00  0.00    -0.179 NA
HETATM   12  C   UNL     1      26.353  48.789  49.127  1.00  0.00     0.061 A 
HETATM   13  C   UNL     1      27.829  48.961  49.222  1.00  0.00     0.073 C 
ENDBRANCH   5   6
BRANCH   5  14
HETATM   14  N   UNL     1      25.501  45.222  49.100  1.00  0.00    -0.062 N 
HETATM   15  H   UNL     1      26.131  44.413  49.100  1.00  0.00     0.275 HD
HETATM   16  H   UNL     1      24.635  44.901  49.554  1.00  0.00     0.275 HD
HETATM   17  H   UNL     1      25.294  45.520  48.143  1.00  0.00     0.275 HD
ENDBRANCH   5  14
ENDBRANCH   1   5
BRANCH   2  18
HETATM   18  C   UNL     1      26.045  46.709  53.781  1.00  0.00     0.127 C 
BRANCH  18  19
HETATM   19  C   UNL     1      27.197  47.170  54.680  1.00  0.00     0.058 C 
BRANCH  19  20
HETATM   20  C   UNL     1      28.234  46.101  54.947  1.00  0.00    -0.056 A 
HETATM   21  C   UNL     1      28.327  44.980  54.108  1.00  0.00     0.023 A 
HETATM   22  C   UNL     1      29.270  43.968  54.352  1.00  0.00     0.048 A 
HETATM   23  C   UNL     1      30.130  44.094  55.452  1.00  0.00     0.016 A 
HETATM   24  C   UNL     1      30.039  45.200  56.297  1.00  0.00     0.001 A 
HETATM   25  C   UNL     1      29.093  46.196  56.048  1.00  0.00     0.007 A 
BRANCH  22  26
HETATM   26  C   UNL     1      29.372  42.759  53.452  1.00  0.00     0.417 C 
HETATM   27  F   UNL     1      30.657  42.433  53.136  1.00  0.00    -0.166 F 
HETATM   28  F   UNL     1      28.844  41.646  54.033  1.00  0.00    -0.166 F 
HETATM   29  F   UNL     1      28.720  42.920  52.270  1.00  0.00    -0.166 F 
ENDBRANCH  22  26
ENDBRANCH  19  20
ENDBRANCH  18  19
ENDBRANCH   2  18
TORSDOF 7
ENDMDL
MODEL 9
REMARK VINA RESULT:      -8.0      5.673      8.250
REMARK  7 active torsions:
REMARK  status: ('A' for Active; 'I' for Inactive)
REMARK    1  A    between atoms: C_8  and  C_9 
REMARK    2  A    between atoms: C_9  and  N_10 
REMARK    3  A    between atoms: C_9  and  C_14 
REMARK       I    between atoms: C_14  and  N_15 
REMARK    4  A    between atoms: N_15  and  C_16 
REMARK    5  A    between atoms: C_16  and  C_17 
REMARK    6  A    between atoms: C_17  and  C_18 
REMARK    7  A    between atoms: C_20  and  C_21 
ROOT
HETATM    1  C   UNL     1      26.017  44.322  53.063  1.00  0.00     0.253 C 
HETATM    2  N   UNL     1      26.714  45.156  52.222  1.00  0.00    -0.359 N 
HETATM    3  O   UNL     1      24.964  43.756  52.764  1.00  0.00    -0.271 OA
HETATM    4  H   UNL     1      27.672  45.411  52.445  1.00  0.00     0.162 HD
ENDROOT
BRANCH   1   5
HETATM    5  C   UNL     1      26.572  44.152  54.493  1.00  0.00     0.311 C 
BRANCH   5   6
HETATM    6  C   UNL     1      28.007  43.751  54.489  1.00  0.00     0.031 A 
HETATM    7  C   UNL     1      28.596  42.581  54.022  1.00  0.00     0.035 A 
HETATM    8  C   UNL     1      28.055  41.371  53.351  1.00  0.00     0.070 C 
HETATM    9  N   UNL     1      29.939  42.713  54.260  1.00  0.00    -0.282 N 
HETATM   10  H   UNL     1      30.691  42.063  54.044  1.00  0.00     0.189 HD
HETATM   11  N   UNL     1      30.253  43.866  54.859  1.00  0.00    -0.179 NA
HETATM   12  C   UNL     1      29.099  44.515  54.992  1.00  0.00     0.061 A 
HETATM   13  C   UNL     1      29.089  45.867  55.613  1.00  0.00     0.073 C 
ENDBRANCH   5   6
BRANCH   5  14
HETATM   14  N   UNL     1      25.751  43.121  55.210  1.00  0.00    -0.062 N 
HETATM   15  H   UNL     1      25.973  43.107  56.210  1.00  0.00     0.275 HD
HETATM   16  H   UNL     1      24.766  43.413  55.147  1.00  0.00     0.275 HD
HETATM   17  H   UNL     1      25.855  42.187  54.803  1.00  0.00     0.275 HD
ENDBRANCH   5  14
ENDBRANCH   1   5
BRANCH   2  18
HETATM   18  C   UNL     1      26.333  45.333  50.825  1.00  0.00     0.127 C 
BRANCH  18  19
HETATM   19  C   UNL     1      25.114  46.247  50.658  1.00  0.00     0.058 C 
BRANCH  19  20
HETATM   20  C   UNL     1      25.398  47.515  49.884  1.00  0.00    -0.056 A 
HETATM   21  C   UNL     1      24.341  48.326  49.443  1.00  0.00     0.023 A 
HETATM   22  C   UNL     1      24.584  49.497  48.706  1.00  0.00     0.048 A 
HETATM   23  C   UNL     1      25.909  49.853  48.417  1.00  0.00     0.016 A 
HETATM   24  C   UNL     1      26.965  49.049  48.843  1.00  0.00     0.001 A 
HETATM   25  C   UNL     1      26.711  47.884  49.568  1.00  0.00     0.007 A 
BRANCH  22  26
HETATM   26  C   UNL     1      23.448  50.372  48.229  1.00  0.00     0.417 C 
HETATM   27  F   UNL     1      22.625  49.745  47.341  1.00  0.00    -0.166 F 
HETATM   28  F   UNL     1      22.646  50.769  49.255  1.00  0.00    -0.166 F 
HETATM   29  F   UNL     1      23.874  51.507  47.615  1.00  0.00    -0.166 F 
ENDBRANCH  22  26
ENDBRANCH  19  20
ENDBRANCH  18  19
ENDBRANCH   2  18
TORSDOF 7
ENDMDL
MODEL 10
REMARK VINA RESULT:      -8.0      1.948      3.916
REMARK  7 active torsions:
REMARK  status: ('A' for Active; 'I' for Inactive)
REMARK    1  A    between atoms: C_8  and  C_9 
REMARK    2  A    between atoms: C_9  and  N_10 
REMARK    3  A    between atoms: C_9  and  C_14 
REMARK       I    between atoms: C_14  and  N_15 
REMARK    4  A    between atoms: N_15  and  C_16 
REMARK    5  A    between atoms: C_16  and  C_17 
REMARK    6  A    between atoms: C_17  and  C_18 
REMARK    7  A    between atoms: C_20  and  C_21 
ROOT
HETATM    1  C   UNL     1      25.671  44.264  52.133  1.00  0.00     0.253 C 
HETATM    2  N   UNL     1      26.535  45.196  52.655  1.00  0.00    -0.359 N 
HETATM    3  O   UNL     1      24.724  43.771  52.749  1.00  0.00    -0.271 OA
HETATM    4  H   UNL     1      27.149  45.717  52.036  1.00  0.00     0.162 HD
ENDROOT
BRANCH   1   5
HETATM    5  C   UNL     1      25.966  43.765  50.702  1.00  0.00     0.311 C 
BRANCH   5   6
HETATM    6  C   UNL     1      26.160  42.288  50.656  1.00  0.00     0.031 A 
HETATM    7  C   UNL     1      27.082  41.498  51.334  1.00  0.00     0.035 A 
HETATM    8  C   UNL     1      28.137  41.801  52.335  1.00  0.00     0.070 C 
HETATM    9  N   UNL     1      26.840  40.209  50.934  1.00  0.00    -0.282 N 
HETATM   10  H   UNL     1      27.308  39.354  51.225  1.00  0.00     0.189 HD
HETATM   11  N   UNL     1      25.852  40.116  50.040  1.00  0.00    -0.179 NA
HETATM   12  C   UNL     1      25.417  41.362  49.870  1.00  0.00     0.061 A 
HETATM   13  C   UNL     1      24.285  41.620  48.939  1.00  0.00     0.073 C 
ENDBRANCH   5   6
BRANCH   5  14
HETATM   14  N   UNL     1      27.192  44.462  50.191  1.00  0.00    -0.062 N 
HETATM   15  H   UNL     1      27.964  43.799  50.065  1.00  0.00     0.275 HD
HETATM   16  H   UNL     1      26.974  44.819  49.250  1.00  0.00     0.275 HD
HETATM   17  H   UNL     1      27.477  45.240  50.792  1.00  0.00     0.275 HD
ENDBRANCH   5  14
ENDBRANCH   1   5
BRANCH   2  18
HETATM   18  C   UNL     1      26.314  45.802  53.964  1.00  0.00     0.127 C 
BRANCH  18  19
HETATM   19  C   UNL     1      27.548  46.548  54.482  1.00  0.00     0.058 C 
BRANCH  19  20
HETATM   20  C   UNL     1      28.612  45.645  55.067  1.00  0.00    -0.056 A 
HETATM   21  C   UNL     1      29.150  45.914  56.334  1.00  0.00     0.023 A 
HETATM   22  C   UNL     1      30.153  45.099  56.884  1.00  0.00     0.048 A 
HETATM   23  C   UNL     1      30.611  43.997  56.148  1.00  0.00     0.016 A 
HETATM   24  C   UNL     1      30.088  43.727  54.884  1.00  0.00     0.001 A 
HETATM   25  C   UNL     1      29.098  44.548  54.344  1.00  0.00     0.007 A 
BRANCH  22  26
HETATM   26  C   UNL     1      30.736  45.386  58.248  1.00  0.00     0.417 C 
HETATM   27  F   UNL     1      31.890  44.704  58.493  1.00  0.00    -0.166 F 
HETATM   28  F   UNL     1      31.049  46.703  58.399  1.00  0.00    -0.166 F 
HETATM   29  F   UNL     1      29.889  45.076  59.264  1.00  0.00    -0.166 F 
ENDBRANCH  22  26
ENDBRANCH  19  20
ENDBRANCH  18  19
ENDBRANCH   2  18
TORSDOF 7
ENDMDL
