MODEL 1
REMARK VINA RESULT:      -9.7      0.000      0.000
REMARK  8 active torsions:
REMARK  status: ('A' for Active; 'I' for Inactive)
REMARK    1  A    between atoms: O_2  and  C_3 
REMARK    2  A    between atoms: C_4  and  O_5 
REMARK    3  A    between atoms: C_8  and  C_9 
REMARK       I    between atoms: C_9  and  N_10 
REMARK    4  A    between atoms: N_10  and  N_11 
REMARK       I    between atoms: N_11  and  C_12 
REMARK    5  A    between atoms: C_12  and  C_13 
REMARK    6  A    between atoms: C_13  and  S_14 
REMARK    7  A    between atoms: S_14  and  C_15 
REMARK    8  A    between atoms: C_18  and  C_19 
ROOT
HETATM    1  N   UNL     1      23.821  47.019  49.162  1.00  0.00    -0.267 N 
HETATM    2  C   UNL     1      24.884  47.013  50.044  1.00  0.00     0.245 C 
HETATM    3  O   UNL     1      24.985  47.832  50.960  1.00  0.00    -0.271 OA
HETATM    4  H   UNL     1      23.561  46.143  48.685  1.00  0.00     0.190 HD
ENDROOT
BRANCH   2   5
HETATM    5  C   UNL     1      25.926  45.945  49.775  1.00  0.00     0.187 C 
BRANCH   5   6
HETATM    6  S   UNL     1      25.303  44.303  50.232  1.00  0.00    -0.083 SA
BRANCH   6   7
HETATM    7  C   UNL     1      25.736  44.253  51.897  1.00  0.00     0.167 A 
HETATM    8  N   UNL     1      24.925  44.265  52.924  1.00  0.00    -0.235 NA
HETATM    9  C   UNL     1      25.757  44.257  54.019  1.00  0.00     0.149 A 
HETATM   10  C   UNL     1      27.092  44.212  53.648  1.00  0.00     0.062 A 
HETATM   11  N   UNL     1      27.044  44.217  52.271  1.00  0.00    -0.333 N 
HETATM   12  H   UNL     1      27.829  44.227  51.638  1.00  0.00     0.168 HD
BRANCH  10  13
HETATM   13  C   UNL     1      28.323  44.197  54.430  1.00  0.00    -0.008 A 
HETATM   14  C   UNL     1      29.224  43.124  54.343  1.00  0.00     0.017 A 
HETATM   15  C   UNL     1      30.400  43.120  55.098  1.00  0.00     0.043 A 
HETATM   16  C   UNL     1      30.678  44.187  55.940  1.00  0.00     0.116 A 
HETATM   17  F   UNL     1      31.806  44.183  56.663  1.00  0.00    -0.206 F 
HETATM   18  C   UNL     1      29.801  45.259  56.046  1.00  0.00     0.043 A 
HETATM   19  C   UNL     1      28.624  45.263  55.294  1.00  0.00     0.017 A 
ENDBRANCH  10  13
ENDBRANCH   6   7
ENDBRANCH   5   6
ENDBRANCH   2   5
BRANCH   1  20
HETATM   20  N   UNL     1      22.769  47.905  49.435  1.00  0.00    -0.263 N 
HETATM   21  C   UNL     1      22.567  48.981  48.593  1.00  0.00     0.270 C 
HETATM   22  O   UNL     1      23.278  49.203  47.616  1.00  0.00    -0.266 OA
HETATM   23  H   UNL     1      22.114  47.596  50.150  1.00  0.00     0.190 HD
BRANCH  21  24
HETATM   24  C   UNL     1      21.418  49.885  48.908  1.00  0.00     0.036 A 
HETATM   25  C   UNL     1      20.475  49.443  49.851  1.00  0.00     0.056 A 
HETATM   26  C   UNL     1      19.352  50.217  50.186  1.00  0.00     0.102 A 
HETATM   27  C   UNL     1      19.194  51.476  49.581  1.00  0.00     0.101 A 
HETATM   28  C   UNL     1      20.122  51.903  48.622  1.00  0.00     0.040 A 
HETATM   29  C   UNL     1      21.226  51.118  48.281  1.00  0.00     0.020 A 
BRANCH  26  30
HETATM   30  O   UNL     1      18.392  49.799  51.068  1.00  0.00    -0.353 OA
HETATM   31  C   UNL     1      18.463  48.463  51.551  1.00  0.00     0.210 C 
ENDBRANCH  26  30
BRANCH  27  32
HETATM   32  O   UNL     1      18.179  52.378  49.767  1.00  0.00    -0.353 OA
HETATM   33  C   UNL     1      17.050  52.290  48.909  1.00  0.00     0.210 C 
ENDBRANCH  27  32
ENDBRANCH  21  24
ENDBRANCH   1  20
TORSDOF 8
ENDMDL
MODEL 2
REMARK VINA RESULT:      -9.4      1.020      1.587
REMARK  8 active torsions:
REMARK  status: ('A' for Active; 'I' for Inactive)
REMARK    1  A    between atoms: O_2  and  C_3 
REMARK    2  A    between atoms: C_4  and  O_5 
REMARK    3  A    between atoms: C_8  and  C_9 
REMARK       I    between atoms: C_9  and  N_10 
REMARK    4  A    between atoms: N_10  and  N_11 
REMARK       I    between atoms: N_11  and  C_12 
REMARK    5  A    between atoms: C_12  and  C_13 
REMARK    6  A    between atoms: C_13  and  S_14 
REMARK    7  A    between atoms: S_14  and  C_15 
REMARK    8  A    between atoms: C_18  and  C_19 
ROOT
HETATM    1  N   UNL     1      23.788  46.662  49.567  1.00  0.00    -0.267 N 
HETATM    2  C   UNL     1      24.754  46.664  50.555  1.00  0.00     0.245 C 
HETATM    3  O   UNL     1      24.800  47.533  51.430  1.00  0.00    -0.271 OA
HETATM    4  H   UNL     1      23.537  45.771  49.115  1.00  0.00     0.190 HD
ENDROOT
BRANCH   2   5
HETATM    5  C   UNL     1      25.766  45.540  50.456  1.00  0.00     0.187 C 
BRANCH   5   6
HETATM    6  S   UNL     1      25.473  44.291  51.739  1.00  0.00    -0.083 SA
BRANCH   6   7
HETATM    7  C   UNL     1      27.081  44.018  52.288  1.00  0.00     0.167 A 
HETATM    8  N   UNL     1      28.059  43.462  51.619  1.00  0.00    -0.235 NA
HETATM    9  C   UNL     1      29.111  43.437  52.504  1.00  0.00     0.149 A 
HETATM   10  C   UNL     1      28.770  44.010  53.719  1.00  0.00     0.062 A 
HETATM   11  N   UNL     1      27.452  44.369  53.549  1.00  0.00    -0.333 N 
HETATM   12  H   UNL     1      26.843  44.787  54.237  1.00  0.00     0.168 HD
BRANCH  10  13
HETATM   13  C   UNL     1      29.525  44.205  54.953  1.00  0.00    -0.008 A 
HETATM   14  C   UNL     1      29.337  45.350  55.744  1.00  0.00     0.017 A 
HETATM   15  C   UNL     1      30.066  45.527  56.923  1.00  0.00     0.043 A 
HETATM   16  C   UNL     1      30.983  44.561  57.314  1.00  0.00     0.116 A 
HETATM   17  F   UNL     1      31.682  44.732  58.444  1.00  0.00    -0.206 F 
HETATM   18  C   UNL     1      31.190  43.422  56.546  1.00  0.00     0.043 A 
HETATM   19  C   UNL     1      30.463  43.246  55.366  1.00  0.00     0.017 A 
ENDBRANCH  10  13
ENDBRANCH   6   7
ENDBRANCH   5   6
ENDBRANCH   2   5
BRANCH   1  20
HETATM   20  N   UNL     1      22.758  47.607  49.679  1.00  0.00    -0.263 N 
HETATM   21  C   UNL     1      22.791  48.729  48.875  1.00  0.00     0.270 C 
HETATM   22  O   UNL     1      23.693  48.943  48.069  1.00  0.00    -0.266 OA
HETATM   23  H   UNL     1      21.958  47.313  50.234  1.00  0.00     0.190 HD
BRANCH  21  24
HETATM   24  C   UNL     1      21.658  49.696  49.009  1.00  0.00     0.036 A 
HETATM   25  C   UNL     1      20.614  49.365  49.890  1.00  0.00     0.056 A 
HETATM   26  C   UNL     1      19.500  50.203  50.057  1.00  0.00     0.102 A 
HETATM   27  C   UNL     1      19.453  51.414  49.345  1.00  0.00     0.101 A 
HETATM   28  C   UNL     1      20.483  51.730  48.450  1.00  0.00     0.040 A 
HETATM   29  C   UNL     1      21.579  50.881  48.276  1.00  0.00     0.020 A 
BRANCH  26  30
HETATM   30  O   UNL     1      18.445  49.892  50.872  1.00  0.00    -0.353 OA
HETATM   31  C   UNL     1      18.420  48.602  51.470  1.00  0.00     0.210 C 
ENDBRANCH  26  30
BRANCH  27  32
HETATM   32  O   UNL     1      18.466  52.365  49.365  1.00  0.00    -0.353 OA
HETATM   33  C   UNL     1      17.299  52.122  48.592  1.00  0.00     0.210 C 
ENDBRANCH  27  32
ENDBRANCH  21  24
ENDBRANCH   1  20
TORSDOF 8
ENDMDL
MODEL 3
REMARK VINA RESULT:      -9.2      1.516      1.578
REMARK  8 active torsions:
REMARK  status: ('A' for Active; 'I' for Inactive)
REMARK    1  A    between atoms: O_2  and  C_3 
REMARK    2  A    between atoms: C_4  and  O_5 
REMARK    3  A    between atoms: C_8  and  C_9 
REMARK       I    between atoms: C_9  and  N_10 
REMARK    4  A    between atoms: N_10  and  N_11 
REMARK       I    between atoms: N_11  and  C_12 
REMARK    5  A    between atoms: C_12  and  C_13 
REMARK    6  A    between atoms: C_13  and  S_14 
REMARK    7  A    between atoms: S_14  and  C_15 
REMARK    8  A    between atoms: C_18  and  C_19 
ROOT
HETATM    1  N   UNL     1      23.679  47.059  49.638  1.00  0.00    -0.267 N 
HETATM    2  C   UNL     1      24.997  47.456  49.753  1.00  0.00     0.245 C 
HETATM    3  O   UNL     1      25.340  48.637  49.659  1.00  0.00    -0.271 OA
HETATM    4  H   UNL     1      23.380  46.182  50.090  1.00  0.00     0.190 HD
ENDROOT
BRANCH   2   5
HETATM    5  C   UNL     1      25.984  46.326  49.969  1.00  0.00     0.187 C 
BRANCH   5   6
HETATM    6  S   UNL     1      25.273  45.039  51.032  1.00  0.00    -0.083 SA
BRANCH   6   7
HETATM    7  C   UNL     1      26.043  45.402  52.527  1.00  0.00     0.167 A 
HETATM    8  N   UNL     1      25.668  46.287  53.414  1.00  0.00    -0.235 NA
HETATM    9  C   UNL     1      26.630  46.224  54.394  1.00  0.00     0.149 A 
HETATM   10  C   UNL     1      27.590  45.265  54.106  1.00  0.00     0.062 A 
HETATM   11  N   UNL     1      27.185  44.757  52.892  1.00  0.00    -0.333 N 
HETATM   12  H   UNL     1      27.657  44.057  52.340  1.00  0.00     0.168 HD
BRANCH  10  13
HETATM   13  C   UNL     1      28.790  44.840  54.819  1.00  0.00    -0.008 A 
HETATM   14  C   UNL     1      29.385  43.595  54.558  1.00  0.00     0.017 A 
HETATM   15  C   UNL     1      30.534  43.198  55.247  1.00  0.00     0.043 A 
HETATM   16  C   UNL     1      31.090  44.043  56.198  1.00  0.00     0.116 A 
HETATM   17  F   UNL     1      32.191  43.662  56.858  1.00  0.00    -0.206 F 
HETATM   18  C   UNL     1      30.518  45.278  56.476  1.00  0.00     0.043 A 
HETATM   19  C   UNL     1      29.368  45.675  55.789  1.00  0.00     0.017 A 
ENDBRANCH  10  13
ENDBRANCH   6   7
ENDBRANCH   5   6
ENDBRANCH   2   5
BRANCH   1  20
HETATM   20  N   UNL     1      22.711  48.071  49.560  1.00  0.00    -0.263 N 
HETATM   21  C   UNL     1      22.094  48.311  48.348  1.00  0.00     0.270 C 
HETATM   22  O   UNL     1      22.364  47.681  47.328  1.00  0.00    -0.266 OA
HETATM   23  H   UNL     1      22.406  48.451  50.452  1.00  0.00     0.190 HD
BRANCH  21  24
HETATM   24  C   UNL     1      21.050  49.381  48.315  1.00  0.00     0.036 A 
HETATM   25  C   UNL     1      19.777  49.040  47.827  1.00  0.00     0.056 A 
HETATM   26  C   UNL     1      18.746  49.989  47.739  1.00  0.00     0.102 A 
HETATM   27  C   UNL     1      18.994  51.301  48.179  1.00  0.00     0.101 A 
HETATM   28  C   UNL     1      20.271  51.643  48.642  1.00  0.00     0.040 A 
HETATM   29  C   UNL     1      21.297  50.698  48.710  1.00  0.00     0.020 A 
BRANCH  26  30
HETATM   30  O   UNL     1      17.508  49.703  47.229  1.00  0.00    -0.353 OA
HETATM   31  C   UNL     1      16.566  49.059  48.078  1.00  0.00     0.210 C 
ENDBRANCH  26  30
BRANCH  27  32
HETATM   32  O   UNL     1      18.133  52.367  48.179  1.00  0.00    -0.353 OA
HETATM   33  C   UNL     1      17.516  52.718  49.410  1.00  0.00     0.210 C 
ENDBRANCH  27  32
ENDBRANCH  21  24
ENDBRANCH   1  20
TORSDOF 8
ENDMDL
MODEL 4
REMARK VINA RESULT:      -8.9      4.239     10.359
REMARK  8 active torsions:
REMARK  status: ('A' for Active; 'I' for Inactive)
REMARK    1  A    between atoms: O_2  and  C_3 
REMARK    2  A    between atoms: C_4  and  O_5 
REMARK    3  A    between atoms: C_8  and  C_9 
REMARK       I    between atoms: C_9  and  N_10 
REMARK    4  A    between atoms: N_10  and  N_11 
REMARK       I    between atoms: N_11  and  C_12 
REMARK    5  A    between atoms: C_12  and  C_13 
REMARK    6  A    between atoms: C_13  and  S_14 
REMARK    7  A    between atoms: S_14  and  C_15 
REMARK    8  A    between atoms: C_18  and  C_19 
ROOT
HETATM    1  N   UNL     1      24.139  45.255  50.935  1.00  0.00    -0.267 N 
HETATM    2  C   UNL     1      23.479  44.084  50.613  1.00  0.00     0.245 C 
HETATM    3  O   UNL     1      23.857  42.982  51.016  1.00  0.00    -0.271 OA
HETATM    4  H   UNL     1      23.616  46.143  50.926  1.00  0.00     0.190 HD
ENDROOT
BRANCH   2   5
HETATM    5  C   UNL     1      22.280  44.262  49.702  1.00  0.00     0.187 C 
BRANCH   5   6
HETATM    6  S   UNL     1      22.756  45.089  48.159  1.00  0.00    -0.083 SA
BRANCH   6   7
HETATM    7  C   UNL     1      22.663  46.738  48.642  1.00  0.00     0.167 A 
HETATM    8  N   UNL     1      23.653  47.508  49.014  1.00  0.00    -0.235 NA
HETATM    9  C   UNL     1      23.055  48.704  49.338  1.00  0.00     0.149 A 
HETATM   10  C   UNL     1      21.685  48.664  49.132  1.00  0.00     0.062 A 
HETATM   11  N   UNL     1      21.463  47.379  48.689  1.00  0.00    -0.333 N 
HETATM   12  H   UNL     1      20.572  46.959  48.468  1.00  0.00     0.168 HD
BRANCH  10  13
HETATM   13  C   UNL     1      20.637  49.658  49.335  1.00  0.00    -0.008 A 
HETATM   14  C   UNL     1      19.474  49.348  50.057  1.00  0.00     0.017 A 
HETATM   15  C   UNL     1      18.476  50.308  50.245  1.00  0.00     0.043 A 
HETATM   16  C   UNL     1      18.639  51.579  49.712  1.00  0.00     0.116 A 
HETATM   17  F   UNL     1      17.682  52.499  49.892  1.00  0.00    -0.206 F 
HETATM   18  C   UNL     1      19.779  51.910  48.991  1.00  0.00     0.043 A 
HETATM   19  C   UNL     1      20.776  50.949  48.801  1.00  0.00     0.017 A 
ENDBRANCH  10  13
ENDBRANCH   6   7
ENDBRANCH   5   6
ENDBRANCH   2   5
BRANCH   1  20
HETATM   20  N   UNL     1      25.180  45.164  51.871  1.00  0.00    -0.263 N 
HETATM   21  C   UNL     1      25.636  46.319  52.475  1.00  0.00     0.270 C 
HETATM   22  O   UNL     1      25.175  47.430  52.220  1.00  0.00    -0.266 OA
HETATM   23  H   UNL     1      25.417  44.221  52.168  1.00  0.00     0.190 HD
BRANCH  21  24
HETATM   24  C   UNL     1      26.729  46.173  53.485  1.00  0.00     0.036 A 
HETATM   25  C   UNL     1      27.331  44.910  53.622  1.00  0.00     0.056 A 
HETATM   26  C   UNL     1      28.346  44.679  54.564  1.00  0.00     0.102 A 
HETATM   27  C   UNL     1      28.785  45.749  55.362  1.00  0.00     0.101 A 
HETATM   28  C   UNL     1      28.166  47.000  55.240  1.00  0.00     0.040 A 
HETATM   29  C   UNL     1      27.144  47.217  54.314  1.00  0.00     0.020 A 
BRANCH  26  30
HETATM   30  O   UNL     1      28.924  43.452  54.754  1.00  0.00    -0.353 OA
HETATM   31  C   UNL     1      30.145  43.175  54.079  1.00  0.00     0.210 C 
ENDBRANCH  26  30
BRANCH  27  32
HETATM   32  O   UNL     1      29.754  45.735  56.331  1.00  0.00    -0.353 OA
HETATM   33  C   UNL     1      29.361  46.036  57.663  1.00  0.00     0.210 C 
ENDBRANCH  27  32
ENDBRANCH  21  24
ENDBRANCH   1  20
TORSDOF 8
ENDMDL
MODEL 5
REMARK VINA RESULT:      -8.6      1.858      2.512
REMARK  8 active torsions:
REMARK  status: ('A' for Active; 'I' for Inactive)
REMARK    1  A    between atoms: O_2  and  C_3 
REMARK    2  A    between atoms: C_4  and  O_5 
REMARK    3  A    between atoms: C_8  and  C_9 
REMARK       I    between atoms: C_9  and  N_10 
REMARK    4  A    between atoms: N_10  and  N_11 
REMARK       I    between atoms: N_11  and  C_12 
REMARK    5  A    between atoms: C_12  and  C_13 
REMARK    6  A    between atoms: C_13  and  S_14 
REMARK    7  A    between atoms: S_14  and  C_15 
REMARK    8  A    between atoms: C_18  and  C_19 
ROOT
HETATM    1  N   UNL     1      24.152  45.985  50.025  1.00  0.00    -0.267 N 
HETATM    2  C   UNL     1      24.669  44.852  49.428  1.00  0.00     0.245 C 
HETATM    3  O   UNL     1      24.137  44.320  48.451  1.00  0.00    -0.271 OA
HETATM    4  H   UNL     1      24.784  46.606  50.551  1.00  0.00     0.190 HD
ENDROOT
BRANCH   2   5
HETATM    5  C   UNL     1      25.917  44.300  50.089  1.00  0.00     0.187 C 
BRANCH   5   6
HETATM    6  S   UNL     1      25.632  43.990  51.854  1.00  0.00    -0.083 SA
BRANCH   6   7
HETATM    7  C   UNL     1      27.252  43.821  52.411  1.00  0.00     0.167 A 
HETATM    8  N   UNL     1      28.269  43.339  51.743  1.00  0.00    -0.235 NA
HETATM    9  C   UNL     1      29.314  43.376  52.636  1.00  0.00     0.149 A 
HETATM   10  C   UNL     1      28.928  43.913  53.854  1.00  0.00     0.062 A 
HETATM   11  N   UNL     1      27.589  44.184  53.677  1.00  0.00    -0.333 N 
HETATM   12  H   UNL     1      26.950  44.553  54.365  1.00  0.00     0.168 HD
BRANCH  10  13
HETATM   13  C   UNL     1      29.660  44.147  55.095  1.00  0.00    -0.008 A 
HETATM   14  C   UNL     1      30.646  43.249  55.535  1.00  0.00     0.017 A 
HETATM   15  C   UNL     1      31.340  43.483  56.725  1.00  0.00     0.043 A 
HETATM   16  C   UNL     1      31.050  44.613  57.477  1.00  0.00     0.116 A 
HETATM   17  F   UNL     1      31.716  44.836  58.618  1.00  0.00    -0.206 F 
HETATM   18  C   UNL     1      30.077  45.514  57.065  1.00  0.00     0.043 A 
HETATM   19  C   UNL     1      29.381  45.280  55.876  1.00  0.00     0.017 A 
ENDBRANCH  10  13
ENDBRANCH   6   7
ENDBRANCH   5   6
ENDBRANCH   2   5
BRANCH   1  20
HETATM   20  N   UNL     1      23.070  46.608  49.385  1.00  0.00    -0.263 N 
HETATM   21  C   UNL     1      23.014  47.987  49.361  1.00  0.00     0.270 C 
HETATM   22  O   UNL     1      23.868  48.697  49.887  1.00  0.00    -0.266 OA
HETATM   23  H   UNL     1      22.481  45.993  48.829  1.00  0.00     0.190 HD
BRANCH  21  24
HETATM   24  C   UNL     1      21.858  48.609  48.645  1.00  0.00     0.036 A 
HETATM   25  C   UNL     1      21.506  49.926  48.987  1.00  0.00     0.056 A 
HETATM   26  C   UNL     1      20.418  50.576  48.382  1.00  0.00     0.102 A 
HETATM   27  C   UNL     1      19.690  49.897  47.390  1.00  0.00     0.101 A 
HETATM   28  C   UNL     1      20.028  48.575  47.070  1.00  0.00     0.040 A 
HETATM   29  C   UNL     1      21.100  47.929  47.689  1.00  0.00     0.020 A 
BRANCH  26  30
HETATM   30  O   UNL     1      20.021  51.842  48.721  1.00  0.00    -0.353 OA
HETATM   31  C   UNL     1      18.929  51.982  49.622  1.00  0.00     0.210 C 
ENDBRANCH  26  30
BRANCH  27  32
HETATM   32  O   UNL     1      18.606  50.347  46.684  1.00  0.00    -0.353 OA
HETATM   33  C   UNL     1      17.331  49.816  47.020  1.00  0.00     0.210 C 
ENDBRANCH  27  32
ENDBRANCH  21  24
ENDBRANCH   1  20
TORSDOF 8
ENDMDL
MODEL 6
REMARK VINA RESULT:      -8.6      4.783     11.500
REMARK  8 active torsions:
REMARK  status: ('A' for Active; 'I' for Inactive)
REMARK    1  A    between atoms: O_2  and  C_3 
REMARK    2  A    between atoms: C_4  and  O_5 
REMARK    3  A    between atoms: C_8  and  C_9 
REMARK       I    between atoms: C_9  and  N_10 
REMARK    4  A    between atoms: N_10  and  N_11 
REMARK       I    between atoms: N_11  and  C_12 
REMARK    5  A    between atoms: C_12  and  C_13 
REMARK    6  A    between atoms: C_13  and  S_14 
REMARK    7  A    between atoms: S_14  and  C_15 
REMARK    8  A    between atoms: C_18  and  C_19 
ROOT
HETATM    1  N   UNL     1      24.646  46.649  51.053  1.00  0.00    -0.267 N 
HETATM    2  C   UNL     1      24.955  47.490  50.001  1.00  0.00     0.245 C 
HETATM    3  O   UNL     1      26.084  47.960  49.842  1.00  0.00    -0.271 OA
HETATM    4  H   UNL     1      23.861  45.990  50.951  1.00  0.00     0.190 HD
ENDROOT
BRANCH   2   5
HETATM    5  C   UNL     1      23.792  47.813  49.083  1.00  0.00     0.187 C 
BRANCH   5   6
HETATM    6  S   UNL     1      23.956  49.482  48.392  1.00  0.00    -0.083 SA
BRANCH   6   7
HETATM    7  C   UNL     1      22.624  50.269  49.145  1.00  0.00     0.167 A 
HETATM    8  N   UNL     1      22.541  50.661  50.390  1.00  0.00    -0.235 NA
HETATM    9  C   UNL     1      21.274  51.184  50.502  1.00  0.00     0.149 A 
HETATM   10  C   UNL     1      20.590  51.130  49.298  1.00  0.00     0.062 A 
HETATM   11  N   UNL     1      21.487  50.529  48.444  1.00  0.00    -0.333 N 
HETATM   12  H   UNL     1      21.333  50.284  47.477  1.00  0.00     0.168 HD
BRANCH  10  13
HETATM   13  C   UNL     1      19.242  51.543  48.920  1.00  0.00    -0.008 A 
HETATM   14  C   UNL     1      18.802  51.451  47.590  1.00  0.00     0.017 A 
HETATM   15  C   UNL     1      17.509  51.850  47.240  1.00  0.00     0.043 A 
HETATM   16  C   UNL     1      16.655  52.343  48.217  1.00  0.00     0.116 A 
HETATM   17  F   UNL     1      15.417  52.726  47.881  1.00  0.00    -0.206 F 
HETATM   18  C   UNL     1      17.069  52.447  49.539  1.00  0.00     0.043 A 
HETATM   19  C   UNL     1      18.362  52.050  49.889  1.00  0.00     0.017 A 
ENDBRANCH  10  13
ENDBRANCH   6   7
ENDBRANCH   5   6
ENDBRANCH   2   5
BRANCH   1  20
HETATM   20  N   UNL     1      25.708  46.221  51.862  1.00  0.00    -0.263 N 
HETATM   21  C   UNL     1      25.942  46.873  53.056  1.00  0.00     0.270 C 
HETATM   22  O   UNL     1      25.262  47.822  53.440  1.00  0.00    -0.266 OA
HETATM   23  H   UNL     1      26.136  45.340  51.587  1.00  0.00     0.190 HD
BRANCH  21  24
HETATM   24  C   UNL     1      27.068  46.366  53.900  1.00  0.00     0.036 A 
HETATM   25  C   UNL     1      27.532  45.061  53.658  1.00  0.00     0.056 A 
HETATM   26  C   UNL     1      28.567  44.497  54.421  1.00  0.00     0.102 A 
HETATM   27  C   UNL     1      29.169  45.275  55.425  1.00  0.00     0.101 A 
HETATM   28  C   UNL     1      28.688  46.566  55.679  1.00  0.00     0.040 A 
HETATM   29  C   UNL     1      27.644  47.113  54.929  1.00  0.00     0.020 A 
BRANCH  26  30
HETATM   30  O   UNL     1      29.014  43.215  54.242  1.00  0.00    -0.353 OA
HETATM   31  C   UNL     1      29.601  42.879  52.991  1.00  0.00     0.210 C 
ENDBRANCH  26  30
BRANCH  27  32
HETATM   32  O   UNL     1      30.185  44.917  56.272  1.00  0.00    -0.353 OA
HETATM   33  C   UNL     1      30.239  45.552  57.543  1.00  0.00     0.210 C 
ENDBRANCH  27  32
ENDBRANCH  21  24
ENDBRANCH   1  20
TORSDOF 8
ENDMDL
MODEL 7
REMARK VINA RESULT:      -8.3      5.551      9.171
REMARK  8 active torsions:
REMARK  status: ('A' for Active; 'I' for Inactive)
REMARK    1  A    between atoms: O_2  and  C_3 
REMARK    2  A    between atoms: C_4  and  O_5 
REMARK    3  A    between atoms: C_8  and  C_9 
REMARK       I    between atoms: C_9  and  N_10 
REMARK    4  A    between atoms: N_10  and  N_11 
REMARK       I    between atoms: N_11  and  C_12 
REMARK    5  A    between atoms: C_12  and  C_13 
REMARK    6  A    between atoms: C_13  and  S_14 
REMARK    7  A    between atoms: S_14  and  C_15 
REMARK    8  A    between atoms: C_18  and  C_19 
ROOT
HETATM    1  N   UNL     1      25.782  44.378  50.517  1.00  0.00    -0.267 N 
HETATM    2  C   UNL     1      26.621  45.450  50.279  1.00  0.00     0.245 C 
HETATM    3  O   UNL     1      27.630  45.354  49.575  1.00  0.00    -0.271 OA
HETATM    4  H   UNL     1      24.797  44.558  50.758  1.00  0.00     0.190 HD
ENDROOT
BRANCH   2   5
HETATM    5  C   UNL     1      26.222  46.735  50.975  1.00  0.00     0.187 C 
BRANCH   5   6
HETATM    6  S   UNL     1      25.316  46.387  52.508  1.00  0.00    -0.083 SA
BRANCH   6   7
HETATM    7  C   UNL     1      26.568  46.594  53.670  1.00  0.00     0.167 A 
HETATM    8  N   UNL     1      26.906  47.703  54.277  1.00  0.00    -0.235 NA
HETATM    9  C   UNL     1      27.979  47.352  55.062  1.00  0.00     0.149 A 
HETATM   10  C   UNL     1      28.279  46.004  54.947  1.00  0.00     0.062 A 
HETATM   11  N   UNL     1      27.353  45.545  54.036  1.00  0.00    -0.333 N 
HETATM   12  H   UNL     1      27.278  44.608  53.668  1.00  0.00     0.168 HD
BRANCH  10  13
HETATM   13  C   UNL     1      29.313  45.177  55.560  1.00  0.00    -0.008 A 
HETATM   14  C   UNL     1      29.930  45.561  56.761  1.00  0.00     0.017 A 
HETATM   15  C   UNL     1      30.920  44.761  57.339  1.00  0.00     0.043 A 
HETATM   16  C   UNL     1      31.296  43.578  56.717  1.00  0.00     0.116 A 
HETATM   17  F   UNL     1      32.245  42.813  57.271  1.00  0.00    -0.206 F 
HETATM   18  C   UNL     1      30.703  43.179  55.526  1.00  0.00     0.043 A 
HETATM   19  C   UNL     1      29.714  43.979  54.947  1.00  0.00     0.017 A 
ENDBRANCH  10  13
ENDBRANCH   6   7
ENDBRANCH   5   6
ENDBRANCH   2   5
BRANCH   1  20
HETATM   20  N   UNL     1      26.035  43.198  49.802  1.00  0.00    -0.263 N 
HETATM   21  C   UNL     1      26.612  42.130  50.461  1.00  0.00     0.270 C 
HETATM   22  O   UNL     1      26.925  42.171  51.649  1.00  0.00    -0.266 OA
HETATM   23  H   UNL     1      25.616  43.152  48.877  1.00  0.00     0.190 HD
BRANCH  21  24
HETATM   24  C   UNL     1      26.839  40.883  49.667  1.00  0.00     0.036 A 
HETATM   25  C   UNL     1      28.062  40.211  49.837  1.00  0.00     0.056 A 
HETATM   26  C   UNL     1      28.368  39.048  49.112  1.00  0.00     0.102 A 
HETATM   27  C   UNL     1      27.409  38.534  48.222  1.00  0.00     0.101 A 
HETATM   28  C   UNL     1      26.202  39.220  48.037  1.00  0.00     0.040 A 
HETATM   29  C   UNL     1      25.913  40.387  48.748  1.00  0.00     0.020 A 
BRANCH  26  30
HETATM   30  O   UNL     1      29.565  38.393  49.220  1.00  0.00    -0.353 OA
HETATM   31  C   UNL     1      29.786  37.588  50.371  1.00  0.00     0.210 C 
ENDBRANCH  26  30
BRANCH  27  32
HETATM   32  O   UNL     1      27.508  37.422  47.428  1.00  0.00    -0.353 OA
HETATM   33  C   UNL     1      26.828  36.247  47.849  1.00  0.00     0.210 C 
ENDBRANCH  27  32
ENDBRANCH  21  24
ENDBRANCH   1  20
TORSDOF 8
ENDMDL
MODEL 8
REMARK VINA RESULT:      -8.1      4.232     10.854
REMARK  8 active torsions:
REMARK  status: ('A' for Active; 'I' for Inactive)
REMARK    1  A    between atoms: O_2  and  C_3 
REMARK    2  A    between atoms: C_4  and  O_5 
REMARK    3  A    between atoms: C_8  and  C_9 
REMARK       I    between atoms: C_9  and  N_10 
REMARK    4  A    between atoms: N_10  and  N_11 
REMARK       I    between atoms: N_11  and  C_12 
REMARK    5  A    between atoms: C_12  and  C_13 
REMARK    6  A    between atoms: C_13  and  S_14 
REMARK    7  A    between atoms: S_14  and  C_15 
REMARK    8  A    between atoms: C_18  and  C_19 
ROOT
HETATM    1  N   UNL     1      26.085  43.848  50.675  1.00  0.00    -0.267 N 
HETATM    2  C   UNL     1      25.266  44.860  50.211  1.00  0.00     0.245 C 
HETATM    3  O   UNL     1      25.214  45.967  50.752  1.00  0.00    -0.271 OA
HETATM    4  H   UNL     1      26.397  43.117  50.019  1.00  0.00     0.190 HD
ENDROOT
BRANCH   2   5
HETATM    5  C   UNL     1      24.418  44.490  49.010  1.00  0.00     0.187 C 
BRANCH   5   6
HETATM    6  S   UNL     1      22.869  43.702  49.530  1.00  0.00    -0.083 SA
BRANCH   6   7
HETATM    7  C   UNL     1      21.720  44.828  48.918  1.00  0.00     0.167 A 
HETATM    8  N   UNL     1      20.660  44.563  48.199  1.00  0.00    -0.235 NA
HETATM    9  C   UNL     1      20.109  45.793  47.932  1.00  0.00     0.149 A 
HETATM   10  C   UNL     1      20.833  46.818  48.521  1.00  0.00     0.062 A 
HETATM   11  N   UNL     1      21.870  46.161  49.145  1.00  0.00    -0.333 N 
HETATM   12  H   UNL     1      22.634  46.581  49.654  1.00  0.00     0.168 HD
BRANCH  10  13
HETATM   13  C   UNL     1      20.656  48.266  48.518  1.00  0.00    -0.008 A 
HETATM   14  C   UNL     1      21.529  49.101  47.801  1.00  0.00     0.017 A 
HETATM   15  C   UNL     1      21.351  50.487  47.806  1.00  0.00     0.043 A 
HETATM   16  C   UNL     1      20.302  51.041  48.527  1.00  0.00     0.116 A 
HETATM   17  F   UNL     1      20.131  52.370  48.531  1.00  0.00    -0.206 F 
HETATM   18  C   UNL     1      19.427  50.237  49.246  1.00  0.00     0.043 A 
HETATM   19  C   UNL     1      19.606  48.851  49.243  1.00  0.00     0.017 A 
ENDBRANCH  10  13
ENDBRANCH   6   7
ENDBRANCH   5   6
ENDBRANCH   2   5
BRANCH   1  20
HETATM   20  N   UNL     1      26.979  44.173  51.706  1.00  0.00    -0.263 N 
HETATM   21  C   UNL     1      27.535  43.152  52.452  1.00  0.00     0.270 C 
HETATM   22  O   UNL     1      27.272  41.967  52.258  1.00  0.00    -0.266 OA
HETATM   23  H   UNL     1      27.289  45.141  51.724  1.00  0.00     0.190 HD
BRANCH  21  24
HETATM   24  C   UNL     1      28.503  43.541  53.523  1.00  0.00     0.036 A 
HETATM   25  C   UNL     1      28.249  44.725  54.238  1.00  0.00     0.056 A 
HETATM   26  C   UNL     1      29.120  45.177  55.242  1.00  0.00     0.102 A 
HETATM   27  C   UNL     1      30.252  44.406  55.554  1.00  0.00     0.101 A 
HETATM   28  C   UNL     1      30.516  43.240  54.822  1.00  0.00     0.040 A 
HETATM   29  C   UNL     1      29.654  42.806  53.812  1.00  0.00     0.020 A 
BRANCH  26  30
HETATM   30  O   UNL     1      28.926  46.346  55.928  1.00  0.00    -0.353 OA
HETATM   31  C   UNL     1      27.796  47.141  55.591  1.00  0.00     0.210 C 
ENDBRANCH  26  30
BRANCH  27  32
HETATM   32  O   UNL     1      31.218  44.667  56.490  1.00  0.00    -0.353 OA
HETATM   33  C   UNL     1      30.905  44.406  57.852  1.00  0.00     0.210 C 
ENDBRANCH  27  32
ENDBRANCH  21  24
ENDBRANCH   1  20
TORSDOF 8
ENDMDL
MODEL 9
REMARK VINA RESULT:      -8.1      5.373      8.738
REMARK  8 active torsions:
REMARK  status: ('A' for Active; 'I' for Inactive)
REMARK    1  A    between atoms: O_2  and  C_3 
REMARK    2  A    between atoms: C_4  and  O_5 
REMARK    3  A    between atoms: C_8  and  C_9 
REMARK       I    between atoms: C_9  and  N_10 
REMARK    4  A    between atoms: N_10  and  N_11 
REMARK       I    between atoms: N_11  and  C_12 
REMARK    5  A    between atoms: C_12  and  C_13 
REMARK    6  A    between atoms: C_13  and  S_14 
REMARK    7  A    between atoms: S_14  and  C_15 
REMARK    8  A    between atoms: C_18  and  C_19 
ROOT
HETATM    1  N   UNL     1      26.368  44.584  50.256  1.00  0.00    -0.267 N 
HETATM    2  C   UNL     1      26.750  45.884  49.986  1.00  0.00     0.245 C 
HETATM    3  O   UNL     1      27.585  46.160  49.122  1.00  0.00    -0.271 OA
HETATM    4  H   UNL     1      25.440  44.411  50.670  1.00  0.00     0.190 HD
ENDROOT
BRANCH   2   5
HETATM    5  C   UNL     1      26.088  46.934  50.857  1.00  0.00     0.187 C 
BRANCH   5   6
HETATM    6  S   UNL     1      25.217  46.163  52.250  1.00  0.00    -0.083 SA
BRANCH   6   7
HETATM    7  C   UNL     1      26.367  46.393  53.509  1.00  0.00     0.167 A 
HETATM    8  N   UNL     1      26.528  47.463  54.244  1.00  0.00    -0.235 NA
HETATM    9  C   UNL     1      27.592  47.162  55.062  1.00  0.00     0.149 A 
HETATM   10  C   UNL     1      28.064  45.879  54.835  1.00  0.00     0.062 A 
HETATM   11  N   UNL     1      27.256  45.412  53.822  1.00  0.00    -0.333 N 
HETATM   12  H   UNL     1      27.320  44.518  53.359  1.00  0.00     0.168 HD
BRANCH  10  13
HETATM   13  C   UNL     1      29.159  45.120  55.432  1.00  0.00    -0.008 A 
HETATM   14  C   UNL     1      29.607  43.920  54.857  1.00  0.00     0.017 A 
HETATM   15  C   UNL     1      30.656  43.202  55.438  1.00  0.00     0.043 A 
HETATM   16  C   UNL     1      31.258  43.681  56.593  1.00  0.00     0.116 A 
HETATM   17  F   UNL     1      32.263  42.992  57.149  1.00  0.00    -0.206 F 
HETATM   18  C   UNL     1      30.830  44.864  57.182  1.00  0.00     0.043 A 
HETATM   19  C   UNL     1      29.780  45.581  56.604  1.00  0.00     0.017 A 
ENDBRANCH  10  13
ENDBRANCH   6   7
ENDBRANCH   5   6
ENDBRANCH   2   5
BRANCH   1  20
HETATM   20  N   UNL     1      26.855  43.585  49.401  1.00  0.00    -0.263 N 
HETATM   21  C   UNL     1      26.414  42.287  49.572  1.00  0.00     0.270 C 
HETATM   22  O   UNL     1      25.617  41.966  50.450  1.00  0.00    -0.266 OA
HETATM   23  H   UNL     1      27.380  43.918  48.596  1.00  0.00     0.190 HD
BRANCH  21  24
HETATM   24  C   UNL     1      26.940  41.259  48.621  1.00  0.00     0.036 A 
HETATM   25  C   UNL     1      26.190  40.993  47.463  1.00  0.00     0.056 A 
HETATM   26  C   UNL     1      26.597  40.025  46.531  1.00  0.00     0.102 A 
HETATM   27  C   UNL     1      27.799  39.334  46.755  1.00  0.00     0.101 A 
HETATM   28  C   UNL     1      28.532  39.583  47.923  1.00  0.00     0.040 A 
HETATM   29  C   UNL     1      28.110  40.535  48.854  1.00  0.00     0.020 A 
BRANCH  26  30
HETATM   30  O   UNL     1      25.869  39.710  45.415  1.00  0.00    -0.353 OA
HETATM   31  C   UNL     1      25.562  40.753  44.499  1.00  0.00     0.210 C 
ENDBRANCH  26  30
BRANCH  27  32
HETATM   32  O   UNL     1      28.369  38.360  45.976  1.00  0.00    -0.353 OA
HETATM   33  C   UNL     1      28.664  37.112  46.589  1.00  0.00     0.210 C 
ENDBRANCH  27  32
ENDBRANCH  21  24
ENDBRANCH   1  20
TORSDOF 8
ENDMDL
MODEL 10
REMARK VINA RESULT:      -8.0      4.660     11.457
REMARK  8 active torsions:
REMARK  status: ('A' for Active; 'I' for Inactive)
REMARK    1  A    between atoms: O_2  and  C_3 
REMARK    2  A    between atoms: C_4  and  O_5 
REMARK    3  A    between atoms: C_8  and  C_9 
REMARK       I    between atoms: C_9  and  N_10 
REMARK    4  A    between atoms: N_10  and  N_11 
REMARK       I    between atoms: N_11  and  C_12 
REMARK    5  A    between atoms: C_12  and  C_13 
REMARK    6  A    between atoms: C_13  and  S_14 
REMARK    7  A    between atoms: S_14  and  C_15 
REMARK    8  A    between atoms: C_18  and  C_19 
ROOT
HETATM    1  N   UNL     1      24.007  46.521  50.124  1.00  0.00    -0.267 N 
HETATM    2  C   UNL     1      23.808  47.737  49.499  1.00  0.00     0.245 C 
HETATM    3  O   UNL     1      24.322  48.781  49.907  1.00  0.00    -0.271 OA
HETATM    4  H   UNL     1      23.906  45.655  49.576  1.00  0.00     0.190 HD
ENDROOT
BRANCH   2   5
HETATM    5  C   UNL     1      22.885  47.689  48.297  1.00  0.00     0.187 C 
BRANCH   5   6
HETATM    6  S   UNL     1      21.161  47.456  48.814  1.00  0.00    -0.083 SA
BRANCH   6   7
HETATM    7  C   UNL     1      20.611  49.086  48.827  1.00  0.00     0.167 A 
HETATM    8  N   UNL     1      21.349  50.167  48.815  1.00  0.00    -0.235 NA
HETATM    9  C   UNL     1      20.444  51.201  48.880  1.00  0.00     0.149 A 
HETATM   10  C   UNL     1      19.138  50.738  48.906  1.00  0.00     0.062 A 
HETATM   11  N   UNL     1      19.281  49.368  48.877  1.00  0.00    -0.333 N 
HETATM   12  H   UNL     1      18.544  48.681  48.919  1.00  0.00     0.168 HD
BRANCH  10  13
HETATM   13  C   UNL     1      17.857  51.431  48.981  1.00  0.00    -0.008 A 
HETATM   14  C   UNL     1      17.656  52.487  49.885  1.00  0.00     0.017 A 
HETATM   15  C   UNL     1      16.424  53.144  49.949  1.00  0.00     0.043 A 
HETATM   16  C   UNL     1      15.391  52.747  49.112  1.00  0.00     0.116 A 
HETATM   17  F   UNL     1      14.211  53.377  49.174  1.00  0.00    -0.206 F 
HETATM   18  C   UNL     1      15.564  51.703  48.212  1.00  0.00     0.043 A 
HETATM   19  C   UNL     1      16.794  51.045  48.149  1.00  0.00     0.017 A 
ENDBRANCH  10  13
ENDBRANCH   6   7
ENDBRANCH   5   6
ENDBRANCH   2   5
BRANCH   1  20
HETATM   20  N   UNL     1      24.946  46.485  51.165  1.00  0.00    -0.263 N 
HETATM   21  C   UNL     1      24.949  45.403  52.023  1.00  0.00     0.270 C 
HETATM   22  O   UNL     1      24.155  44.471  51.920  1.00  0.00    -0.266 OA
HETATM   23  H   UNL     1      25.679  47.188  51.115  1.00  0.00     0.190 HD
BRANCH  21  24
HETATM   24  C   UNL     1      25.984  45.393  53.103  1.00  0.00     0.036 A 
HETATM   25  C   UNL     1      26.157  46.566  53.857  1.00  0.00     0.056 A 
HETATM   26  C   UNL     1      27.123  46.652  54.872  1.00  0.00     0.102 A 
HETATM   27  C   UNL     1      27.911  45.522  55.152  1.00  0.00     0.101 A 
HETATM   28  C   UNL     1      27.754  44.362  54.382  1.00  0.00     0.040 A 
HETATM   29  C   UNL     1      26.802  44.292  53.362  1.00  0.00     0.020 A 
BRANCH  26  30
HETATM   30  O   UNL     1      27.348  47.792  55.597  1.00  0.00    -0.353 OA
HETATM   31  C   UNL     1      26.286  48.731  55.712  1.00  0.00     0.210 C 
ENDBRANCH  26  30
BRANCH  27  32
HETATM   32  O   UNL     1      28.900  45.397  56.093  1.00  0.00    -0.353 OA
HETATM   33  C   UNL     1      30.094  44.727  55.712  1.00  0.00     0.210 C 
ENDBRANCH  27  32
ENDBRANCH  21  24
ENDBRANCH   1  20
TORSDOF 8
ENDMDL
