MODEL 1
REMARK VINA RESULT:      -9.5      0.000      0.000
REMARK  6 active torsions:
REMARK  status: ('A' for Active; 'I' for Inactive)
REMARK    1  A    between atoms: C_2  and  O_3 
REMARK    2  A    between atoms: C_2  and  C_4 
REMARK    3  A    between atoms: C_2  and  C_11 
REMARK    4  A    between atoms: C_11  and  N_12 
REMARK       I    between atoms: N_12  and  C_13 
REMARK    5  A    between atoms: C_13  and  C_14 
REMARK    6  A    between atoms: C_15  and  C_16 
ROOT
HETATM    1  N   UNL     1      26.856  45.073  52.784  1.00  0.00    -0.354 N 
HETATM    2  C   UNL     1      26.039  46.116  52.406  1.00  0.00     0.255 C 
HETATM    3  O   UNL     1      26.121  47.232  52.905  1.00  0.00    -0.268 OA
HETATM    4  H   UNL     1      26.907  44.260  52.184  1.00  0.00     0.162 HD
ENDROOT
BRANCH   2   5
HETATM    5  C   UNL     1      25.077  45.782  51.366  1.00  0.00     0.080 A 
HETATM    6  C   UNL     1      24.802  46.475  50.144  1.00  0.00     0.107 A 
HETATM    7  N   UNL     1      23.779  45.902  49.483  1.00  0.00    -0.173 NA
HETATM    8  N   UNL     1      23.437  44.852  50.235  1.00  0.00    -0.288 N 
HETATM    9  H   UNL     1      22.675  44.264  49.915  1.00  0.00     0.188 HD
HETATM   10  C   UNL     1      24.177  44.729  51.369  1.00  0.00     0.128 A 
BRANCH   6  11
HETATM   11  C   UNL     1      25.466  47.646  49.582  1.00  0.00     0.034 A 
HETATM   12  C   UNL     1      24.733  48.744  49.122  1.00  0.00     0.129 A 
HETATM   13  F   UNL     1      23.393  48.759  49.208  1.00  0.00    -0.205 F 
HETATM   14  C   UNL     1      25.371  49.865  48.595  1.00  0.00     0.043 A 
HETATM   15  C   UNL     1      26.763  49.906  48.532  1.00  0.00     0.003 A 
HETATM   16  C   UNL     1      27.511  48.827  49.002  1.00  0.00     0.001 A 
HETATM   17  C   UNL     1      26.866  47.703  49.528  1.00  0.00     0.017 A 
ENDBRANCH   6  11
ENDBRANCH   2   5
BRANCH   1  18
HETATM   18  C   UNL     1      27.962  45.249  53.714  1.00  0.00     0.165 C 
BRANCH  18  19
HETATM   19  C   UNL     1      28.703  43.923  54.041  1.00  0.00     0.097 C 
HETATM   20  C   UNL     1      29.505  43.394  52.842  1.00  0.00     0.053 C 
BRANCH  19  21
HETATM   21  O   UNL     1      27.694  42.936  54.338  1.00  0.00    -0.384 OA
HETATM   22  H   UNL     1      28.163  42.094  54.477  1.00  0.00     0.211 HD
ENDBRANCH  19  21
BRANCH  19  23
HETATM   23  C   UNL     1      29.602  44.127  55.265  1.00  0.00    -0.023 A 
HETATM   24  C   UNL     1      29.453  45.267  56.081  1.00  0.00     0.013 A 
HETATM   25  C   UNL     1      30.264  45.459  57.202  1.00  0.00     0.043 A 
HETATM   26  C   UNL     1      31.228  44.513  57.523  1.00  0.00     0.116 A 
HETATM   27  F   UNL     1      32.006  44.698  58.597  1.00  0.00    -0.206 F 
HETATM   28  C   UNL     1      31.390  43.374  56.747  1.00  0.00     0.043 A 
HETATM   29  C   UNL     1      30.578  43.178  55.628  1.00  0.00     0.013 A 
ENDBRANCH  19  23
ENDBRANCH  18  19
ENDBRANCH   1  18
TORSDOF 6
ENDMDL
MODEL 2
REMARK VINA RESULT:      -9.4      2.478      3.843
REMARK  6 active torsions:
REMARK  status: ('A' for Active; 'I' for Inactive)
REMARK    1  A    between atoms: C_2  and  O_3 
REMARK    2  A    between atoms: C_2  and  C_4 
REMARK    3  A    between atoms: C_2  and  C_11 
REMARK    4  A    between atoms: C_11  and  N_12 
REMARK       I    between atoms: N_12  and  C_13 
REMARK    5  A    between atoms: C_13  and  C_14 
REMARK    6  A    between atoms: C_15  and  C_16 
ROOT
HETATM    1  N   UNL     1      26.349  46.297  50.848  1.00  0.00    -0.354 N 
HETATM    2  C   UNL     1      25.640  47.472  50.725  1.00  0.00     0.255 C 
HETATM    3  O   UNL     1      24.688  47.748  51.447  1.00  0.00    -0.268 OA
HETATM    4  H   UNL     1      27.251  46.230  50.397  1.00  0.00     0.162 HD
ENDROOT
BRANCH   2   5
HETATM    5  C   UNL     1      26.117  48.355  49.671  1.00  0.00     0.080 A 
HETATM    6  C   UNL     1      25.357  49.177  48.778  1.00  0.00     0.107 A 
HETATM    7  N   UNL     1      26.156  49.785  47.882  1.00  0.00    -0.173 NA
HETATM    8  N   UNL     1      27.391  49.399  48.216  1.00  0.00    -0.288 N 
HETATM    9  H   UNL     1      28.166  49.751  47.664  1.00  0.00     0.188 HD
HETATM   10  C   UNL     1      27.430  48.548  49.275  1.00  0.00     0.128 A 
BRANCH   6  11
HETATM   11  C   UNL     1      23.917  49.408  48.743  1.00  0.00     0.034 A 
HETATM   12  C   UNL     1      23.019  48.358  48.528  1.00  0.00     0.129 A 
HETATM   13  F   UNL     1      23.460  47.100  48.371  1.00  0.00    -0.205 F 
HETATM   14  C   UNL     1      21.643  48.581  48.505  1.00  0.00     0.043 A 
HETATM   15  C   UNL     1      21.145  49.867  48.709  1.00  0.00     0.003 A 
HETATM   16  C   UNL     1      22.025  50.923  48.942  1.00  0.00     0.001 A 
HETATM   17  C   UNL     1      23.405  50.695  48.963  1.00  0.00     0.017 A 
ENDBRANCH   6  11
ENDBRANCH   2   5
BRANCH   1  18
HETATM   18  C   UNL     1      26.102  45.350  51.927  1.00  0.00     0.165 C 
BRANCH  18  19
HETATM   19  C   UNL     1      26.747  43.958  51.678  1.00  0.00     0.097 C 
HETATM   20  C   UNL     1      27.196  43.777  50.219  1.00  0.00     0.053 C 
BRANCH  19  21
HETATM   21  O   UNL     1      25.727  42.968  51.928  1.00  0.00    -0.384 OA
HETATM   22  H   UNL     1      25.156  42.956  51.140  1.00  0.00     0.211 HD
ENDBRANCH  19  21
BRANCH  19  23
HETATM   23  C   UNL     1      27.914  43.754  52.649  1.00  0.00    -0.023 A 
HETATM   24  C   UNL     1      28.981  42.895  52.315  1.00  0.00     0.013 A 
HETATM   25  C   UNL     1      30.053  42.706  53.192  1.00  0.00     0.043 A 
HETATM   26  C   UNL     1      30.072  43.377  54.407  1.00  0.00     0.116 A 
HETATM   27  F   UNL     1      31.098  43.194  55.248  1.00  0.00    -0.206 F 
HETATM   28  C   UNL     1      29.043  44.239  54.759  1.00  0.00     0.043 A 
HETATM   29  C   UNL     1      27.972  44.432  53.882  1.00  0.00     0.013 A 
ENDBRANCH  19  23
ENDBRANCH  18  19
ENDBRANCH   1  18
TORSDOF 6
ENDMDL
MODEL 3
REMARK VINA RESULT:      -9.2      6.117      8.649
REMARK  6 active torsions:
REMARK  status: ('A' for Active; 'I' for Inactive)
REMARK    1  A    between atoms: C_2  and  O_3 
REMARK    2  A    between atoms: C_2  and  C_4 
REMARK    3  A    between atoms: C_2  and  C_11 
REMARK    4  A    between atoms: C_11  and  N_12 
REMARK       I    between atoms: N_12  and  C_13 
REMARK    5  A    between atoms: C_13  and  C_14 
REMARK    6  A    between atoms: C_15  and  C_16 
ROOT
HETATM    1  N   UNL     1      21.019  47.653  48.970  1.00  0.00    -0.354 N 
HETATM    2  C   UNL     1      20.232  47.307  47.894  1.00  0.00     0.255 C 
HETATM    3  O   UNL     1      20.695  47.093  46.779  1.00  0.00    -0.268 OA
HETATM    4  H   UNL     1      20.623  47.584  49.898  1.00  0.00     0.162 HD
ENDROOT
BRANCH   2   5
HETATM    5  C   UNL     1      18.810  47.213  48.192  1.00  0.00     0.080 A 
HETATM    6  C   UNL     1      17.900  48.258  48.551  1.00  0.00     0.107 A 
HETATM    7  N   UNL     1      16.682  47.761  48.836  1.00  0.00    -0.173 NA
HETATM    8  N   UNL     1      16.797  46.446  48.626  1.00  0.00    -0.288 N 
HETATM    9  H   UNL     1      15.979  45.865  48.779  1.00  0.00     0.188 HD
HETATM   10  C   UNL     1      18.043  46.062  48.240  1.00  0.00     0.128 A 
BRANCH   6  11
HETATM   11  C   UNL     1      18.135  49.695  48.630  1.00  0.00     0.034 A 
HETATM   12  C   UNL     1      18.489  50.306  49.837  1.00  0.00     0.129 A 
HETATM   13  F   UNL     1      18.645  49.579  50.954  1.00  0.00    -0.205 F 
HETATM   14  C   UNL     1      18.722  51.679  49.907  1.00  0.00     0.043 A 
HETATM   15  C   UNL     1      18.615  52.461  48.758  1.00  0.00     0.003 A 
HETATM   16  C   UNL     1      18.280  51.865  47.542  1.00  0.00     0.001 A 
HETATM   17  C   UNL     1      18.044  50.489  47.477  1.00  0.00     0.017 A 
ENDBRANCH   6  11
ENDBRANCH   2   5
BRANCH   1  18
HETATM   18  C   UNL     1      22.473  47.670  48.897  1.00  0.00     0.165 C 
BRANCH  18  19
HETATM   19  C   UNL     1      23.057  49.087  48.644  1.00  0.00     0.097 C 
HETATM   20  C   UNL     1      22.399  50.154  49.533  1.00  0.00     0.053 C 
BRANCH  19  21
HETATM   21  O   UNL     1      22.750  49.434  47.277  1.00  0.00    -0.384 OA
HETATM   22  H   UNL     1      21.788  49.580  47.239  1.00  0.00     0.211 HD
ENDBRANCH  19  21
BRANCH  19  23
HETATM   23  C   UNL     1      24.576  49.058  48.840  1.00  0.00    -0.023 A 
HETATM   24  C   UNL     1      25.399  50.006  48.199  1.00  0.00     0.013 A 
HETATM   25  C   UNL     1      26.785  49.991  48.376  1.00  0.00     0.043 A 
HETATM   26  C   UNL     1      27.362  49.034  49.199  1.00  0.00     0.116 A 
HETATM   27  F   UNL     1      28.690  49.018  49.367  1.00  0.00    -0.206 F 
HETATM   28  C   UNL     1      26.577  48.095  49.855  1.00  0.00     0.043 A 
HETATM   29  C   UNL     1      25.191  48.111  49.682  1.00  0.00     0.013 A 
ENDBRANCH  19  23
ENDBRANCH  18  19
ENDBRANCH   1  18
TORSDOF 6
ENDMDL
MODEL 4
REMARK VINA RESULT:      -9.2      4.197      7.944
REMARK  6 active torsions:
REMARK  status: ('A' for Active; 'I' for Inactive)
REMARK    1  A    between atoms: C_2  and  O_3 
REMARK    2  A    between atoms: C_2  and  C_4 
REMARK    3  A    between atoms: C_2  and  C_11 
REMARK    4  A    between atoms: C_11  and  N_12 
REMARK       I    between atoms: N_12  and  C_13 
REMARK    5  A    between atoms: C_13  and  C_14 
REMARK    6  A    between atoms: C_15  and  C_16 
ROOT
HETATM    1  N   UNL     1      28.513  43.349  52.585  1.00  0.00    -0.354 N 
HETATM    2  C   UNL     1      27.870  43.598  53.779  1.00  0.00     0.255 C 
HETATM    3  O   UNL     1      27.400  42.704  54.473  1.00  0.00    -0.268 OA
HETATM    4  H   UNL     1      29.080  44.083  52.182  1.00  0.00     0.162 HD
ENDROOT
BRANCH   2   5
HETATM    5  C   UNL     1      27.802  45.005  54.144  1.00  0.00     0.080 A 
HETATM    6  C   UNL     1      28.511  45.698  55.177  1.00  0.00     0.107 A 
HETATM    7  N   UNL     1      28.111  46.980  55.261  1.00  0.00    -0.173 NA
HETATM    8  N   UNL     1      27.206  47.116  54.288  1.00  0.00    -0.288 N 
HETATM    9  H   UNL     1      26.769  48.024  54.165  1.00  0.00     0.188 HD
HETATM   10  C   UNL     1      26.981  45.972  53.588  1.00  0.00     0.128 A 
BRANCH   6  11
HETATM   11  C   UNL     1      29.546  45.199  56.076  1.00  0.00     0.034 A 
HETATM   12  C   UNL     1      29.618  45.623  57.405  1.00  0.00     0.129 A 
HETATM   13  F   UNL     1      28.717  46.489  57.898  1.00  0.00    -0.205 F 
HETATM   14  C   UNL     1      30.602  45.136  58.264  1.00  0.00     0.043 A 
HETATM   15  C   UNL     1      31.526  44.202  57.801  1.00  0.00     0.003 A 
HETATM   16  C   UNL     1      31.459  43.753  56.482  1.00  0.00     0.001 A 
HETATM   17  C   UNL     1      30.472  44.246  55.624  1.00  0.00     0.017 A 
ENDBRANCH   6  11
ENDBRANCH   2   5
BRANCH   1  18
HETATM   18  C   UNL     1      28.793  41.998  52.120  1.00  0.00     0.165 C 
BRANCH  18  19
HETATM   19  C   UNL     1      27.626  41.380  51.301  1.00  0.00     0.097 C 
HETATM   20  C   UNL     1      26.791  42.449  50.580  1.00  0.00     0.053 C 
BRANCH  19  21
HETATM   21  O   UNL     1      26.748  40.727  52.242  1.00  0.00    -0.384 OA
HETATM   22  H   UNL     1      25.895  41.194  52.194  1.00  0.00     0.211 HD
ENDBRANCH  19  21
BRANCH  19  23
HETATM   23  C   UNL     1      28.183  40.349  50.314  1.00  0.00    -0.023 A 
HETATM   24  C   UNL     1      28.936  39.250  50.775  1.00  0.00     0.013 A 
HETATM   25  C   UNL     1      29.443  38.302  49.883  1.00  0.00     0.043 A 
HETATM   26  C   UNL     1      29.199  38.438  48.523  1.00  0.00     0.116 A 
HETATM   27  F   UNL     1      29.688  37.531  47.668  1.00  0.00    -0.206 F 
HETATM   28  C   UNL     1      28.451  39.502  48.039  1.00  0.00     0.043 A 
HETATM   29  C   UNL     1      27.939  40.449  48.930  1.00  0.00     0.013 A 
ENDBRANCH  19  23
ENDBRANCH  18  19
ENDBRANCH   1  18
TORSDOF 6
ENDMDL
MODEL 5
REMARK VINA RESULT:      -9.1      2.698      7.973
REMARK  6 active torsions:
REMARK  status: ('A' for Active; 'I' for Inactive)
REMARK    1  A    between atoms: C_2  and  O_3 
REMARK    2  A    between atoms: C_2  and  C_4 
REMARK    3  A    between atoms: C_2  and  C_11 
REMARK    4  A    between atoms: C_11  and  N_12 
REMARK       I    between atoms: N_12  and  C_13 
REMARK    5  A    between atoms: C_13  and  C_14 
REMARK    6  A    between atoms: C_15  and  C_16 
ROOT
HETATM    1  N   UNL     1      26.900  43.961  50.300  1.00  0.00    -0.354 N 
HETATM    2  C   UNL     1      26.363  42.769  50.736  1.00  0.00     0.255 C 
HETATM    3  O   UNL     1      25.164  42.523  50.669  1.00  0.00    -0.268 OA
HETATM    4  H   UNL     1      27.900  44.015  50.159  1.00  0.00     0.162 HD
ENDROOT
BRANCH   2   5
HETATM    5  C   UNL     1      27.337  41.831  51.275  1.00  0.00     0.080 A 
HETATM    6  C   UNL     1      28.132  41.948  52.460  1.00  0.00     0.107 A 
HETATM    7  N   UNL     1      28.981  40.910  52.577  1.00  0.00    -0.173 NA
HETATM    8  N   UNL     1      28.710  40.133  51.524  1.00  0.00    -0.288 N 
HETATM    9  H   UNL     1      29.241  39.275  51.415  1.00  0.00     0.188 HD
HETATM   10  C   UNL     1      27.738  40.630  50.714  1.00  0.00     0.128 A 
BRANCH   6  11
HETATM   11  C   UNL     1      28.116  42.992  53.478  1.00  0.00     0.034 A 
HETATM   12  C   UNL     1      29.298  43.605  53.906  1.00  0.00     0.129 A 
HETATM   13  F   UNL     1      30.481  43.262  53.371  1.00  0.00    -0.205 F 
HETATM   14  C   UNL     1      29.278  44.610  54.871  1.00  0.00     0.043 A 
HETATM   15  C   UNL     1      28.065  45.025  55.417  1.00  0.00     0.003 A 
HETATM   16  C   UNL     1      26.874  44.438  54.989  1.00  0.00     0.001 A 
HETATM   17  C   UNL     1      26.899  43.428  54.022  1.00  0.00     0.017 A 
ENDBRANCH   6  11
ENDBRANCH   2   5
BRANCH   1  18
HETATM   18  C   UNL     1      26.104  44.968  49.613  1.00  0.00     0.165 C 
BRANCH  18  19
HETATM   19  C   UNL     1      25.453  45.996  50.578  1.00  0.00     0.097 C 
HETATM   20  C   UNL     1      26.322  46.260  51.818  1.00  0.00     0.053 C 
BRANCH  19  21
HETATM   21  O   UNL     1      24.219  45.414  51.049  1.00  0.00    -0.384 OA
HETATM   22  H   UNL     1      24.199  45.551  52.012  1.00  0.00     0.211 HD
ENDBRANCH  19  21
BRANCH  19  23
HETATM   23  C   UNL     1      25.156  47.294  49.820  1.00  0.00    -0.023 A 
HETATM   24  C   UNL     1      23.831  47.646  49.496  1.00  0.00     0.013 A 
HETATM   25  C   UNL     1      23.549  48.830  48.809  1.00  0.00     0.043 A 
HETATM   26  C   UNL     1      24.588  49.676  48.445  1.00  0.00     0.116 A 
HETATM   27  F   UNL     1      24.318  50.810  47.785  1.00  0.00    -0.206 F 
HETATM   28  C   UNL     1      25.902  49.364  48.761  1.00  0.00     0.043 A 
HETATM   29  C   UNL     1      26.185  48.182  49.451  1.00  0.00     0.013 A 
ENDBRANCH  19  23
ENDBRANCH  18  19
ENDBRANCH   1  18
TORSDOF 6
ENDMDL
MODEL 6
REMARK VINA RESULT:      -9.1      2.877      3.994
REMARK  6 active torsions:
REMARK  status: ('A' for Active; 'I' for Inactive)
REMARK    1  A    between atoms: C_2  and  O_3 
REMARK    2  A    between atoms: C_2  and  C_4 
REMARK    3  A    between atoms: C_2  and  C_11 
REMARK    4  A    between atoms: C_11  and  N_12 
REMARK       I    between atoms: N_12  and  C_13 
REMARK    5  A    between atoms: C_13  and  C_14 
REMARK    6  A    between atoms: C_15  and  C_16 
ROOT
HETATM    1  N   UNL     1      27.190  42.087  52.690  1.00  0.00    -0.354 N 
HETATM    2  C   UNL     1      27.704  41.211  51.758  1.00  0.00     0.255 C 
HETATM    3  O   UNL     1      28.845  40.768  51.829  1.00  0.00    -0.268 OA
HETATM    4  H   UNL     1      26.189  42.229  52.716  1.00  0.00     0.162 HD
ENDROOT
BRANCH   2   5
HETATM    5  C   UNL     1      26.781  40.855  50.692  1.00  0.00     0.080 A 
HETATM    6  C   UNL     1      25.866  41.697  49.981  1.00  0.00     0.107 A 
HETATM    7  N   UNL     1      25.116  40.980  49.123  1.00  0.00    -0.173 NA
HETATM    8  N   UNL     1      25.565  39.728  49.248  1.00  0.00    -0.288 N 
HETATM    9  H   UNL     1      25.135  39.007  48.677  1.00  0.00     0.188 HD
HETATM   10  C   UNL     1      26.557  39.593  50.168  1.00  0.00     0.128 A 
BRANCH   6  11
HETATM   11  C   UNL     1      25.678  43.140  50.081  1.00  0.00     0.034 A 
HETATM   12  C   UNL     1      24.523  43.683  50.651  1.00  0.00     0.129 A 
HETATM   13  F   UNL     1      23.563  42.886  51.146  1.00  0.00    -0.205 F 
HETATM   14  C   UNL     1      24.351  45.062  50.754  1.00  0.00     0.043 A 
HETATM   15  C   UNL     1      25.347  45.922  50.293  1.00  0.00     0.003 A 
HETATM   16  C   UNL     1      26.513  45.398  49.736  1.00  0.00     0.001 A 
HETATM   17  C   UNL     1      26.680  44.013  49.634  1.00  0.00     0.017 A 
ENDBRANCH   6  11
ENDBRANCH   2   5
BRANCH   1  18
HETATM   18  C   UNL     1      27.918  42.455  53.896  1.00  0.00     0.165 C 
BRANCH  18  19
HETATM   19  C   UNL     1      28.685  43.799  53.760  1.00  0.00     0.097 C 
HETATM   20  C   UNL     1      27.743  44.983  53.493  1.00  0.00     0.053 C 
BRANCH  19  21
HETATM   21  O   UNL     1      29.546  43.681  52.608  1.00  0.00    -0.384 OA
HETATM   22  H   UNL     1      29.528  44.546  52.161  1.00  0.00     0.211 HD
ENDBRANCH  19  21
BRANCH  19  23
HETATM   23  C   UNL     1      29.532  44.034  55.015  1.00  0.00    -0.023 A 
HETATM   24  C   UNL     1      29.346  45.191  55.798  1.00  0.00     0.013 A 
HETATM   25  C   UNL     1      30.110  45.412  56.947  1.00  0.00     0.043 A 
HETATM   26  C   UNL     1      31.064  44.478  57.328  1.00  0.00     0.116 A 
HETATM   27  F   UNL     1      31.797  44.691  58.427  1.00  0.00    -0.206 F 
HETATM   28  C   UNL     1      31.262  43.323  56.584  1.00  0.00     0.043 A 
HETATM   29  C   UNL     1      30.497  43.098  55.438  1.00  0.00     0.013 A 
ENDBRANCH  19  23
ENDBRANCH  18  19
ENDBRANCH   1  18
TORSDOF 6
ENDMDL
MODEL 7
REMARK VINA RESULT:      -8.9      3.551      5.057
REMARK  6 active torsions:
REMARK  status: ('A' for Active; 'I' for Inactive)
REMARK    1  A    between atoms: C_2  and  O_3 
REMARK    2  A    between atoms: C_2  and  C_4 
REMARK    3  A    between atoms: C_2  and  C_11 
REMARK    4  A    between atoms: C_11  and  N_12 
REMARK       I    between atoms: N_12  and  C_13 
REMARK    5  A    between atoms: C_13  and  C_14 
REMARK    6  A    between atoms: C_15  and  C_16 
ROOT
HETATM    1  N   UNL     1      26.601  44.029  51.699  1.00  0.00    -0.354 N 
HETATM    2  C   UNL     1      26.697  44.278  50.346  1.00  0.00     0.255 C 
HETATM    3  O   UNL     1      27.562  45.004  49.870  1.00  0.00    -0.268 OA
HETATM    4  H   UNL     1      26.033  43.251  52.005  1.00  0.00     0.162 HD
ENDROOT
BRANCH   2   5
HETATM    5  C   UNL     1      25.691  43.606  49.538  1.00  0.00     0.080 A 
HETATM    6  C   UNL     1      25.767  42.330  48.893  1.00  0.00     0.107 A 
HETATM    7  N   UNL     1      24.662  42.092  48.161  1.00  0.00    -0.173 NA
HETATM    8  N   UNL     1      23.886  43.161  48.364  1.00  0.00    -0.288 N 
HETATM    9  H   UNL     1      22.983  43.190  47.903  1.00  0.00     0.188 HD
HETATM   10  C   UNL     1      24.447  44.096  49.177  1.00  0.00     0.128 A 
BRANCH   6  11
HETATM   11  C   UNL     1      26.833  41.336  48.944  1.00  0.00     0.034 A 
HETATM   12  C   UNL     1      27.092  40.610  50.111  1.00  0.00     0.129 A 
HETATM   13  F   UNL     1      26.347  40.794  51.212  1.00  0.00    -0.205 F 
HETATM   14  C   UNL     1      28.105  39.654  50.153  1.00  0.00     0.043 A 
HETATM   15  C   UNL     1      28.870  39.402  49.015  1.00  0.00     0.003 A 
HETATM   16  C   UNL     1      28.614  40.104  47.838  1.00  0.00     0.001 A 
HETATM   17  C   UNL     1      27.598  41.064  47.800  1.00  0.00     0.017 A 
ENDBRANCH   6  11
ENDBRANCH   2   5
BRANCH   1  18
HETATM   18  C   UNL     1      27.595  44.508  52.650  1.00  0.00     0.165 C 
BRANCH  18  19
HETATM   19  C   UNL     1      28.311  43.361  53.415  1.00  0.00     0.097 C 
HETATM   20  C   UNL     1      29.233  42.539  52.502  1.00  0.00     0.053 C 
BRANCH  19  21
HETATM   21  O   UNL     1      27.285  42.463  53.890  1.00  0.00    -0.384 OA
HETATM   22  H   UNL     1      27.583  42.139  54.758  1.00  0.00     0.211 HD
ENDBRANCH  19  21
BRANCH  19  23
HETATM   23  C   UNL     1      29.080  43.941  54.606  1.00  0.00    -0.023 A 
HETATM   24  C   UNL     1      30.226  43.290  55.105  1.00  0.00     0.013 A 
HETATM   25  C   UNL     1      30.937  43.814  56.187  1.00  0.00     0.043 A 
HETATM   26  C   UNL     1      30.515  44.997  56.778  1.00  0.00     0.116 A 
HETATM   27  F   UNL     1      31.195  45.499  57.816  1.00  0.00    -0.206 F 
HETATM   28  C   UNL     1      29.398  45.669  56.302  1.00  0.00     0.043 A 
HETATM   29  C   UNL     1      28.688  45.149  55.217  1.00  0.00     0.013 A 
ENDBRANCH  19  23
ENDBRANCH  18  19
ENDBRANCH   1  18
TORSDOF 6
ENDMDL
MODEL 8
REMARK VINA RESULT:      -8.8     12.512     14.667
REMARK  6 active torsions:
REMARK  status: ('A' for Active; 'I' for Inactive)
REMARK    1  A    between atoms: C_2  and  O_3 
REMARK    2  A    between atoms: C_2  and  C_4 
REMARK    3  A    between atoms: C_2  and  C_11 
REMARK    4  A    between atoms: C_11  and  N_12 
REMARK       I    between atoms: N_12  and  C_13 
REMARK    5  A    between atoms: C_13  and  C_14 
REMARK    6  A    between atoms: C_15  and  C_16 
ROOT
HETATM    1  N   UNL     1      28.003  50.674  39.759  1.00  0.00    -0.354 N 
HETATM    2  C   UNL     1      27.691  49.693  38.842  1.00  0.00     0.255 C 
HETATM    3  O   UNL     1      27.539  49.930  37.649  1.00  0.00    -0.268 OA
HETATM    4  H   UNL     1      28.346  50.391  40.667  1.00  0.00     0.162 HD
ENDROOT
BRANCH   2   5
HETATM    5  C   UNL     1      27.562  48.359  39.407  1.00  0.00     0.080 A 
HETATM    6  C   UNL     1      28.483  47.646  40.241  1.00  0.00     0.107 A 
HETATM    7  N   UNL     1      28.044  46.398  40.490  1.00  0.00    -0.173 NA
HETATM    8  N   UNL     1      26.862  46.327  39.870  1.00  0.00    -0.288 N 
HETATM    9  H   UNL     1      26.342  45.458  39.933  1.00  0.00     0.188 HD
HETATM   10  C   UNL     1      26.522  47.466  39.210  1.00  0.00     0.128 A 
BRANCH   6  11
HETATM   11  C   UNL     1      29.748  48.098  40.809  1.00  0.00     0.034 A 
HETATM   12  C   UNL     1      30.933  48.051  40.068  1.00  0.00     0.129 A 
HETATM   13  F   UNL     1      30.932  47.607  38.801  1.00  0.00    -0.205 F 
HETATM   14  C   UNL     1      32.139  48.493  40.610  1.00  0.00     0.043 A 
HETATM   15  C   UNL     1      32.171  49.002  41.907  1.00  0.00     0.003 A 
HETATM   16  C   UNL     1      30.995  49.074  42.655  1.00  0.00     0.001 A 
HETATM   17  C   UNL     1      29.789  48.627  42.107  1.00  0.00     0.017 A 
ENDBRANCH   6  11
ENDBRANCH   2   5
BRANCH   1  18
HETATM   18  C   UNL     1      28.299  52.043  39.362  1.00  0.00     0.165 C 
BRANCH  18  19
HETATM   19  C   UNL     1      29.343  52.734  40.282  1.00  0.00     0.097 C 
HETATM   20  C   UNL     1      29.095  52.436  41.770  1.00  0.00     0.053 C 
BRANCH  19  21
HETATM   21  O   UNL     1      29.184  54.158  40.109  1.00  0.00    -0.384 OA
HETATM   22  H   UNL     1      28.585  54.457  40.817  1.00  0.00     0.211 HD
ENDBRANCH  19  21
BRANCH  19  23
HETATM   23  C   UNL     1      30.755  52.317  39.859  1.00  0.00    -0.023 A 
HETATM   24  C   UNL     1      30.975  51.698  38.613  1.00  0.00     0.013 A 
HETATM   25  C   UNL     1      32.260  51.319  38.215  1.00  0.00     0.043 A 
HETATM   26  C   UNL     1      33.338  51.560  39.056  1.00  0.00     0.116 A 
HETATM   27  F   UNL     1      34.569  51.194  38.676  1.00  0.00    -0.206 F 
HETATM   28  C   UNL     1      33.155  52.179  40.285  1.00  0.00     0.043 A 
HETATM   29  C   UNL     1      31.872  52.563  40.682  1.00  0.00     0.013 A 
ENDBRANCH  19  23
ENDBRANCH  18  19
ENDBRANCH   1  18
TORSDOF 6
ENDMDL
MODEL 9
REMARK VINA RESULT:      -8.7     12.246     13.982
REMARK  6 active torsions:
REMARK  status: ('A' for Active; 'I' for Inactive)
REMARK    1  A    between atoms: C_2  and  O_3 
REMARK    2  A    between atoms: C_2  and  C_4 
REMARK    3  A    between atoms: C_2  and  C_11 
REMARK    4  A    between atoms: C_11  and  N_12 
REMARK       I    between atoms: N_12  and  C_13 
REMARK    5  A    between atoms: C_13  and  C_14 
REMARK    6  A    between atoms: C_15  and  C_16 
ROOT
HETATM    1  N   UNL     1      29.618  51.271  39.729  1.00  0.00    -0.354 N 
HETATM    2  C   UNL     1      28.992  50.763  38.611  1.00  0.00     0.255 C 
HETATM    3  O   UNL     1      28.968  51.360  37.541  1.00  0.00    -0.268 OA
HETATM    4  H   UNL     1      29.811  50.645  40.499  1.00  0.00     0.162 HD
ENDROOT
BRANCH   2   5
HETATM    5  C   UNL     1      28.369  49.463  38.808  1.00  0.00     0.080 A 
HETATM    6  C   UNL     1      28.814  48.371  39.621  1.00  0.00     0.107 A 
HETATM    7  N   UNL     1      28.011  47.301  39.474  1.00  0.00    -0.173 NA
HETATM    8  N   UNL     1      27.059  47.707  38.627  1.00  0.00    -0.288 N 
HETATM    9  H   UNL     1      26.331  47.047  38.376  1.00  0.00     0.188 HD
HETATM   10  C   UNL     1      27.221  48.987  38.199  1.00  0.00     0.128 A 
BRANCH   6  11
HETATM   11  C   UNL     1      29.956  48.303  40.525  1.00  0.00     0.034 A 
HETATM   12  C   UNL     1      29.852  48.712  41.857  1.00  0.00     0.129 A 
HETATM   13  F   UNL     1      28.685  49.157  42.348  1.00  0.00    -0.205 F 
HETATM   14  C   UNL     1      30.944  48.636  42.721  1.00  0.00     0.043 A 
HETATM   15  C   UNL     1      32.160  48.135  42.259  1.00  0.00     0.003 A 
HETATM   16  C   UNL     1      32.278  47.707  40.937  1.00  0.00     0.001 A 
HETATM   17  C   UNL     1      31.181  47.787  40.074  1.00  0.00     0.017 A 
ENDBRANCH   6  11
ENDBRANCH   2   5
BRANCH   1  18
HETATM   18  C   UNL     1      30.405  52.496  39.690  1.00  0.00     0.165 C 
BRANCH  18  19
HETATM   19  C   UNL     1      30.938  52.924  41.085  1.00  0.00     0.097 C 
HETATM   20  C   UNL     1      29.887  52.741  42.191  1.00  0.00     0.053 C 
BRANCH  19  21
HETATM   21  O   UNL     1      31.227  54.337  41.013  1.00  0.00    -0.384 OA
HETATM   22  H   UNL     1      31.738  54.472  40.196  1.00  0.00     0.211 HD
ENDBRANCH  19  21
BRANCH  19  23
HETATM   23  C   UNL     1      32.221  52.151  41.403  1.00  0.00    -0.023 A 
HETATM   24  C   UNL     1      32.608  51.923  42.739  1.00  0.00     0.013 A 
HETATM   25  C   UNL     1      33.774  51.214  43.040  1.00  0.00     0.043 A 
HETATM   26  C   UNL     1      34.562  50.721  42.009  1.00  0.00     0.116 A 
HETATM   27  F   UNL     1      35.681  50.044  42.297  1.00  0.00    -0.206 F 
HETATM   28  C   UNL     1      34.203  50.918  40.683  1.00  0.00     0.043 A 
HETATM   29  C   UNL     1      33.035  51.623  40.381  1.00  0.00     0.013 A 
ENDBRANCH  19  23
ENDBRANCH  18  19
ENDBRANCH   1  18
TORSDOF 6
ENDMDL
MODEL 10
REMARK VINA RESULT:      -8.6     12.215     14.203
REMARK  6 active torsions:
REMARK  status: ('A' for Active; 'I' for Inactive)
REMARK    1  A    between atoms: C_2  and  O_3 
REMARK    2  A    between atoms: C_2  and  C_4 
REMARK    3  A    between atoms: C_2  and  C_11 
REMARK    4  A    between atoms: C_11  and  N_12 
REMARK       I    between atoms: N_12  and  C_13 
REMARK    5  A    between atoms: C_13  and  C_14 
REMARK    6  A    between atoms: C_15  and  C_16 
ROOT
HETATM    1  N   UNL     1      28.353  50.962  39.991  1.00  0.00    -0.354 N 
HETATM    2  C   UNL     1      29.514  51.404  39.391  1.00  0.00     0.255 C 
HETATM    3  O   UNL     1      30.116  50.742  38.554  1.00  0.00    -0.268 OA
HETATM    4  H   UNL     1      27.781  51.634  40.484  1.00  0.00     0.162 HD
ENDROOT
BRANCH   2   5
HETATM    5  C   UNL     1      29.958  52.717  39.833  1.00  0.00     0.080 A 
HETATM    6  C   UNL     1      31.131  53.062  40.578  1.00  0.00     0.107 A 
HETATM    7  N   UNL     1      31.149  54.375  40.871  1.00  0.00    -0.173 NA
HETATM    8  N   UNL     1      30.045  54.864  40.297  1.00  0.00    -0.288 N 
HETATM    9  H   UNL     1      29.859  55.857  40.389  1.00  0.00     0.188 HD
HETATM   10  C   UNL     1      29.297  53.922  39.663  1.00  0.00     0.128 A 
BRANCH   6  11
HETATM   11  C   UNL     1      32.227  52.204  41.016  1.00  0.00     0.034 A 
HETATM   12  C   UNL     1      33.157  51.695  40.106  1.00  0.00     0.129 A 
HETATM   13  F   UNL     1      33.079  52.002  38.801  1.00  0.00    -0.205 F 
HETATM   14  C   UNL     1      34.209  50.884  40.529  1.00  0.00     0.043 A 
HETATM   15  C   UNL     1      34.349  50.580  41.883  1.00  0.00     0.003 A 
HETATM   16  C   UNL     1      33.441  51.094  42.807  1.00  0.00     0.001 A 
HETATM   17  C   UNL     1      32.386  51.905  42.378  1.00  0.00     0.017 A 
ENDBRANCH   6  11
ENDBRANCH   2   5
BRANCH   1  18
HETATM   18  C   UNL     1      27.687  49.733  39.584  1.00  0.00     0.165 C 
BRANCH  18  19
HETATM   19  C   UNL     1      27.801  48.598  40.637  1.00  0.00     0.097 C 
HETATM   20  C   UNL     1      27.061  47.323  40.202  1.00  0.00     0.053 C 
BRANCH  19  21
HETATM   21  O   UNL     1      27.154  49.068  41.839  1.00  0.00    -0.384 OA
HETATM   22  H   UNL     1      27.834  49.539  42.352  1.00  0.00     0.211 HD
ENDBRANCH  19  21
BRANCH  19  23
HETATM   23  C   UNL     1      29.278  48.312  40.925  1.00  0.00    -0.023 A 
HETATM   24  C   UNL     1      30.085  47.673  39.962  1.00  0.00     0.013 A 
HETATM   25  C   UNL     1      31.435  47.413  40.212  1.00  0.00     0.043 A 
HETATM   26  C   UNL     1      31.994  47.794  41.425  1.00  0.00     0.116 A 
HETATM   27  F   UNL     1      33.287  47.542  41.666  1.00  0.00    -0.206 F 
HETATM   28  C   UNL     1      31.229  48.436  42.388  1.00  0.00     0.043 A 
HETATM   29  C   UNL     1      29.880  48.701  42.138  1.00  0.00     0.013 A 
ENDBRANCH  19  23
ENDBRANCH  18  19
ENDBRANCH   1  18
TORSDOF 6
ENDMDL
