MODEL 1
REMARK VINA RESULT:      -8.7      0.000      0.000
REMARK  6 active torsions:
REMARK  status: ('A' for Active; 'I' for Inactive)
REMARK    1  A    between atoms: O_2  and  C_3 
REMARK    2  A    between atoms: C_6  and  C_7 
REMARK    3  A    between atoms: C_13  and  C_14 
REMARK       I    between atoms: C_14  and  N_15 
REMARK    4  A    between atoms: N_15  and  C_16 
REMARK    5  A    between atoms: C_16  and  C_17 
REMARK    6  A    between atoms: C_24  and  C_25 
ROOT
HETATM    1  C   UNL     1      24.721  44.460  51.702  1.00  0.00     0.118 C 
HETATM    2  N   UNL     1      25.698  43.521  52.267  1.00  0.00    -0.365 N 
HETATM    3  C   UNL     1      26.050  42.391  51.595  1.00  0.00     0.138 A 
HETATM    4  N   UNL     1      25.311  41.952  50.522  1.00  0.00    -0.240 N 
HETATM    5  N   UNL     1      25.746  40.800  49.991  1.00  0.00    -0.181 NA
HETATM    6  C   UNL     1      26.865  40.556  50.678  1.00  0.00     0.160 A 
HETATM    7  C   UNL     1      27.101  41.499  51.709  1.00  0.00     0.096 A 
HETATM    8  C   UNL     1      24.161  42.637  49.964  1.00  0.00     0.221 C 
HETATM    9  C   UNL     1      23.622  43.675  50.964  1.00  0.00     0.066 C 
HETATM   10  H   UNL     1      26.381  43.986  52.863  1.00  0.00     0.161 HD
ENDROOT
BRANCH   7  11
HETATM   11  C   UNL     1      28.234  41.490  52.609  1.00  0.00     0.257 C 
HETATM   12  N   UNL     1      29.089  42.562  52.504  1.00  0.00    -0.352 N 
HETATM   13  H   UNL     1      28.836  43.335  51.904  1.00  0.00     0.163 HD
HETATM   14  O   UNL     1      28.402  40.589  53.425  1.00  0.00    -0.267 OA
BRANCH  12  15
HETATM   15  C   UNL     1      30.273  42.635  53.325  1.00  0.00     0.161 C 
BRANCH  15  16
HETATM   16  C   UNL     1      30.112  43.552  54.509  1.00  0.00    -0.041 A 
HETATM   17  C   UNL     1      31.018  43.514  55.579  1.00  0.00     0.009 A 
HETATM   18  C   UNL     1      30.903  44.415  56.641  1.00  0.00     0.001 A 
HETATM   19  C   UNL     1      29.891  45.371  56.637  1.00  0.00     0.000 A 
HETATM   20  C   UNL     1      28.990  45.428  55.575  1.00  0.00     0.001 A 
HETATM   21  C   UNL     1      29.101  44.525  54.516  1.00  0.00     0.009 A 
ENDBRANCH  15  16
ENDBRANCH  12  15
ENDBRANCH   7  11
BRANCH   1  22
HETATM   22  C   UNL     1      25.372  45.588  50.915  1.00  0.00    -0.035 A 
HETATM   23  C   UNL     1      26.688  45.518  50.426  1.00  0.00     0.012 A 
HETATM   24  C   UNL     1      27.267  46.585  49.729  1.00  0.00     0.037 A 
HETATM   25  C   UNL     1      26.545  47.753  49.507  1.00  0.00     0.068 A 
HETATM   26  C   UNL     1      25.242  47.846  49.996  1.00  0.00     0.037 A 
HETATM   27  C   UNL     1      24.663  46.781  50.697  1.00  0.00     0.012 A 
BRANCH  25  28
HETATM   28  O   UNL     1      26.994  48.861  48.842  1.00  0.00    -0.356 OA
HETATM   29  C   UNL     1      26.003  49.760  48.358  1.00  0.00     0.210 C 
ENDBRANCH  25  28
ENDBRANCH   1  22
BRANCH   8  30
HETATM   30  C   UNL     1      24.503  43.216  48.606  1.00  0.00     0.409 C 
HETATM   31  F   UNL     1      23.912  44.398  48.349  1.00  0.00    -0.169 F 
HETATM   32  F   UNL     1      25.836  43.386  48.445  1.00  0.00    -0.169 F 
HETATM   33  F   UNL     1      24.117  42.356  47.626  1.00  0.00    -0.169 F 
ENDBRANCH   8  30
TORSDOF 6
ENDMDL
MODEL 2
REMARK VINA RESULT:      -8.5      3.953      8.167
REMARK  6 active torsions:
REMARK  status: ('A' for Active; 'I' for Inactive)
REMARK    1  A    between atoms: O_2  and  C_3 
REMARK    2  A    between atoms: C_6  and  C_7 
REMARK    3  A    between atoms: C_13  and  C_14 
REMARK       I    between atoms: C_14  and  N_15 
REMARK    4  A    between atoms: N_15  and  C_16 
REMARK    5  A    between atoms: C_16  and  C_17 
REMARK    6  A    between atoms: C_24  and  C_25 
ROOT
HETATM    1  C   UNL     1      26.946  45.038  49.963  1.00  0.00     0.118 C 
HETATM    2  N   UNL     1      26.100  46.165  49.551  1.00  0.00    -0.365 N 
HETATM    3  C   UNL     1      24.754  46.014  49.413  1.00  0.00     0.138 A 
HETATM    4  N   UNL     1      24.187  44.762  49.376  1.00  0.00    -0.240 N 
HETATM    5  N   UNL     1      22.860  44.766  49.185  1.00  0.00    -0.181 NA
HETATM    6  C   UNL     1      22.556  46.066  49.214  1.00  0.00     0.160 A 
HETATM    7  C   UNL     1      23.696  46.902  49.331  1.00  0.00     0.096 A 
HETATM    8  C   UNL     1      24.909  43.514  49.534  1.00  0.00     0.221 C 
HETATM    9  C   UNL     1      26.416  43.740  49.327  1.00  0.00     0.066 C 
HETATM   10  H   UNL     1      26.478  47.063  49.852  1.00  0.00     0.161 HD
ENDROOT
BRANCH   7  11
HETATM   11  C   UNL     1      23.673  48.347  49.390  1.00  0.00     0.257 C 
HETATM   12  N   UNL     1      22.425  48.926  49.364  1.00  0.00    -0.352 N 
HETATM   13  H   UNL     1      21.608  48.333  49.417  1.00  0.00     0.163 HD
HETATM   14  O   UNL     1      24.704  49.006  49.479  1.00  0.00    -0.267 OA
BRANCH  12  15
HETATM   15  C   UNL     1      22.286  50.361  49.378  1.00  0.00     0.161 C 
BRANCH  15  16
HETATM   16  C   UNL     1      20.849  50.813  49.403  1.00  0.00    -0.041 A 
HETATM   17  C   UNL     1      20.396  51.822  48.540  1.00  0.00     0.009 A 
HETATM   18  C   UNL     1      19.048  52.187  48.520  1.00  0.00     0.001 A 
HETATM   19  C   UNL     1      18.137  51.538  49.351  1.00  0.00     0.000 A 
HETATM   20  C   UNL     1      18.572  50.527  50.205  1.00  0.00     0.001 A 
HETATM   21  C   UNL     1      19.920  50.165  50.231  1.00  0.00     0.009 A 
ENDBRANCH  15  16
ENDBRANCH  12  15
ENDBRANCH   7  11
BRANCH   1  22
HETATM   22  C   UNL     1      27.181  44.993  51.465  1.00  0.00    -0.035 A 
HETATM   23  C   UNL     1      27.953  43.997  52.088  1.00  0.00     0.012 A 
HETATM   24  C   UNL     1      28.128  43.967  53.476  1.00  0.00     0.037 A 
HETATM   25  C   UNL     1      27.530  44.933  54.280  1.00  0.00     0.068 A 
HETATM   26  C   UNL     1      26.751  45.922  53.681  1.00  0.00     0.037 A 
HETATM   27  C   UNL     1      26.571  45.950  52.293  1.00  0.00     0.012 A 
BRANCH  25  28
HETATM   28  O   UNL     1      27.625  45.016  55.641  1.00  0.00    -0.356 OA
HETATM   29  C   UNL     1      28.434  46.064  56.162  1.00  0.00     0.210 C 
ENDBRANCH  25  28
ENDBRANCH   1  22
BRANCH   8  30
HETATM   30  C   UNL     1      24.563  42.873  50.863  1.00  0.00     0.409 C 
HETATM   31  F   UNL     1      25.504  42.029  51.326  1.00  0.00    -0.169 F 
HETATM   32  F   UNL     1      24.332  43.793  51.828  1.00  0.00    -0.169 F 
HETATM   33  F   UNL     1      23.411  42.158  50.745  1.00  0.00    -0.169 F 
ENDBRANCH   8  30
TORSDOF 6
ENDMDL
MODEL 3
REMARK VINA RESULT:      -8.3     12.721     16.131
REMARK  6 active torsions:
REMARK  status: ('A' for Active; 'I' for Inactive)
REMARK    1  A    between atoms: O_2  and  C_3 
REMARK    2  A    between atoms: C_6  and  C_7 
REMARK    3  A    between atoms: C_13  and  C_14 
REMARK       I    between atoms: C_14  and  N_15 
REMARK    4  A    between atoms: N_15  and  C_16 
REMARK    5  A    between atoms: C_16  and  C_17 
REMARK    6  A    between atoms: C_24  and  C_25 
ROOT
HETATM    1  C   UNL     1      31.083  52.661  41.436  1.00  0.00     0.118 C 
HETATM    2  N   UNL     1      32.443  52.899  40.939  1.00  0.00    -0.365 N 
HETATM    3  C   UNL     1      33.422  51.969  41.110  1.00  0.00     0.138 A 
HETATM    4  N   UNL     1      33.251  50.921  41.984  1.00  0.00    -0.240 N 
HETATM    5  N   UNL     1      34.316  50.113  42.086  1.00  0.00    -0.181 NA
HETATM    6  C   UNL     1      35.152  50.599  41.164  1.00  0.00     0.160 A 
HETATM    7  C   UNL     1      34.664  51.771  40.533  1.00  0.00     0.096 A 
HETATM    8  C   UNL     1      32.045  50.657  42.745  1.00  0.00     0.221 C 
HETATM    9  C   UNL     1      31.150  51.908  42.777  1.00  0.00     0.066 C 
HETATM   10  H   UNL     1      32.455  53.497  40.113  1.00  0.00     0.161 HD
ENDROOT
BRANCH   7  11
HETATM   11  C   UNL     1      35.349  52.511  39.496  1.00  0.00     0.257 C 
HETATM   12  N   UNL     1      35.532  53.852  39.741  1.00  0.00    -0.352 N 
HETATM   13  H   UNL     1      35.289  54.223  40.650  1.00  0.00     0.163 HD
HETATM   14  O   UNL     1      35.756  51.965  38.475  1.00  0.00    -0.267 OA
BRANCH  12  15
HETATM   15  C   UNL     1      36.168  54.693  38.758  1.00  0.00     0.161 C 
BRANCH  15  16
HETATM   16  C   UNL     1      35.635  56.103  38.756  1.00  0.00    -0.041 A 
HETATM   17  C   UNL     1      36.095  57.046  37.825  1.00  0.00     0.009 A 
HETATM   18  C   UNL     1      35.546  58.330  37.784  1.00  0.00     0.001 A 
HETATM   19  C   UNL     1      34.523  58.679  38.662  1.00  0.00     0.000 A 
HETATM   20  C   UNL     1      34.048  57.749  39.584  1.00  0.00     0.001 A 
HETATM   21  C   UNL     1      34.600  56.467  39.630  1.00  0.00     0.009 A 
ENDBRANCH  15  16
ENDBRANCH  12  15
ENDBRANCH   7  11
BRANCH   1  22
HETATM   22  C   UNL     1      30.165  52.059  40.382  1.00  0.00    -0.035 A 
HETATM   23  C   UNL     1      30.596  51.750  39.080  1.00  0.00     0.012 A 
HETATM   24  C   UNL     1      29.720  51.222  38.125  1.00  0.00     0.037 A 
HETATM   25  C   UNL     1      28.386  50.992  38.447  1.00  0.00     0.068 A 
HETATM   26  C   UNL     1      27.938  51.304  39.729  1.00  0.00     0.037 A 
HETATM   27  C   UNL     1      28.812  51.837  40.685  1.00  0.00     0.012 A 
BRANCH  25  28
HETATM   28  O   UNL     1      27.435  50.481  37.609  1.00  0.00    -0.356 OA
HETATM   29  C   UNL     1      26.213  50.066  38.208  1.00  0.00     0.210 C 
ENDBRANCH  25  28
ENDBRANCH   1  22
BRANCH   8  30
HETATM   30  C   UNL     1      31.349  49.420  42.212  1.00  0.00     0.409 C 
HETATM   31  F   UNL     1      31.503  49.233  40.888  1.00  0.00    -0.169 F 
HETATM   32  F   UNL     1      31.768  48.293  42.832  1.00  0.00    -0.169 F 
HETATM   33  F   UNL     1      30.012  49.503  42.450  1.00  0.00    -0.169 F 
ENDBRANCH   8  30
TORSDOF 6
ENDMDL
MODEL 4
REMARK VINA RESULT:      -8.2      8.398     12.153
REMARK  6 active torsions:
REMARK  status: ('A' for Active; 'I' for Inactive)
REMARK    1  A    between atoms: O_2  and  C_3 
REMARK    2  A    between atoms: C_6  and  C_7 
REMARK    3  A    between atoms: C_13  and  C_14 
REMARK       I    between atoms: C_14  and  N_15 
REMARK    4  A    between atoms: N_15  and  C_16 
REMARK    5  A    between atoms: C_16  and  C_17 
REMARK    6  A    between atoms: C_24  and  C_25 
ROOT
HETATM    1  C   UNL     1      19.491  49.400  50.048  1.00  0.00     0.118 C 
HETATM    2  N   UNL     1      18.768  48.255  49.482  1.00  0.00    -0.365 N 
HETATM    3  C   UNL     1      17.853  48.429  48.489  1.00  0.00     0.138 A 
HETATM    4  N   UNL     1      17.375  49.682  48.183  1.00  0.00    -0.240 N 
HETATM    5  N   UNL     1      16.444  49.694  47.219  1.00  0.00    -0.181 NA
HETATM    6  C   UNL     1      16.408  48.420  46.820  1.00  0.00     0.160 A 
HETATM    7  C   UNL     1      17.248  47.573  47.586  1.00  0.00     0.096 A 
HETATM    8  C   UNL     1      17.812  50.916  48.809  1.00  0.00     0.221 C 
HETATM    9  C   UNL     1      18.550  50.616  50.124  1.00  0.00     0.066 C 
HETATM   10  H   UNL     1      19.314  47.395  49.519  1.00  0.00     0.161 HD
ENDROOT
BRANCH   7  11
HETATM   11  C   UNL     1      17.415  46.150  47.380  1.00  0.00     0.257 C 
HETATM   12  N   UNL     1      17.089  45.686  46.127  1.00  0.00    -0.352 N 
HETATM   13  H   UNL     1      16.865  46.351  45.400  1.00  0.00     0.163 HD
HETATM   14  O   UNL     1      17.839  45.416  48.267  1.00  0.00    -0.267 OA
BRANCH  12  15
HETATM   15  C   UNL     1      17.180  44.279  45.824  1.00  0.00     0.161 C 
BRANCH  15  16
HETATM   16  C   UNL     1      16.626  43.933  44.467  1.00  0.00    -0.041 A 
HETATM   17  C   UNL     1      17.166  42.878  43.715  1.00  0.00     0.009 A 
HETATM   18  C   UNL     1      16.602  42.518  42.489  1.00  0.00     0.001 A 
HETATM   19  C   UNL     1      15.486  43.198  42.008  1.00  0.00     0.000 A 
HETATM   20  C   UNL     1      14.932  44.239  42.750  1.00  0.00     0.001 A 
HETATM   21  C   UNL     1      15.498  44.604  43.973  1.00  0.00     0.009 A 
ENDBRANCH  15  16
ENDBRANCH  12  15
ENDBRANCH   7  11
BRANCH   1  22
HETATM   22  C   UNL     1      20.834  49.642  49.375  1.00  0.00    -0.035 A 
HETATM   23  C   UNL     1      21.606  50.795  49.602  1.00  0.00     0.012 A 
HETATM   24  C   UNL     1      22.825  51.000  48.946  1.00  0.00     0.037 A 
HETATM   25  C   UNL     1      23.302  50.059  48.040  1.00  0.00     0.068 A 
HETATM   26  C   UNL     1      22.544  48.915  47.792  1.00  0.00     0.037 A 
HETATM   27  C   UNL     1      21.323  48.710  48.444  1.00  0.00     0.012 A 
BRANCH  25  28
HETATM   28  O   UNL     1      24.474  50.140  47.339  1.00  0.00    -0.356 OA
HETATM   29  C   UNL     1      25.673  49.912  48.071  1.00  0.00     0.210 C 
ENDBRANCH  25  28
ENDBRANCH   1  22
BRANCH   8  30
HETATM   30  C   UNL     1      18.619  51.743  47.828  1.00  0.00     0.409 C 
HETATM   31  F   UNL     1      19.427  51.016  47.033  1.00  0.00    -0.169 F 
HETATM   32  F   UNL     1      17.831  52.496  47.026  1.00  0.00    -0.169 F 
HETATM   33  F   UNL     1      19.409  52.620  48.504  1.00  0.00    -0.169 F 
ENDBRANCH   8  30
TORSDOF 6
ENDMDL
MODEL 5
REMARK VINA RESULT:      -8.1      7.754     10.200
REMARK  6 active torsions:
REMARK  status: ('A' for Active; 'I' for Inactive)
REMARK    1  A    between atoms: O_2  and  C_3 
REMARK    2  A    between atoms: C_6  and  C_7 
REMARK    3  A    between atoms: C_13  and  C_14 
REMARK       I    between atoms: C_14  and  N_15 
REMARK    4  A    between atoms: N_15  and  C_16 
REMARK    5  A    between atoms: C_16  and  C_17 
REMARK    6  A    between atoms: C_24  and  C_25 
ROOT
HETATM    1  C   UNL     1      19.821  49.491  50.120  1.00  0.00     0.118 C 
HETATM    2  N   UNL     1      19.126  48.298  49.622  1.00  0.00    -0.365 N 
HETATM    3  C   UNL     1      18.193  48.395  48.635  1.00  0.00     0.138 A 
HETATM    4  N   UNL     1      17.673  49.617  48.276  1.00  0.00    -0.240 N 
HETATM    5  N   UNL     1      16.729  49.553  47.326  1.00  0.00    -0.181 NA
HETATM    6  C   UNL     1      16.727  48.260  46.991  1.00  0.00     0.160 A 
HETATM    7  C   UNL     1      17.602  47.477  47.785  1.00  0.00     0.096 A 
HETATM    8  C   UNL     1      18.080  50.892  48.833  1.00  0.00     0.221 C 
HETATM    9  C   UNL     1      18.844  50.680  50.150  1.00  0.00     0.066 C 
HETATM   10  H   UNL     1      19.698  47.458  49.694  1.00  0.00     0.161 HD
ENDROOT
BRANCH   7  11
HETATM   11  C   UNL     1      17.810  46.052  47.647  1.00  0.00     0.257 C 
HETATM   12  N   UNL     1      18.714  45.671  46.684  1.00  0.00    -0.352 N 
HETATM   13  H   UNL     1      19.257  46.381  46.211  1.00  0.00     0.163 HD
HETATM   14  O   UNL     1      17.227  45.243  48.362  1.00  0.00    -0.267 OA
BRANCH  12  15
HETATM   15  C   UNL     1      18.969  44.274  46.433  1.00  0.00     0.161 C 
BRANCH  15  16
HETATM   16  C   UNL     1      20.434  43.926  46.471  1.00  0.00    -0.041 A 
HETATM   17  C   UNL     1      20.901  42.710  45.950  1.00  0.00     0.009 A 
HETATM   18  C   UNL     1      22.268  42.425  45.926  1.00  0.00     0.001 A 
HETATM   19  C   UNL     1      23.183  43.358  46.408  1.00  0.00     0.000 A 
HETATM   20  C   UNL     1      22.735  44.574  46.918  1.00  0.00     0.001 A 
HETATM   21  C   UNL     1      21.368  44.858  46.949  1.00  0.00     0.009 A 
ENDBRANCH  15  16
ENDBRANCH  12  15
ENDBRANCH   7  11
BRANCH   1  22
HETATM   22  C   UNL     1      21.147  49.740  49.416  1.00  0.00    -0.035 A 
HETATM   23  C   UNL     1      21.891  50.920  49.583  1.00  0.00     0.012 A 
HETATM   24  C   UNL     1      23.094  51.130  48.899  1.00  0.00     0.037 A 
HETATM   25  C   UNL     1      23.583  50.164  48.026  1.00  0.00     0.068 A 
HETATM   26  C   UNL     1      22.852  48.991  47.838  1.00  0.00     0.037 A 
HETATM   27  C   UNL     1      21.646  48.782  48.518  1.00  0.00     0.012 A 
BRANCH  25  28
HETATM   28  O   UNL     1      24.741  50.246  47.303  1.00  0.00    -0.356 OA
HETATM   29  C   UNL     1      25.943  49.903  47.983  1.00  0.00     0.210 C 
ENDBRANCH  25  28
ENDBRANCH   1  22
BRANCH   8  30
HETATM   30  C   UNL     1      18.848  51.694  47.801  1.00  0.00     0.409 C 
HETATM   31  F   UNL     1      19.643  50.949  47.010  1.00  0.00    -0.169 F 
HETATM   32  F   UNL     1      18.028  52.408  46.995  1.00  0.00    -0.169 F 
HETATM   33  F   UNL     1      19.646  52.604  48.422  1.00  0.00    -0.169 F 
ENDBRANCH   8  30
TORSDOF 6
ENDMDL
MODEL 6
REMARK VINA RESULT:      -8.0      3.145      6.161
REMARK  6 active torsions:
REMARK  status: ('A' for Active; 'I' for Inactive)
REMARK    1  A    between atoms: O_2  and  C_3 
REMARK    2  A    between atoms: C_6  and  C_7 
REMARK    3  A    between atoms: C_13  and  C_14 
REMARK       I    between atoms: C_14  and  N_15 
REMARK    4  A    between atoms: N_15  and  C_16 
REMARK    5  A    between atoms: C_16  and  C_17 
REMARK    6  A    between atoms: C_24  and  C_25 
ROOT
HETATM    1  C   UNL     1      25.682  43.844  53.717  1.00  0.00     0.118 C 
HETATM    2  N   UNL     1      25.499  43.122  52.452  1.00  0.00    -0.365 N 
HETATM    3  C   UNL     1      25.454  43.792  51.267  1.00  0.00     0.138 A 
HETATM    4  N   UNL     1      25.295  45.157  51.236  1.00  0.00    -0.240 N 
HETATM    5  N   UNL     1      25.218  45.672  50.001  1.00  0.00    -0.181 NA
HETATM    6  C   UNL     1      25.448  44.614  49.219  1.00  0.00     0.160 A 
HETATM    7  C   UNL     1      25.581  43.404  49.945  1.00  0.00     0.096 A 
HETATM    8  C   UNL     1      25.222  46.015  52.403  1.00  0.00     0.221 C 
HETATM    9  C   UNL     1      24.923  45.182  53.660  1.00  0.00     0.066 C 
HETATM   10  H   UNL     1      25.886  42.179  52.484  1.00  0.00     0.161 HD
ENDROOT
BRANCH   7  11
HETATM   11  C   UNL     1      25.837  42.103  49.366  1.00  0.00     0.257 C 
HETATM   12  N   UNL     1      27.134  41.869  48.972  1.00  0.00    -0.352 N 
HETATM   13  H   UNL     1      27.847  42.550  49.200  1.00  0.00     0.163 HD
HETATM   14  O   UNL     1      24.952  41.260  49.256  1.00  0.00    -0.267 OA
BRANCH  12  15
HETATM   15  C   UNL     1      27.493  40.621  48.346  1.00  0.00     0.161 C 
BRANCH  15  16
HETATM   16  C   UNL     1      28.320  39.732  49.237  1.00  0.00    -0.041 A 
HETATM   17  C   UNL     1      29.060  38.665  48.705  1.00  0.00     0.009 A 
HETATM   18  C   UNL     1      29.879  37.888  49.527  1.00  0.00     0.001 A 
HETATM   19  C   UNL     1      29.978  38.177  50.886  1.00  0.00     0.000 A 
HETATM   20  C   UNL     1      29.258  39.241  51.426  1.00  0.00     0.001 A 
HETATM   21  C   UNL     1      28.434  40.015  50.606  1.00  0.00     0.009 A 
ENDBRANCH  15  16
ENDBRANCH  12  15
ENDBRANCH   7  11
BRANCH   1  22
HETATM   22  C   UNL     1      27.140  43.926  54.145  1.00  0.00    -0.035 A 
HETATM   23  C   UNL     1      28.140  43.095  53.612  1.00  0.00     0.012 A 
HETATM   24  C   UNL     1      29.468  43.177  54.047  1.00  0.00     0.037 A 
HETATM   25  C   UNL     1      29.829  44.090  55.032  1.00  0.00     0.068 A 
HETATM   26  C   UNL     1      28.848  44.914  55.582  1.00  0.00     0.037 A 
HETATM   27  C   UNL     1      27.518  44.830  55.151  1.00  0.00     0.012 A 
BRANCH  25  28
HETATM   28  O   UNL     1      31.087  44.269  55.540  1.00  0.00    -0.356 OA
HETATM   29  C   UNL     1      31.420  43.515  56.699  1.00  0.00     0.210 C 
ENDBRANCH  25  28
ENDBRANCH   1  22
BRANCH   8  30
HETATM   30  C   UNL     1      26.477  46.859  52.512  1.00  0.00     0.409 C 
HETATM   31  F   UNL     1      26.627  47.465  53.705  1.00  0.00    -0.169 F 
HETATM   32  F   UNL     1      27.599  46.138  52.279  1.00  0.00    -0.169 F 
HETATM   33  F   UNL     1      26.459  47.837  51.567  1.00  0.00    -0.169 F 
ENDBRANCH   8  30
TORSDOF 6
ENDMDL
MODEL 7
REMARK VINA RESULT:      -7.9      4.273      6.253
REMARK  6 active torsions:
REMARK  status: ('A' for Active; 'I' for Inactive)
REMARK    1  A    between atoms: O_2  and  C_3 
REMARK    2  A    between atoms: C_6  and  C_7 
REMARK    3  A    between atoms: C_13  and  C_14 
REMARK       I    between atoms: C_14  and  N_15 
REMARK    4  A    between atoms: N_15  and  C_16 
REMARK    5  A    between atoms: C_16  and  C_17 
REMARK    6  A    between atoms: C_24  and  C_25 
ROOT
HETATM    1  C   UNL     1      26.530  38.633  48.523  1.00  0.00     0.118 C 
HETATM    2  N   UNL     1      26.217  39.675  49.509  1.00  0.00    -0.365 N 
HETATM    3  C   UNL     1      27.138  40.059  50.435  1.00  0.00     0.138 A 
HETATM    4  N   UNL     1      28.266  39.307  50.660  1.00  0.00    -0.240 N 
HETATM    5  N   UNL     1      29.056  39.780  51.634  1.00  0.00    -0.181 NA
HETATM    6  C   UNL     1      28.468  40.933  51.964  1.00  0.00     0.160 A 
HETATM    7  C   UNL     1      27.253  41.158  51.268  1.00  0.00     0.096 A 
HETATM    8  C   UNL     1      28.626  38.105  49.932  1.00  0.00     0.221 C 
HETATM    9  C   UNL     1      27.404  37.549  49.181  1.00  0.00     0.066 C 
HETATM   10  H   UNL     1      25.545  40.354  49.153  1.00  0.00     0.161 HD
ENDROOT
BRANCH   7  11
HETATM   11  C   UNL     1      26.405  42.320  51.417  1.00  0.00     0.257 C 
HETATM   12  N   UNL     1      26.561  43.028  52.587  1.00  0.00    -0.352 N 
HETATM   13  H   UNL     1      27.314  42.778  53.214  1.00  0.00     0.163 HD
HETATM   14  O   UNL     1      25.613  42.657  50.543  1.00  0.00    -0.267 OA
BRANCH  12  15
HETATM   15  C   UNL     1      25.739  44.180  52.858  1.00  0.00     0.161 C 
BRANCH  15  16
HETATM   16  C   UNL     1      26.428  45.205  53.721  1.00  0.00    -0.041 A 
HETATM   17  C   UNL     1      27.573  44.872  54.460  1.00  0.00     0.009 A 
HETATM   18  C   UNL     1      28.246  45.845  55.203  1.00  0.00     0.001 A 
HETATM   19  C   UNL     1      27.791  47.161  55.205  1.00  0.00     0.000 A 
HETATM   20  C   UNL     1      26.661  47.508  54.466  1.00  0.00     0.001 A 
HETATM   21  C   UNL     1      25.983  46.535  53.727  1.00  0.00     0.009 A 
ENDBRANCH  15  16
ENDBRANCH  12  15
ENDBRANCH   7  11
BRANCH   1  22
HETATM   22  C   UNL     1      27.052  39.198  47.211  1.00  0.00    -0.035 A 
HETATM   23  C   UNL     1      27.427  38.388  46.125  1.00  0.00     0.012 A 
HETATM   24  C   UNL     1      27.930  38.938  44.940  1.00  0.00     0.037 A 
HETATM   25  C   UNL     1      28.074  40.316  44.812  1.00  0.00     0.068 A 
HETATM   26  C   UNL     1      27.718  41.135  45.883  1.00  0.00     0.037 A 
HETATM   27  C   UNL     1      27.220  40.586  47.070  1.00  0.00     0.012 A 
BRANCH  25  28
HETATM   28  O   UNL     1      28.548  40.975  43.711  1.00  0.00    -0.356 OA
HETATM   29  C   UNL     1      29.577  40.326  42.973  1.00  0.00     0.210 C 
ENDBRANCH  25  28
ENDBRANCH   1  22
BRANCH   8  30
HETATM   30  C   UNL     1      29.823  38.371  49.040  1.00  0.00     0.409 C 
HETATM   31  F   UNL     1      29.862  37.606  47.934  1.00  0.00    -0.169 F 
HETATM   32  F   UNL     1      29.886  39.663  48.643  1.00  0.00    -0.169 F 
HETATM   33  F   UNL     1      30.973  38.136  49.729  1.00  0.00    -0.169 F 
ENDBRANCH   8  30
TORSDOF 6
ENDMDL
MODEL 8
REMARK VINA RESULT:      -7.8     11.504     13.764
REMARK  6 active torsions:
REMARK  status: ('A' for Active; 'I' for Inactive)
REMARK    1  A    between atoms: O_2  and  C_3 
REMARK    2  A    between atoms: C_6  and  C_7 
REMARK    3  A    between atoms: C_13  and  C_14 
REMARK       I    between atoms: C_14  and  N_15 
REMARK    4  A    between atoms: N_15  and  C_16 
REMARK    5  A    between atoms: C_16  and  C_17 
REMARK    6  A    between atoms: C_24  and  C_25 
ROOT
HETATM    1  C   UNL     1      28.927  51.509  41.656  1.00  0.00     0.118 C 
HETATM    2  N   UNL     1      27.831  50.548  41.481  1.00  0.00    -0.365 N 
HETATM    3  C   UNL     1      27.315  50.295  40.247  1.00  0.00     0.138 A 
HETATM    4  N   UNL     1      27.598  51.118  39.183  1.00  0.00    -0.240 N 
HETATM    5  N   UNL     1      26.981  50.774  38.044  1.00  0.00    -0.181 NA
HETATM    6  C   UNL     1      26.373  49.629  38.365  1.00  0.00     0.160 A 
HETATM    7  C   UNL     1      26.523  49.284  39.732  1.00  0.00     0.096 A 
HETATM    8  C   UNL     1      28.486  52.264  39.229  1.00  0.00     0.221 C 
HETATM    9  C   UNL     1      28.735  52.689  40.686  1.00  0.00     0.066 C 
HETATM   10  H   UNL     1      27.850  49.807  42.182  1.00  0.00     0.161 HD
ENDROOT
BRANCH   7  11
HETATM   11  C   UNL     1      25.978  48.101  40.362  1.00  0.00     0.257 C 
HETATM   12  N   UNL     1      26.896  47.252  40.933  1.00  0.00    -0.352 N 
HETATM   13  H   UNL     1      27.865  47.539  40.985  1.00  0.00     0.163 HD
HETATM   14  O   UNL     1      24.770  47.887  40.397  1.00  0.00    -0.267 OA
BRANCH  12  15
HETATM   15  C   UNL     1      26.467  46.023  41.554  1.00  0.00     0.161 C 
BRANCH  15  16
HETATM   16  C   UNL     1      27.142  44.805  40.978  1.00  0.00    -0.041 A 
HETATM   17  C   UNL     1      26.954  43.538  41.549  1.00  0.00     0.009 A 
HETATM   18  C   UNL     1      27.526  42.404  40.968  1.00  0.00     0.001 A 
HETATM   19  C   UNL     1      28.280  42.523  39.803  1.00  0.00     0.000 A 
HETATM   20  C   UNL     1      28.466  43.774  39.218  1.00  0.00     0.001 A 
HETATM   21  C   UNL     1      27.899  44.909  39.801  1.00  0.00     0.009 A 
ENDBRANCH  15  16
ENDBRANCH  12  15
ENDBRANCH   7  11
BRANCH   1  22
HETATM   22  C   UNL     1      30.299  50.851  41.636  1.00  0.00    -0.035 A 
HETATM   23  C   UNL     1      30.481  49.469  41.458  1.00  0.00     0.012 A 
HETATM   24  C   UNL     1      31.755  48.891  41.473  1.00  0.00     0.037 A 
HETATM   25  C   UNL     1      32.883  49.681  41.671  1.00  0.00     0.068 A 
HETATM   26  C   UNL     1      32.721  51.053  41.863  1.00  0.00     0.037 A 
HETATM   27  C   UNL     1      31.446  51.632  41.853  1.00  0.00     0.012 A 
BRANCH  25  28
HETATM   28  O   UNL     1      34.177  49.240  41.705  1.00  0.00    -0.356 OA
HETATM   29  C   UNL     1      35.191  50.238  41.681  1.00  0.00     0.210 C 
ENDBRANCH  25  28
ENDBRANCH   1  22
BRANCH   8  30
HETATM   30  C   UNL     1      29.754  51.975  38.450  1.00  0.00     0.409 C 
HETATM   31  F   UNL     1      30.090  50.672  38.413  1.00  0.00    -0.169 F 
HETATM   32  F   UNL     1      29.678  52.411  37.171  1.00  0.00    -0.169 F 
HETATM   33  F   UNL     1      30.801  52.641  39.009  1.00  0.00    -0.169 F 
ENDBRANCH   8  30
TORSDOF 6
ENDMDL
MODEL 9
REMARK VINA RESULT:      -7.8      3.145      6.769
REMARK  6 active torsions:
REMARK  status: ('A' for Active; 'I' for Inactive)
REMARK    1  A    between atoms: O_2  and  C_3 
REMARK    2  A    between atoms: C_6  and  C_7 
REMARK    3  A    between atoms: C_13  and  C_14 
REMARK       I    between atoms: C_14  and  N_15 
REMARK    4  A    between atoms: N_15  and  C_16 
REMARK    5  A    between atoms: C_16  and  C_17 
REMARK    6  A    between atoms: C_24  and  C_25 
ROOT
HETATM    1  C   UNL     1      26.140  43.640  54.107  1.00  0.00     0.118 C 
HETATM    2  N   UNL     1      26.459  42.784  52.958  1.00  0.00    -0.365 N 
HETATM    3  C   UNL     1      26.431  43.278  51.690  1.00  0.00     0.138 A 
HETATM    4  N   UNL     1      25.840  44.490  51.421  1.00  0.00    -0.240 N 
HETATM    5  N   UNL     1      25.843  44.825  50.122  1.00  0.00    -0.181 NA
HETATM    6  C   UNL     1      26.559  43.847  49.561  1.00  0.00     0.160 A 
HETATM    7  C   UNL     1      26.938  42.837  50.481  1.00  0.00     0.096 A 
HETATM    8  C   UNL     1      25.259  45.374  52.413  1.00  0.00     0.221 C 
HETATM    9  C   UNL     1      25.009  44.612  53.725  1.00  0.00     0.066 C 
HETATM   10  H   UNL     1      27.121  42.046  53.197  1.00  0.00     0.161 HD
ENDROOT
BRANCH   7  11
HETATM   11  C   UNL     1      27.718  41.661  50.160  1.00  0.00     0.257 C 
HETATM   12  N   UNL     1      27.750  41.311  48.830  1.00  0.00    -0.352 N 
HETATM   13  H   UNL     1      27.336  41.932  48.149  1.00  0.00     0.163 HD
HETATM   14  O   UNL     1      28.326  41.035  51.022  1.00  0.00    -0.267 OA
BRANCH  12  15
HETATM   15  C   UNL     1      28.465  40.134  48.403  1.00  0.00     0.161 C 
BRANCH  15  16
HETATM   16  C   UNL     1      27.600  38.900  48.367  1.00  0.00    -0.041 A 
HETATM   17  C   UNL     1      26.760  38.641  47.274  1.00  0.00     0.009 A 
HETATM   18  C   UNL     1      26.014  37.462  47.216  1.00  0.00     0.001 A 
HETATM   19  C   UNL     1      26.111  36.524  48.241  1.00  0.00     0.000 A 
HETATM   20  C   UNL     1      26.951  36.763  49.327  1.00  0.00     0.001 A 
HETATM   21  C   UNL     1      27.693  37.944  49.390  1.00  0.00     0.009 A 
ENDBRANCH  15  16
ENDBRANCH  12  15
ENDBRANCH   7  11
BRANCH   1  22
HETATM   22  C   UNL     1      27.374  44.272  54.735  1.00  0.00    -0.035 A 
HETATM   23  C   UNL     1      28.676  43.792  54.510  1.00  0.00     0.012 A 
HETATM   24  C   UNL     1      29.788  44.379  55.124  1.00  0.00     0.037 A 
HETATM   25  C   UNL     1      29.626  45.461  55.984  1.00  0.00     0.068 A 
HETATM   26  C   UNL     1      28.341  45.942  56.229  1.00  0.00     0.037 A 
HETATM   27  C   UNL     1      27.227  45.354  55.619  1.00  0.00     0.012 A 
BRANCH  25  28
HETATM   28  O   UNL     1      30.627  46.121  56.641  1.00  0.00    -0.356 OA
HETATM   29  C   UNL     1      30.599  46.069  58.063  1.00  0.00     0.210 C 
ENDBRANCH  25  28
ENDBRANCH   1  22
BRANCH   8  30
HETATM   30  C   UNL     1      26.117  46.613  52.578  1.00  0.00     0.409 C 
HETATM   31  F   UNL     1      27.435  46.358  52.674  1.00  0.00    -0.169 F 
HETATM   32  F   UNL     1      25.946  47.490  51.561  1.00  0.00    -0.169 F 
HETATM   33  F   UNL     1      25.756  47.278  53.708  1.00  0.00    -0.169 F 
ENDBRANCH   8  30
TORSDOF 6
ENDMDL
MODEL 10
REMARK VINA RESULT:      -7.7      4.112      8.531
REMARK  6 active torsions:
REMARK  status: ('A' for Active; 'I' for Inactive)
REMARK    1  A    between atoms: O_2  and  C_3 
REMARK    2  A    between atoms: C_6  and  C_7 
REMARK    3  A    between atoms: C_13  and  C_14 
REMARK       I    between atoms: C_14  and  N_15 
REMARK    4  A    between atoms: N_15  and  C_16 
REMARK    5  A    between atoms: C_16  and  C_17 
REMARK    6  A    between atoms: C_24  and  C_25 
ROOT
HETATM    1  C   UNL     1      23.389  44.232  50.305  1.00  0.00     0.118 C 
HETATM    2  N   UNL     1      23.112  45.615  49.899  1.00  0.00    -0.365 N 
HETATM    3  C   UNL     1      24.104  46.547  49.872  1.00  0.00     0.138 A 
HETATM    4  N   UNL     1      25.312  46.305  50.483  1.00  0.00    -0.240 N 
HETATM    5  N   UNL     1      26.174  47.331  50.419  1.00  0.00    -0.181 NA
HETATM    6  C   UNL     1      25.535  48.213  49.646  1.00  0.00     0.160 A 
HETATM    7  C   UNL     1      24.228  47.795  49.288  1.00  0.00     0.096 A 
HETATM    8  C   UNL     1      25.680  45.068  51.143  1.00  0.00     0.221 C 
HETATM    9  C   UNL     1      24.427  44.228  51.442  1.00  0.00     0.066 C 
HETATM   10  H   UNL     1      22.345  45.676  49.230  1.00  0.00     0.161 HD
ENDROOT
BRANCH   7  11
HETATM   11  C   UNL     1      23.308  48.541  48.457  1.00  0.00     0.257 C 
HETATM   12  N   UNL     1      23.205  49.883  48.737  1.00  0.00    -0.352 N 
HETATM   13  H   UNL     1      23.837  50.294  49.411  1.00  0.00     0.163 HD
HETATM   14  O   UNL     1      22.680  48.006  47.549  1.00  0.00    -0.267 OA
BRANCH  12  15
HETATM   15  C   UNL     1      22.288  50.715  47.998  1.00  0.00     0.161 C 
BRANCH  15  16
HETATM   16  C   UNL     1      20.958  50.881  48.685  1.00  0.00    -0.041 A 
HETATM   17  C   UNL     1      20.587  50.045  49.749  1.00  0.00     0.009 A 
HETATM   18  C   UNL     1      19.383  50.249  50.427  1.00  0.00     0.001 A 
HETATM   19  C   UNL     1      18.544  51.298  50.058  1.00  0.00     0.000 A 
HETATM   20  C   UNL     1      18.905  52.143  49.010  1.00  0.00     0.001 A 
HETATM   21  C   UNL     1      20.106  51.937  48.328  1.00  0.00     0.009 A 
ENDBRANCH  15  16
ENDBRANCH  12  15
ENDBRANCH   7  11
BRANCH   1  22
HETATM   22  C   UNL     1      23.693  43.319  49.127  1.00  0.00    -0.035 A 
HETATM   23  C   UNL     1      23.540  43.723  47.789  1.00  0.00     0.012 A 
HETATM   24  C   UNL     1      23.802  42.849  46.727  1.00  0.00     0.037 A 
HETATM   25  C   UNL     1      24.220  41.546  46.976  1.00  0.00     0.068 A 
HETATM   26  C   UNL     1      24.364  41.124  48.297  1.00  0.00     0.037 A 
HETATM   27  C   UNL     1      24.099  41.995  49.361  1.00  0.00     0.012 A 
BRANCH  25  28
HETATM   28  O   UNL     1      24.509  40.600  46.031  1.00  0.00    -0.356 OA
HETATM   29  C   UNL     1      25.810  40.028  46.078  1.00  0.00     0.210 C 
ENDBRANCH  25  28
ENDBRANCH   1  22
BRANCH   8  30
HETATM   30  C   UNL     1      26.730  44.334  50.333  1.00  0.00     0.409 C 
HETATM   31  F   UNL     1      26.560  44.429  49.001  1.00  0.00    -0.169 F 
HETATM   32  F   UNL     1      27.983  44.762  50.613  1.00  0.00    -0.169 F 
HETATM   33  F   UNL     1      26.711  43.009  50.643  1.00  0.00    -0.169 F 
ENDBRANCH   8  30
TORSDOF 6
ENDMDL
