MODEL 1
REMARK VINA RESULT:      -9.9      0.000      0.000
REMARK  4 active torsions:
REMARK  status: ('A' for Active; 'I' for Inactive)
REMARK    1  A    between atoms: C_6  and  C_7 
REMARK    2  A    between atoms: C_15  and  C_16 
REMARK       I    between atoms: C_16  and  N_17 
REMARK    3  A    between atoms: N_17  and  N_18 
REMARK       I    between atoms: N_18  and  C_19 
REMARK       I    between atoms: C_19  and  N_20 
REMARK    4  A    between atoms: N_20  and  C_21 
ROOT
HETATM    1  C   UNL     1      27.558  45.181  55.082  1.00  0.00     0.001 A 
HETATM    2  C   UNL     1      27.173  44.582  53.884  1.00  0.00     0.015 A 
HETATM    3  C   UNL     1      26.657  45.351  52.808  1.00  0.00     0.009 A 
HETATM    4  C   UNL     1      26.551  46.745  52.964  1.00  0.00     0.068 A 
HETATM    5  N   UNL     1      26.100  47.559  51.997  1.00  0.00    -0.248 NA
HETATM    6  C   UNL     1      25.715  47.043  50.805  1.00  0.00     0.070 A 
HETATM    7  C   UNL     1      25.741  45.681  50.564  1.00  0.00     0.050 A 
HETATM    8  C   UNL     1      26.246  44.836  51.558  1.00  0.00     0.048 A 
HETATM    9  C   UNL     1      26.943  47.319  54.167  1.00  0.00     0.032 A 
HETATM   10  C   UNL     1      27.442  46.555  55.224  1.00  0.00     0.002 A 
ENDROOT
BRANCH   8  11
HETATM   11  C   UNL     1      26.359  43.389  51.242  1.00  0.00     0.271 C 
HETATM   12  N   UNL     1      27.654  42.927  51.126  1.00  0.00    -0.262 N 
HETATM   13  H   UNL     1      28.473  43.531  51.128  1.00  0.00     0.190 HD
HETATM   14  O   UNL     1      25.365  42.681  51.119  1.00  0.00    -0.266 OA
BRANCH  12  15
HETATM   15  N   UNL     1      27.869  41.601  50.740  1.00  0.00    -0.249 N 
HETATM   16  C   UNL     1      28.548  40.778  51.599  1.00  0.00     0.341 C 
HETATM   17  N   UNL     1      28.852  39.523  51.168  1.00  0.00    -0.286 N 
HETATM   18  O   UNL     1      28.843  41.118  52.747  1.00  0.00    -0.245 OA
HETATM   19  H   UNL     1      29.315  38.925  51.833  1.00  0.00     0.172 HD
HETATM   20  H   UNL     1      27.930  41.419  49.736  1.00  0.00     0.192 HD
BRANCH  17  21
HETATM   21  C   UNL     1      28.537  39.008  49.946  1.00  0.00     0.174 A 
HETATM   22  S   UNL     1      29.807  38.183  49.166  1.00  0.00    -0.062 SA
HETATM   23  C   UNL     1      28.748  37.839  47.860  1.00  0.00     0.072 A 
HETATM   24  C   UNL     1      27.509  38.392  48.113  1.00  0.00     0.126 A 
HETATM   25  N   UNL     1      27.392  39.068  49.312  1.00  0.00    -0.236 NA
ENDBRANCH  17  21
ENDBRANCH  12  15
ENDBRANCH   8  11
BRANCH   6  26
HETATM   26  C   UNL     1      25.247  48.031  49.815  1.00  0.00     0.014 A 
HETATM   27  C   UNL     1      26.102  48.865  49.066  1.00  0.00     0.046 A 
HETATM   28 CL   UNL     1      27.823  48.866  49.272  1.00  0.00    -0.083 Cl
HETATM   29  C   UNL     1      25.586  49.779  48.137  1.00  0.00     0.025 A 
HETATM   30  C   UNL     1      24.210  49.895  47.949  1.00  0.00     0.002 A 
HETATM   31  C   UNL     1      23.345  49.101  48.692  1.00  0.00     0.001 A 
HETATM   32  C   UNL     1      23.859  48.183  49.613  1.00  0.00     0.015 A 
ENDBRANCH   6  26
TORSDOF 4
ENDMDL
MODEL 2
REMARK VINA RESULT:      -9.7      3.814      8.045
REMARK  4 active torsions:
REMARK  status: ('A' for Active; 'I' for Inactive)
REMARK    1  A    between atoms: C_6  and  C_7 
REMARK    2  A    between atoms: C_15  and  C_16 
REMARK       I    between atoms: C_16  and  N_17 
REMARK    3  A    between atoms: N_17  and  N_18 
REMARK       I    between atoms: N_18  and  C_19 
REMARK       I    between atoms: C_19  and  N_20 
REMARK    4  A    between atoms: N_20  and  C_21 
ROOT
HETATM    1  C   UNL     1      26.131  40.489  49.384  1.00  0.00     0.001 A 
HETATM    2  C   UNL     1      25.702  41.722  49.872  1.00  0.00     0.015 A 
HETATM    3  C   UNL     1      26.379  42.367  50.939  1.00  0.00     0.009 A 
HETATM    4  C   UNL     1      27.511  41.745  51.496  1.00  0.00     0.068 A 
HETATM    5  N   UNL     1      28.232  42.288  52.490  1.00  0.00    -0.248 NA
HETATM    6  C   UNL     1      27.874  43.488  53.007  1.00  0.00     0.070 A 
HETATM    7  C   UNL     1      26.753  44.163  52.557  1.00  0.00     0.050 A 
HETATM    8  C   UNL     1      26.023  43.617  51.497  1.00  0.00     0.048 A 
HETATM    9  C   UNL     1      27.920  40.517  50.991  1.00  0.00     0.032 A 
HETATM   10  C   UNL     1      27.244  39.883  49.947  1.00  0.00     0.002 A 
ENDROOT
BRANCH   8  11
HETATM   11  C   UNL     1      24.883  44.406  50.964  1.00  0.00     0.271 C 
HETATM   12  N   UNL     1      25.226  45.321  49.989  1.00  0.00    -0.262 N 
HETATM   13  H   UNL     1      26.185  45.542  49.733  1.00  0.00     0.190 HD
HETATM   14  O   UNL     1      23.738  44.224  51.361  1.00  0.00    -0.266 OA
BRANCH  12  15
HETATM   15  N   UNL     1      24.242  46.177  49.488  1.00  0.00    -0.249 N 
HETATM   16  C   UNL     1      24.124  47.425  50.042  1.00  0.00     0.341 C 
HETATM   17  N   UNL     1      23.093  48.208  49.628  1.00  0.00    -0.286 N 
HETATM   18  O   UNL     1      24.940  47.867  50.855  1.00  0.00    -0.245 OA
HETATM   19  H   UNL     1      23.053  49.135  50.021  1.00  0.00     0.172 HD
HETATM   20  H   UNL     1      23.408  45.737  49.091  1.00  0.00     0.192 HD
BRANCH  17  21
HETATM   21  C   UNL     1      22.156  47.860  48.701  1.00  0.00     0.174 A 
HETATM   22  S   UNL     1      20.562  48.329  49.078  1.00  0.00    -0.062 SA
HETATM   23  C   UNL     1      20.036  47.646  47.594  1.00  0.00     0.072 A 
HETATM   24  C   UNL     1      21.115  47.100  46.930  1.00  0.00     0.126 A 
HETATM   25  N   UNL     1      22.333  47.221  47.571  1.00  0.00    -0.236 NA
ENDBRANCH  17  21
ENDBRANCH  12  15
ENDBRANCH   8  11
BRANCH   6  26
HETATM   26  C   UNL     1      28.744  43.992  54.085  1.00  0.00     0.014 A 
HETATM   27  C   UNL     1      28.557  45.225  54.741  1.00  0.00     0.046 A 
HETATM   28 CL   UNL     1      27.299  46.335  54.303  1.00  0.00    -0.083 Cl
HETATM   29  C   UNL     1      29.422  45.638  55.764  1.00  0.00     0.025 A 
HETATM   30  C   UNL     1      30.502  44.841  56.140  1.00  0.00     0.002 A 
HETATM   31  C   UNL     1      30.722  43.631  55.493  1.00  0.00     0.001 A 
HETATM   32  C   UNL     1      29.854  43.215  54.480  1.00  0.00     0.015 A 
ENDBRANCH   6  26
TORSDOF 4
ENDMDL
MODEL 3
REMARK VINA RESULT:      -9.4      3.945      8.264
REMARK  4 active torsions:
REMARK  status: ('A' for Active; 'I' for Inactive)
REMARK    1  A    between atoms: C_6  and  C_7 
REMARK    2  A    between atoms: C_15  and  C_16 
REMARK       I    between atoms: C_16  and  N_17 
REMARK    3  A    between atoms: N_17  and  N_18 
REMARK       I    between atoms: N_18  and  C_19 
REMARK       I    between atoms: C_19  and  N_20 
REMARK    4  A    between atoms: N_20  and  C_21 
ROOT
HETATM    1  C   UNL     1      25.808  41.214  49.965  1.00  0.00     0.001 A 
HETATM    2  C   UNL     1      25.613  42.561  50.265  1.00  0.00     0.015 A 
HETATM    3  C   UNL     1      26.284  43.179  51.352  1.00  0.00     0.009 A 
HETATM    4  C   UNL     1      27.172  42.407  52.125  1.00  0.00     0.068 A 
HETATM    5  N   UNL     1      27.871  42.907  53.156  1.00  0.00    -0.248 NA
HETATM    6  C   UNL     1      27.733  44.211  53.497  1.00  0.00     0.070 A 
HETATM    7  C   UNL     1      26.855  45.045  52.827  1.00  0.00     0.050 A 
HETATM    8  C   UNL     1      26.154  44.535  51.730  1.00  0.00     0.048 A 
HETATM    9  C   UNL     1      27.351  41.068  51.805  1.00  0.00     0.032 A 
HETATM   10  C   UNL     1      26.680  40.464  50.739  1.00  0.00     0.002 A 
ENDROOT
BRANCH   8  11
HETATM   11  C   UNL     1      25.294  45.473  50.963  1.00  0.00     0.271 C 
HETATM   12  N   UNL     1      25.982  46.461  50.289  1.00  0.00    -0.262 N 
HETATM   13  H   UNL     1      26.979  46.629  50.395  1.00  0.00     0.190 HD
HETATM   14  O   UNL     1      24.075  45.343  50.933  1.00  0.00    -0.266 OA
BRANCH  12  15
HETATM   15  N   UNL     1      25.260  47.448  49.614  1.00  0.00    -0.249 N 
HETATM   16  C   UNL     1      25.912  48.600  49.258  1.00  0.00     0.341 C 
HETATM   17  N   UNL     1      25.176  49.600  48.703  1.00  0.00    -0.286 N 
HETATM   18  O   UNL     1      27.133  48.733  49.379  1.00  0.00    -0.245 OA
HETATM   19  H   UNL     1      25.686  50.419  48.413  1.00  0.00     0.172 HD
HETATM   20  H   UNL     1      24.255  47.493  49.801  1.00  0.00     0.192 HD
BRANCH  17  21
HETATM   21  C   UNL     1      23.835  49.560  48.468  1.00  0.00     0.174 A 
HETATM   22  S   UNL     1      22.963  50.908  49.038  1.00  0.00    -0.062 SA
HETATM   23  C   UNL     1      21.525  50.214  48.408  1.00  0.00     0.072 A 
HETATM   24  C   UNL     1      21.818  49.000  47.822  1.00  0.00     0.126 A 
HETATM   25  N   UNL     1      23.147  48.624  47.861  1.00  0.00    -0.236 NA
ENDBRANCH  17  21
ENDBRANCH  12  15
ENDBRANCH   8  11
BRANCH   6  26
HETATM   26  C   UNL     1      28.558  44.652  54.637  1.00  0.00     0.014 A 
HETATM   27  C   UNL     1      29.839  44.142  54.930  1.00  0.00     0.046 A 
HETATM   28 CL   UNL     1      30.575  42.874  54.004  1.00  0.00    -0.083 Cl
HETATM   29  C   UNL     1      30.569  44.613  56.030  1.00  0.00     0.025 A 
HETATM   30  C   UNL     1      30.032  45.587  56.870  1.00  0.00     0.002 A 
HETATM   31  C   UNL     1      28.760  46.089  56.617  1.00  0.00     0.001 A 
HETATM   32  C   UNL     1      28.036  45.626  55.515  1.00  0.00     0.015 A 
ENDBRANCH   6  26
TORSDOF 4
ENDMDL
MODEL 4
REMARK VINA RESULT:      -9.3      5.311      9.296
REMARK  4 active torsions:
REMARK  status: ('A' for Active; 'I' for Inactive)
REMARK    1  A    between atoms: C_6  and  C_7 
REMARK    2  A    between atoms: C_15  and  C_16 
REMARK       I    between atoms: C_16  and  N_17 
REMARK    3  A    between atoms: N_17  and  N_18 
REMARK       I    between atoms: N_18  and  C_19 
REMARK       I    between atoms: C_19  and  N_20 
REMARK    4  A    between atoms: N_20  and  C_21 
ROOT
HETATM    1  C   UNL     1      25.989  50.323  47.914  1.00  0.00     0.001 A 
HETATM    2  C   UNL     1      24.942  49.476  48.273  1.00  0.00     0.015 A 
HETATM    3  C   UNL     1      25.138  48.410  49.190  1.00  0.00     0.009 A 
HETATM    4  C   UNL     1      26.416  48.226  49.748  1.00  0.00     0.068 A 
HETATM    5  N   UNL     1      26.694  47.263  50.642  1.00  0.00    -0.248 NA
HETATM    6  C   UNL     1      25.720  46.409  51.039  1.00  0.00     0.070 A 
HETATM    7  C   UNL     1      24.440  46.480  50.520  1.00  0.00     0.050 A 
HETATM    8  C   UNL     1      24.140  47.505  49.617  1.00  0.00     0.048 A 
HETATM    9  C   UNL     1      27.443  49.084  49.375  1.00  0.00     0.032 A 
HETATM   10  C   UNL     1      27.245  50.125  48.466  1.00  0.00     0.002 A 
ENDROOT
BRANCH   8  11
HETATM   11  C   UNL     1      22.735  47.624  49.148  1.00  0.00     0.271 C 
HETATM   12  N   UNL     1      22.002  48.609  49.778  1.00  0.00    -0.262 N 
HETATM   13  H   UNL     1      22.335  49.134  50.584  1.00  0.00     0.190 HD
HETATM   14  O   UNL     1      22.295  46.905  48.258  1.00  0.00    -0.266 OA
BRANCH  12  15
HETATM   15  N   UNL     1      20.645  48.741  49.476  1.00  0.00    -0.249 N 
HETATM   16  C   UNL     1      20.025  49.926  49.777  1.00  0.00     0.341 C 
HETATM   17  N   UNL     1      18.681  50.006  49.584  1.00  0.00    -0.286 N 
HETATM   18  O   UNL     1      20.648  50.918  50.163  1.00  0.00    -0.245 OA
HETATM   19  H   UNL     1      18.257  50.899  49.774  1.00  0.00     0.172 HD
HETATM   20  H   UNL     1      20.087  47.883  49.477  1.00  0.00     0.192 HD
BRANCH  17  21
HETATM   21  C   UNL     1      17.887  49.002  49.114  1.00  0.00     0.174 A 
HETATM   22  S   UNL     1      16.776  49.469  47.910  1.00  0.00    -0.062 SA
HETATM   23  C   UNL     1      16.232  47.844  47.817  1.00  0.00     0.072 A 
HETATM   24  C   UNL     1      16.931  47.071  48.721  1.00  0.00     0.126 A 
HETATM   25  N   UNL     1      17.880  47.741  49.469  1.00  0.00    -0.236 NA
ENDBRANCH  17  21
ENDBRANCH  12  15
ENDBRANCH   8  11
BRANCH   6  26
HETATM   26  C   UNL     1      26.137  45.401  52.031  1.00  0.00     0.014 A 
HETATM   27  C   UNL     1      26.201  45.636  53.419  1.00  0.00     0.046 A 
HETATM   28 CL   UNL     1      25.852  47.182  54.122  1.00  0.00    -0.083 Cl
HETATM   29  C   UNL     1      26.602  44.627  54.305  1.00  0.00     0.025 A 
HETATM   30  C   UNL     1      26.965  43.369  53.826  1.00  0.00     0.002 A 
HETATM   31  C   UNL     1      26.933  43.119  52.459  1.00  0.00     0.001 A 
HETATM   32  C   UNL     1      26.525  44.122  51.576  1.00  0.00     0.015 A 
ENDBRANCH   6  26
TORSDOF 4
ENDMDL
MODEL 5
REMARK VINA RESULT:      -9.1      1.824      2.413
REMARK  4 active torsions:
REMARK  status: ('A' for Active; 'I' for Inactive)
REMARK    1  A    between atoms: C_6  and  C_7 
REMARK    2  A    between atoms: C_15  and  C_16 
REMARK       I    between atoms: C_16  and  N_17 
REMARK    3  A    between atoms: N_17  and  N_18 
REMARK       I    between atoms: N_18  and  C_19 
REMARK       I    between atoms: C_19  and  N_20 
REMARK    4  A    between atoms: N_20  and  C_21 
ROOT
HETATM    1  C   UNL     1      26.884  45.061  54.043  1.00  0.00     0.001 A 
HETATM    2  C   UNL     1      26.703  44.674  52.717  1.00  0.00     0.015 A 
HETATM    3  C   UNL     1      26.048  45.521  51.785  1.00  0.00     0.009 A 
HETATM    4  C   UNL     1      25.591  46.779  52.221  1.00  0.00     0.068 A 
HETATM    5  N   UNL     1      24.983  47.659  51.409  1.00  0.00    -0.248 NA
HETATM    6  C   UNL     1      24.782  47.349  50.106  1.00  0.00     0.070 A 
HETATM    7  C   UNL     1      25.158  46.123  49.588  1.00  0.00     0.050 A 
HETATM    8  C   UNL     1      25.823  45.219  50.422  1.00  0.00     0.048 A 
HETATM    9  C   UNL     1      25.784  47.141  53.547  1.00  0.00     0.032 A 
HETATM   10  C   UNL     1      26.422  46.299  54.461  1.00  0.00     0.002 A 
ENDROOT
BRANCH   8  11
HETATM   11  C   UNL     1      26.307  43.950  49.821  1.00  0.00     0.271 C 
HETATM   12  N   UNL     1      25.347  42.964  49.713  1.00  0.00    -0.262 N 
HETATM   13  H   UNL     1      24.417  43.033  50.119  1.00  0.00     0.190 HD
HETATM   14  O   UNL     1      27.465  43.824  49.440  1.00  0.00    -0.266 OA
BRANCH  12  15
HETATM   15  N   UNL     1      25.722  41.702  49.246  1.00  0.00    -0.249 N 
HETATM   16  C   UNL     1      24.780  40.943  48.603  1.00  0.00     0.341 C 
HETATM   17  N   UNL     1      25.120  39.673  48.253  1.00  0.00    -0.286 N 
HETATM   18  O   UNL     1      23.671  41.386  48.294  1.00  0.00    -0.245 OA
HETATM   19  H   UNL     1      24.425  39.150  47.745  1.00  0.00     0.172 HD
HETATM   20  H   UNL     1      26.470  41.226  49.757  1.00  0.00     0.192 HD
BRANCH  17  21
HETATM   21  C   UNL     1      26.326  39.083  48.488  1.00  0.00     0.174 A 
HETATM   22  S   UNL     1      27.265  38.787  47.097  1.00  0.00    -0.062 SA
HETATM   23  C   UNL     1      28.499  38.139  48.098  1.00  0.00     0.072 A 
HETATM   24  C   UNL     1      28.096  38.185  49.416  1.00  0.00     0.126 A 
HETATM   25  N   UNL     1      26.843  38.725  49.638  1.00  0.00    -0.236 NA
ENDBRANCH  17  21
ENDBRANCH  12  15
ENDBRANCH   8  11
BRANCH   6  26
HETATM   26  C   UNL     1      24.116  48.396  49.308  1.00  0.00     0.014 A 
HETATM   27  C   UNL     1      24.799  49.406  48.602  1.00  0.00     0.046 A 
HETATM   28 CL   UNL     1      26.525  49.573  48.644  1.00  0.00    -0.083 Cl
HETATM   29  C   UNL     1      24.100  50.367  47.859  1.00  0.00     0.025 A 
HETATM   30  C   UNL     1      22.707  50.353  47.819  1.00  0.00     0.002 A 
HETATM   31  C   UNL     1      22.009  49.381  48.526  1.00  0.00     0.001 A 
HETATM   32  C   UNL     1      22.706  48.417  49.260  1.00  0.00     0.015 A 
ENDBRANCH   6  26
TORSDOF 4
ENDMDL
MODEL 6
REMARK VINA RESULT:      -9.0      2.673      5.611
REMARK  4 active torsions:
REMARK  status: ('A' for Active; 'I' for Inactive)
REMARK    1  A    between atoms: C_6  and  C_7 
REMARK    2  A    between atoms: C_15  and  C_16 
REMARK       I    between atoms: C_16  and  N_17 
REMARK    3  A    between atoms: N_17  and  N_18 
REMARK       I    between atoms: N_18  and  C_19 
REMARK       I    between atoms: C_19  and  N_20 
REMARK    4  A    between atoms: N_20  and  C_21 
ROOT
HETATM    1  C   UNL     1      24.803  44.932  50.284  1.00  0.00     0.001 A 
HETATM    2  C   UNL     1      25.555  43.786  50.536  1.00  0.00     0.015 A 
HETATM    3  C   UNL     1      26.537  43.760  51.561  1.00  0.00     0.009 A 
HETATM    4  C   UNL     1      26.732  44.917  52.339  1.00  0.00     0.068 A 
HETATM    5  N   UNL     1      27.618  44.981  53.346  1.00  0.00    -0.248 NA
HETATM    6  C   UNL     1      28.377  43.901  53.648  1.00  0.00     0.070 A 
HETATM    7  C   UNL     1      28.290  42.729  52.918  1.00  0.00     0.050 A 
HETATM    8  C   UNL     1      27.343  42.647  51.893  1.00  0.00     0.048 A 
HETATM    9  C   UNL     1      25.969  46.045  52.069  1.00  0.00     0.032 A 
HETATM   10  C   UNL     1      25.011  46.067  51.053  1.00  0.00     0.002 A 
ENDROOT
BRANCH   8  11
HETATM   11  C   UNL     1      27.196  41.348  51.189  1.00  0.00     0.271 C 
HETATM   12  N   UNL     1      28.301  40.965  50.455  1.00  0.00    -0.262 N 
HETATM   13  H   UNL     1      29.108  41.564  50.294  1.00  0.00     0.190 HD
HETATM   14  O   UNL     1      26.173  40.680  51.285  1.00  0.00    -0.266 OA
BRANCH  12  15
HETATM   15  N   UNL     1      28.232  39.804  49.682  1.00  0.00    -0.249 N 
HETATM   16  C   UNL     1      28.982  38.724  50.065  1.00  0.00     0.341 C 
HETATM   17  N   UNL     1      28.997  37.638  49.244  1.00  0.00    -0.286 N 
HETATM   18  O   UNL     1      29.593  38.689  51.136  1.00  0.00    -0.245 OA
HETATM   19  H   UNL     1      29.522  36.843  49.569  1.00  0.00     0.172 HD
HETATM   20  H   UNL     1      28.020  39.926  48.688  1.00  0.00     0.192 HD
BRANCH  17  21
HETATM   21  C   UNL     1      28.325  37.530  48.063  1.00  0.00     0.174 A 
HETATM   22  S   UNL     1      26.927  36.556  48.118  1.00  0.00    -0.062 SA
HETATM   23  C   UNL     1      26.653  36.900  46.459  1.00  0.00     0.072 A 
HETATM   24  C   UNL     1      27.656  37.721  45.986  1.00  0.00     0.126 A 
HETATM   25  N   UNL     1      28.620  38.078  46.910  1.00  0.00    -0.236 NA
ENDBRANCH  17  21
ENDBRANCH  12  15
ENDBRANCH   8  11
BRANCH   6  26
HETATM   26  C   UNL     1      29.306  44.084  54.779  1.00  0.00     0.014 A 
HETATM   27  C   UNL     1      29.341  45.231  55.596  1.00  0.00     0.046 A 
HETATM   28 CL   UNL     1      28.321  46.607  55.320  1.00  0.00    -0.083 Cl
HETATM   29  C   UNL     1      30.249  45.334  56.659  1.00  0.00     0.025 A 
HETATM   30  C   UNL     1      31.153  44.305  56.917  1.00  0.00     0.002 A 
HETATM   31  C   UNL     1      31.155  43.173  56.112  1.00  0.00     0.001 A 
HETATM   32  C   UNL     1      30.243  43.066  55.057  1.00  0.00     0.015 A 
ENDBRANCH   6  26
TORSDOF 4
ENDMDL
MODEL 7
REMARK VINA RESULT:      -8.9      2.974      5.984
REMARK  4 active torsions:
REMARK  status: ('A' for Active; 'I' for Inactive)
REMARK    1  A    between atoms: C_6  and  C_7 
REMARK    2  A    between atoms: C_15  and  C_16 
REMARK       I    between atoms: C_16  and  N_17 
REMARK    3  A    between atoms: N_17  and  N_18 
REMARK       I    between atoms: N_18  and  C_19 
REMARK       I    between atoms: C_19  and  N_20 
REMARK    4  A    between atoms: N_20  and  C_21 
ROOT
HETATM    1  C   UNL     1      25.209  46.752  52.190  1.00  0.00     0.001 A 
HETATM    2  C   UNL     1      26.028  45.647  51.964  1.00  0.00     0.015 A 
HETATM    3  C   UNL     1      27.052  45.290  52.880  1.00  0.00     0.009 A 
HETATM    4  C   UNL     1      27.223  46.069  54.040  1.00  0.00     0.068 A 
HETATM    5  N   UNL     1      28.147  45.796  54.975  1.00  0.00    -0.248 NA
HETATM    6  C   UNL     1      28.971  44.732  54.822  1.00  0.00     0.070 A 
HETATM    7  C   UNL     1      28.911  43.928  53.698  1.00  0.00     0.050 A 
HETATM    8  C   UNL     1      27.927  44.188  52.740  1.00  0.00     0.048 A 
HETATM    9  C   UNL     1      26.394  47.164  54.242  1.00  0.00     0.032 A 
HETATM   10  C   UNL     1      25.394  47.514  53.333  1.00  0.00     0.002 A 
ENDROOT
BRANCH   8  11
HETATM   11  C   UNL     1      27.815  43.253  51.591  1.00  0.00     0.271 C 
HETATM   12  N   UNL     1      27.453  41.966  51.933  1.00  0.00    -0.262 N 
HETATM   13  H   UNL     1      27.387  41.632  52.892  1.00  0.00     0.190 HD
HETATM   14  O   UNL     1      28.014  43.627  50.441  1.00  0.00    -0.266 OA
BRANCH  12  15
HETATM   15  N   UNL     1      27.411  40.987  50.937  1.00  0.00    -0.249 N 
HETATM   16  C   UNL     1      26.190  40.637  50.423  1.00  0.00     0.341 C 
HETATM   17  N   UNL     1      26.147  39.605  49.538  1.00  0.00    -0.286 N 
HETATM   18  O   UNL     1      25.156  41.250  50.699  1.00  0.00    -0.245 OA
HETATM   19  H   UNL     1      25.243  39.394  49.144  1.00  0.00     0.172 HD
HETATM   20  H   UNL     1      28.157  40.287  50.948  1.00  0.00     0.192 HD
BRANCH  17  21
HETATM   21  C   UNL     1      27.220  38.882  49.111  1.00  0.00     0.174 A 
HETATM   22  S   UNL     1      27.249  38.556  47.439  1.00  0.00    -0.062 SA
HETATM   23  C   UNL     1      28.742  37.735  47.650  1.00  0.00     0.072 A 
HETATM   24  C   UNL     1      29.098  37.761  48.982  1.00  0.00     0.126 A 
HETATM   25  N   UNL     1      28.218  38.418  49.822  1.00  0.00    -0.236 NA
ENDBRANCH  17  21
ENDBRANCH  12  15
ENDBRANCH   8  11
BRANCH   6  26
HETATM   26  C   UNL     1      29.937  44.524  55.916  1.00  0.00     0.014 A 
HETATM   27  C   UNL     1      29.878  45.186  57.159  1.00  0.00     0.046 A 
HETATM   28 CL   UNL     1      28.682  46.387  57.524  1.00  0.00    -0.083 Cl
HETATM   29  C   UNL     1      30.830  44.934  58.157  1.00  0.00     0.025 A 
HETATM   30  C   UNL     1      31.869  44.032  57.931  1.00  0.00     0.002 A 
HETATM   31  C   UNL     1      31.962  43.383  56.706  1.00  0.00     0.001 A 
HETATM   32  C   UNL     1      31.008  43.628  55.713  1.00  0.00     0.015 A 
ENDBRANCH   6  26
TORSDOF 4
ENDMDL
MODEL 8
REMARK VINA RESULT:      -8.9      3.911      8.189
REMARK  4 active torsions:
REMARK  status: ('A' for Active; 'I' for Inactive)
REMARK    1  A    between atoms: C_6  and  C_7 
REMARK    2  A    between atoms: C_15  and  C_16 
REMARK       I    between atoms: C_16  and  N_17 
REMARK    3  A    between atoms: N_17  and  N_18 
REMARK       I    between atoms: N_18  and  C_19 
REMARK       I    between atoms: C_19  and  N_20 
REMARK    4  A    between atoms: N_20  and  C_21 
ROOT
HETATM    1  C   UNL     1      27.974  46.854  55.410  1.00  0.00     0.001 A 
HETATM    2  C   UNL     1      27.192  46.886  54.257  1.00  0.00     0.015 A 
HETATM    3  C   UNL     1      27.093  45.757  53.402  1.00  0.00     0.009 A 
HETATM    4  C   UNL     1      27.793  44.586  53.746  1.00  0.00     0.068 A 
HETATM    5  N   UNL     1      27.742  43.460  53.015  1.00  0.00    -0.248 NA
HETATM    6  C   UNL     1      26.995  43.421  51.886  1.00  0.00     0.070 A 
HETATM    7  C   UNL     1      26.302  44.532  51.438  1.00  0.00     0.050 A 
HETATM    8  C   UNL     1      26.324  45.693  52.217  1.00  0.00     0.048 A 
HETATM    9  C   UNL     1      28.564  44.578  54.901  1.00  0.00     0.032 A 
HETATM   10  C   UNL     1      28.663  45.695  55.732  1.00  0.00     0.002 A 
ENDROOT
BRANCH   8  11
HETATM   11  C   UNL     1      25.493  46.840  51.771  1.00  0.00     0.271 C 
HETATM   12  N   UNL     1      25.227  46.864  50.417  1.00  0.00    -0.262 N 
HETATM   13  H   UNL     1      25.657  46.233  49.745  1.00  0.00     0.190 HD
HETATM   14  O   UNL     1      25.073  47.673  52.566  1.00  0.00    -0.266 OA
BRANCH  12  15
HETATM   15  N   UNL     1      24.531  47.951  49.882  1.00  0.00    -0.249 N 
HETATM   16  C   UNL     1      25.234  48.878  49.159  1.00  0.00     0.341 C 
HETATM   17  N   UNL     1      24.572  49.990  48.739  1.00  0.00    -0.286 N 
HETATM   18  O   UNL     1      26.415  48.714  48.842  1.00  0.00    -0.245 OA
HETATM   19  H   UNL     1      25.100  50.636  48.175  1.00  0.00     0.172 HD
HETATM   20  H   UNL     1      23.694  48.254  50.386  1.00  0.00     0.192 HD
BRANCH  17  21
HETATM   21  C   UNL     1      23.258  50.266  48.976  1.00  0.00     0.174 A 
HETATM   22  S   UNL     1      22.209  49.940  47.674  1.00  0.00    -0.062 SA
HETATM   23  C   UNL     1      20.888  50.452  48.643  1.00  0.00     0.072 A 
HETATM   24  C   UNL     1      21.350  50.845  49.882  1.00  0.00     0.126 A 
HETATM   25  N   UNL     1      22.715  50.742  50.069  1.00  0.00    -0.236 NA
ENDBRANCH  17  21
ENDBRANCH  12  15
ENDBRANCH   8  11
BRANCH   6  26
HETATM   26  C   UNL     1      27.005  42.131  51.171  1.00  0.00     0.014 A 
HETATM   27  C   UNL     1      25.890  41.590  50.502  1.00  0.00     0.046 A 
HETATM   28 CL   UNL     1      24.337  42.362  50.495  1.00  0.00    -0.083 Cl
HETATM   29  C   UNL     1      25.974  40.358  49.838  1.00  0.00     0.025 A 
HETATM   30  C   UNL     1      27.164  39.632  49.844  1.00  0.00     0.002 A 
HETATM   31  C   UNL     1      28.272  40.133  50.517  1.00  0.00     0.001 A 
HETATM   32  C   UNL     1      28.191  41.365  51.172  1.00  0.00     0.015 A 
ENDBRANCH   6  26
TORSDOF 4
ENDMDL
MODEL 9
REMARK VINA RESULT:      -8.8      3.706      7.956
REMARK  4 active torsions:
REMARK  status: ('A' for Active; 'I' for Inactive)
REMARK    1  A    between atoms: C_6  and  C_7 
REMARK    2  A    between atoms: C_15  and  C_16 
REMARK       I    between atoms: C_16  and  N_17 
REMARK    3  A    between atoms: N_17  and  N_18 
REMARK       I    between atoms: N_18  and  C_19 
REMARK       I    between atoms: C_19  and  N_20 
REMARK    4  A    between atoms: N_20  and  C_21 
ROOT
HETATM    1  C   UNL     1      27.603  45.536  54.474  1.00  0.00     0.001 A 
HETATM    2  C   UNL     1      26.855  45.224  53.340  1.00  0.00     0.015 A 
HETATM    3  C   UNL     1      27.168  44.094  52.539  1.00  0.00     0.009 A 
HETATM    4  C   UNL     1      28.247  43.275  52.918  1.00  0.00     0.068 A 
HETATM    5  N   UNL     1      28.603  42.172  52.241  1.00  0.00    -0.248 NA
HETATM    6  C   UNL     1      27.915  41.808  51.133  1.00  0.00     0.070 A 
HETATM    7  C   UNL     1      26.863  42.568  50.653  1.00  0.00     0.050 A 
HETATM    8  C   UNL     1      26.467  43.696  51.377  1.00  0.00     0.048 A 
HETATM    9  C   UNL     1      28.975  43.606  54.054  1.00  0.00     0.032 A 
HETATM   10  C   UNL     1      28.668  44.724  54.832  1.00  0.00     0.002 A 
ENDROOT
BRANCH   8  11
HETATM   11  C   UNL     1      25.273  44.441  50.900  1.00  0.00     0.271 C 
HETATM   12  N   UNL     1      25.538  45.392  49.937  1.00  0.00    -0.262 N 
HETATM   13  H   UNL     1      26.477  45.666  49.654  1.00  0.00     0.190 HD
HETATM   14  O   UNL     1      24.152  44.194  51.331  1.00  0.00    -0.266 OA
BRANCH  12  15
HETATM   15  N   UNL     1      24.498  46.211  49.489  1.00  0.00    -0.249 N 
HETATM   16  C   UNL     1      24.288  47.403  50.131  1.00  0.00     0.341 C 
HETATM   17  N   UNL     1      23.205  48.139  49.763  1.00  0.00    -0.286 N 
HETATM   18  O   UNL     1      25.066  47.841  50.982  1.00  0.00    -0.245 OA
HETATM   19  H   UNL     1      23.097  49.029  50.222  1.00  0.00     0.172 HD
HETATM   20  H   UNL     1      23.700  45.743  49.052  1.00  0.00     0.192 HD
BRANCH  17  21
HETATM   21  C   UNL     1      22.301  47.794  48.804  1.00  0.00     0.174 A 
HETATM   22  S   UNL     1      20.715  48.352  49.076  1.00  0.00    -0.062 SA
HETATM   23  C   UNL     1      20.232  47.629  47.596  1.00  0.00     0.072 A 
HETATM   24  C   UNL     1      21.316  47.004  47.014  1.00  0.00     0.126 A 
HETATM   25  N   UNL     1      22.504  47.097  47.713  1.00  0.00    -0.236 NA
ENDBRANCH  17  21
ENDBRANCH  12  15
ENDBRANCH   8  11
BRANCH   6  26
HETATM   26  C   UNL     1      28.388  40.575  50.477  1.00  0.00     0.014 A 
HETATM   27  C   UNL     1      28.255  40.311  49.099  1.00  0.00     0.046 A 
HETATM   28 CL   UNL     1      27.451  41.398  48.012  1.00  0.00    -0.083 Cl
HETATM   29  C   UNL     1      28.734  39.117  48.543  1.00  0.00     0.025 A 
HETATM   30  C   UNL     1      29.336  38.154  49.350  1.00  0.00     0.002 A 
HETATM   31  C   UNL     1      29.458  38.379  50.716  1.00  0.00     0.001 A 
HETATM   32  C   UNL     1      28.989  39.574  51.269  1.00  0.00     0.015 A 
ENDBRANCH   6  26
TORSDOF 4
ENDMDL
MODEL 10
REMARK VINA RESULT:      -8.6      3.883      5.848
REMARK  4 active torsions:
REMARK  status: ('A' for Active; 'I' for Inactive)
REMARK    1  A    between atoms: C_6  and  C_7 
REMARK    2  A    between atoms: C_15  and  C_16 
REMARK       I    between atoms: C_16  and  N_17 
REMARK    3  A    between atoms: N_17  and  N_18 
REMARK       I    between atoms: N_18  and  C_19 
REMARK       I    between atoms: C_19  and  N_20 
REMARK    4  A    between atoms: N_20  and  C_21 
ROOT
HETATM    1  C   UNL     1      23.844  42.067  49.156  1.00  0.00     0.001 A 
HETATM    2  C   UNL     1      24.315  43.000  50.078  1.00  0.00     0.015 A 
HETATM    3  C   UNL     1      24.091  44.390  49.901  1.00  0.00     0.009 A 
HETATM    4  C   UNL     1      23.364  44.819  48.775  1.00  0.00     0.068 A 
HETATM    5  N   UNL     1      23.079  46.108  48.534  1.00  0.00    -0.248 NA
HETATM    6  C   UNL     1      23.502  47.066  49.394  1.00  0.00     0.070 A 
HETATM    7  C   UNL     1      24.258  46.753  50.510  1.00  0.00     0.050 A 
HETATM    8  C   UNL     1      24.525  45.407  50.781  1.00  0.00     0.048 A 
HETATM    9  C   UNL     1      22.903  43.870  47.871  1.00  0.00     0.032 A 
HETATM   10  C   UNL     1      23.136  42.504  48.047  1.00  0.00     0.002 A 
ENDROOT
BRANCH   8  11
HETATM   11  C   UNL     1      25.252  45.087  52.036  1.00  0.00     0.271 C 
HETATM   12  N   UNL     1      26.381  45.849  52.256  1.00  0.00    -0.262 N 
HETATM   13  H   UNL     1      26.771  46.493  51.571  1.00  0.00     0.190 HD
HETATM   14  O   UNL     1      24.847  44.223  52.807  1.00  0.00    -0.266 OA
BRANCH  12  15
HETATM   15  N   UNL     1      27.187  45.564  53.361  1.00  0.00    -0.249 N 
HETATM   16  C   UNL     1      26.950  46.242  54.528  1.00  0.00     0.341 C 
HETATM   17  N   UNL     1      27.810  46.042  55.563  1.00  0.00    -0.286 N 
HETATM   18  O   UNL     1      25.971  46.977  54.680  1.00  0.00    -0.245 OA
HETATM   19  H   UNL     1      27.591  46.520  56.422  1.00  0.00     0.172 HD
HETATM   20  H   UNL     1      28.138  45.241  53.166  1.00  0.00     0.192 HD
BRANCH  17  21
HETATM   21  C   UNL     1      28.896  45.219  55.543  1.00  0.00     0.174 A 
HETATM   22  S   UNL     1      30.158  45.666  56.597  1.00  0.00    -0.062 SA
HETATM   23  C   UNL     1      31.044  44.290  56.082  1.00  0.00     0.072 A 
HETATM   24  C   UNL     1      30.315  43.600  55.134  1.00  0.00     0.126 A 
HETATM   25  N   UNL     1      29.081  44.139  54.823  1.00  0.00    -0.236 NA
ENDBRANCH  17  21
ENDBRANCH  12  15
ENDBRANCH   8  11
BRANCH   6  26
HETATM   26  C   UNL     1      23.122  48.444  49.034  1.00  0.00     0.014 A 
HETATM   27  C   UNL     1      24.043  49.458  48.702  1.00  0.00     0.046 A 
HETATM   28 CL   UNL     1      25.759  49.211  48.741  1.00  0.00    -0.083 Cl
HETATM   29  C   UNL     1      23.608  50.747  48.366  1.00  0.00     0.025 A 
HETATM   30  C   UNL     1      22.250  51.059  48.371  1.00  0.00     0.002 A 
HETATM   31  C   UNL     1      21.322  50.083  48.717  1.00  0.00     0.001 A 
HETATM   32  C   UNL     1      21.755  48.795  49.045  1.00  0.00     0.015 A 
ENDBRANCH   6  26
TORSDOF 4
ENDMDL
