MODEL 1
REMARK VINA RESULT:      -9.5      0.000      0.000
REMARK  6 active torsions:
REMARK  status: ('A' for Active; 'I' for Inactive)
REMARK    1  A    between atoms: C_2  and  O_3 
REMARK    2  A    between atoms: C_2  and  C_4 
REMARK    3  A    between atoms: C_2  and  C_11 
REMARK    4  A    between atoms: C_11  and  N_12 
REMARK       I    between atoms: N_12  and  C_13 
REMARK    5  A    between atoms: C_13  and  C_14 
REMARK    6  A    between atoms: C_18  and  C_19 
ROOT
HETATM    1  N   UNL     1      26.640  44.616  51.362  1.00  0.00    -0.352 N 
HETATM    2  C   UNL     1      26.653  45.382  50.218  1.00  0.00     0.272 C 
HETATM    3  O   UNL     1      27.636  45.503  49.493  1.00  0.00    -0.266 OA
HETATM    4  H   UNL     1      25.731  44.502  51.804  1.00  0.00     0.162 HD
ENDROOT
BRANCH   2   5
HETATM    5  C   UNL     1      25.366  46.037  49.936  1.00  0.00     0.146 A 
HETATM    6  N   UNL     1      24.207  45.353  49.876  1.00  0.00    -0.169 NA
HETATM    7  N   UNL     1      23.290  46.295  49.594  1.00  0.00    -0.277 N 
HETATM    8  H   UNL     1      22.327  46.001  49.472  1.00  0.00     0.189 HD
HETATM    9  C   UNL     1      23.793  47.567  49.489  1.00  0.00     0.063 A 
HETATM   10  C   UNL     1      25.150  47.417  49.693  1.00  0.00     0.071 A 
BRANCH   9  11
HETATM   11  C   UNL     1      22.982  48.747  49.193  1.00  0.00    -0.008 A 
HETATM   12  C   UNL     1      23.576  49.990  48.919  1.00  0.00     0.017 A 
HETATM   13  C   UNL     1      22.787  51.108  48.635  1.00  0.00     0.043 A 
HETATM   14  C   UNL     1      21.403  50.988  48.620  1.00  0.00     0.116 A 
HETATM   15  F   UNL     1      20.650  52.060  48.346  1.00  0.00    -0.206 F 
HETATM   16  C   UNL     1      20.793  49.768  48.882  1.00  0.00     0.043 A 
HETATM   17  C   UNL     1      21.581  48.650  49.166  1.00  0.00     0.017 A 
ENDBRANCH   9  11
ENDBRANCH   2   5
BRANCH   1  18
HETATM   18  C   UNL     1      27.752  43.781  51.776  1.00  0.00     0.165 C 
BRANCH  18  19
HETATM   19  C   UNL     1      27.615  43.239  53.228  1.00  0.00     0.097 C 
HETATM   20  C   UNL     1      27.946  41.741  53.286  1.00  0.00     0.053 C 
BRANCH  19  21
HETATM   21  O   UNL     1      26.228  43.389  53.597  1.00  0.00    -0.384 OA
HETATM   22  H   UNL     1      25.757  42.608  53.258  1.00  0.00     0.211 HD
ENDBRANCH  19  21
BRANCH  19  23
HETATM   23  C   UNL     1      28.460  43.996  54.263  1.00  0.00    -0.023 A 
HETATM   24  C   UNL     1      29.687  43.512  54.752  1.00  0.00     0.013 A 
HETATM   25  C   UNL     1      30.417  44.233  55.702  1.00  0.00     0.043 A 
HETATM   26  C   UNL     1      29.926  45.441  56.179  1.00  0.00     0.116 A 
HETATM   27  F   UNL     1      30.628  46.126  57.090  1.00  0.00    -0.206 F 
HETATM   28  C   UNL     1      28.716  45.943  55.725  1.00  0.00     0.043 A 
HETATM   29  C   UNL     1      27.987  45.225  54.775  1.00  0.00     0.013 A 
ENDBRANCH  19  23
ENDBRANCH  18  19
ENDBRANCH   1  18
TORSDOF 6
ENDMDL
MODEL 2
REMARK VINA RESULT:      -9.4      1.954      2.840
REMARK  6 active torsions:
REMARK  status: ('A' for Active; 'I' for Inactive)
REMARK    1  A    between atoms: C_2  and  O_3 
REMARK    2  A    between atoms: C_2  and  C_4 
REMARK    3  A    between atoms: C_2  and  C_11 
REMARK    4  A    between atoms: C_11  and  N_12 
REMARK       I    between atoms: N_12  and  C_13 
REMARK    5  A    between atoms: C_13  and  C_14 
REMARK    6  A    between atoms: C_18  and  C_19 
ROOT
HETATM    1  N   UNL     1      26.595  43.356  53.011  1.00  0.00    -0.352 N 
HETATM    2  C   UNL     1      25.458  44.068  53.315  1.00  0.00     0.272 C 
HETATM    3  O   UNL     1      24.940  44.078  54.428  1.00  0.00    -0.266 OA
HETATM    4  H   UNL     1      26.990  43.529  52.090  1.00  0.00     0.162 HD
ENDROOT
BRANCH   2   5
HETATM    5  C   UNL     1      24.921  44.831  52.178  1.00  0.00     0.146 A 
HETATM    6  N   UNL     1      23.953  44.345  51.376  1.00  0.00    -0.169 NA
HETATM    7  N   UNL     1      23.757  45.324  50.476  1.00  0.00    -0.277 N 
HETATM    8  H   UNL     1      23.078  45.166  49.740  1.00  0.00     0.189 HD
HETATM    9  C   UNL     1      24.536  46.437  50.665  1.00  0.00     0.063 A 
HETATM   10  C   UNL     1      25.316  46.128  51.763  1.00  0.00     0.071 A 
BRANCH   9  11
HETATM   11  C   UNL     1      24.491  47.624  49.813  1.00  0.00    -0.008 A 
HETATM   12  C   UNL     1      23.282  48.078  49.259  1.00  0.00     0.017 A 
HETATM   13  C   UNL     1      23.255  49.216  48.449  1.00  0.00     0.043 A 
HETATM   14  C   UNL     1      24.432  49.905  48.190  1.00  0.00     0.116 A 
HETATM   15  F   UNL     1      24.403  50.996  47.414  1.00  0.00    -0.206 F 
HETATM   16  C   UNL     1      25.638  49.479  48.730  1.00  0.00     0.043 A 
HETATM   17  C   UNL     1      25.667  48.343  49.541  1.00  0.00     0.017 A 
ENDBRANCH   9  11
ENDBRANCH   2   5
BRANCH   1  18
HETATM   18  C   UNL     1      27.370  42.628  53.999  1.00  0.00     0.165 C 
BRANCH  18  19
HETATM   19  C   UNL     1      28.897  42.923  53.933  1.00  0.00     0.097 C 
HETATM   20  C   UNL     1      29.292  43.441  52.543  1.00  0.00     0.053 C 
BRANCH  19  21
HETATM   21  O   UNL     1      29.570  41.662  54.130  1.00  0.00    -0.384 OA
HETATM   22  H   UNL     1      28.910  40.961  53.992  1.00  0.00     0.211 HD
ENDBRANCH  19  21
BRANCH  19  23
HETATM   23  C   UNL     1      29.396  43.895  55.010  1.00  0.00    -0.023 A 
HETATM   24  C   UNL     1      28.769  45.124  55.282  1.00  0.00     0.013 A 
HETATM   25  C   UNL     1      29.267  45.982  56.269  1.00  0.00     0.043 A 
HETATM   26  C   UNL     1      30.399  45.625  56.987  1.00  0.00     0.116 A 
HETATM   27  F   UNL     1      30.873  46.451  57.928  1.00  0.00    -0.206 F 
HETATM   28  C   UNL     1      31.048  44.425  56.738  1.00  0.00     0.043 A 
HETATM   29  C   UNL     1      30.551  43.567  55.755  1.00  0.00     0.013 A 
ENDBRANCH  19  23
ENDBRANCH  18  19
ENDBRANCH   1  18
TORSDOF 6
ENDMDL
MODEL 3
REMARK VINA RESULT:      -9.3      1.719      9.488
REMARK  6 active torsions:
REMARK  status: ('A' for Active; 'I' for Inactive)
REMARK    1  A    between atoms: C_2  and  O_3 
REMARK    2  A    between atoms: C_2  and  C_4 
REMARK    3  A    between atoms: C_2  and  C_11 
REMARK    4  A    between atoms: C_11  and  N_12 
REMARK       I    between atoms: N_12  and  C_13 
REMARK    5  A    between atoms: C_13  and  C_14 
REMARK    6  A    between atoms: C_18  and  C_19 
ROOT
HETATM    1  N   UNL     1      26.299  45.331  50.867  1.00  0.00    -0.352 N 
HETATM    2  C   UNL     1      27.064  44.212  50.631  1.00  0.00     0.272 C 
HETATM    3  O   UNL     1      27.114  43.641  49.545  1.00  0.00    -0.266 OA
HETATM    4  H   UNL     1      26.439  45.778  51.770  1.00  0.00     0.162 HD
ENDROOT
BRANCH   2   5
HETATM    5  C   UNL     1      27.830  43.766  51.805  1.00  0.00     0.146 A 
HETATM    6  N   UNL     1      28.158  42.474  52.003  1.00  0.00    -0.169 NA
HETATM    7  N   UNL     1      28.833  42.488  53.166  1.00  0.00    -0.277 N 
HETATM    8  H   UNL     1      29.160  41.603  53.537  1.00  0.00     0.189 HD
HETATM    9  C   UNL     1      28.981  43.731  53.725  1.00  0.00     0.063 A 
HETATM   10  C   UNL     1      28.319  44.579  52.860  1.00  0.00     0.071 A 
BRANCH   9  11
HETATM   11  C   UNL     1      29.681  43.986  54.984  1.00  0.00    -0.008 A 
HETATM   12  C   UNL     1      30.654  43.097  55.470  1.00  0.00     0.017 A 
HETATM   13  C   UNL     1      31.317  43.356  56.672  1.00  0.00     0.043 A 
HETATM   14  C   UNL     1      31.012  44.504  57.392  1.00  0.00     0.116 A 
HETATM   15  F   UNL     1      31.650  44.750  58.543  1.00  0.00    -0.206 F 
HETATM   16  C   UNL     1      30.059  45.400  56.930  1.00  0.00     0.043 A 
HETATM   17  C   UNL     1      29.397  45.143  55.727  1.00  0.00     0.017 A 
ENDBRANCH   9  11
ENDBRANCH   2   5
BRANCH   1  18
HETATM   18  C   UNL     1      25.555  46.023  49.831  1.00  0.00     0.165 C 
BRANCH  18  19
HETATM   19  C   UNL     1      25.631  47.574  49.941  1.00  0.00     0.097 C 
HETATM   20  C   UNL     1      26.976  48.094  49.414  1.00  0.00     0.053 C 
BRANCH  19  21
HETATM   21  O   UNL     1      25.567  47.892  51.347  1.00  0.00    -0.384 OA
HETATM   22  H   UNL     1      24.938  47.270  51.752  1.00  0.00     0.211 HD
ENDBRANCH  19  21
BRANCH  19  23
HETATM   23  C   UNL     1      24.481  48.310  49.240  1.00  0.00    -0.023 A 
HETATM   24  C   UNL     1      23.183  47.778  49.133  1.00  0.00     0.013 A 
HETATM   25  C   UNL     1      22.169  48.483  48.476  1.00  0.00     0.043 A 
HETATM   26  C   UNL     1      22.442  49.722  47.914  1.00  0.00     0.116 A 
HETATM   27  F   UNL     1      21.469  50.391  47.285  1.00  0.00    -0.206 F 
HETATM   28  C   UNL     1      23.713  50.272  47.993  1.00  0.00     0.043 A 
HETATM   29  C   UNL     1      24.725  49.570  48.650  1.00  0.00     0.013 A 
ENDBRANCH  19  23
ENDBRANCH  18  19
ENDBRANCH   1  18
TORSDOF 6
ENDMDL
MODEL 4
REMARK VINA RESULT:      -9.3      2.421      9.899
REMARK  6 active torsions:
REMARK  status: ('A' for Active; 'I' for Inactive)
REMARK    1  A    between atoms: C_2  and  O_3 
REMARK    2  A    between atoms: C_2  and  C_4 
REMARK    3  A    between atoms: C_2  and  C_11 
REMARK    4  A    between atoms: C_11  and  N_12 
REMARK       I    between atoms: N_12  and  C_13 
REMARK    5  A    between atoms: C_13  and  C_14 
REMARK    6  A    between atoms: C_18  and  C_19 
ROOT
HETATM    1  N   UNL     1      22.915  47.920  49.654  1.00  0.00    -0.352 N 
HETATM    2  C   UNL     1      24.289  47.855  49.646  1.00  0.00     0.272 C 
HETATM    3  O   UNL     1      24.992  48.446  48.831  1.00  0.00    -0.266 OA
HETATM    4  H   UNL     1      22.459  47.486  50.453  1.00  0.00     0.162 HD
ENDROOT
BRANCH   2   5
HETATM    5  C   UNL     1      24.844  47.016  50.719  1.00  0.00     0.146 A 
HETATM    6  N   UNL     1      24.406  45.762  50.953  1.00  0.00    -0.169 NA
HETATM    7  N   UNL     1      25.146  45.352  51.998  1.00  0.00    -0.277 N 
HETATM    8  H   UNL     1      24.966  44.427  52.374  1.00  0.00     0.189 HD
HETATM    9  C   UNL     1      26.062  46.269  52.444  1.00  0.00     0.063 A 
HETATM   10  C   UNL     1      25.870  47.370  51.632  1.00  0.00     0.071 A 
BRANCH   9  11
HETATM   11  C   UNL     1      26.974  46.039  53.563  1.00  0.00    -0.008 A 
HETATM   12  C   UNL     1      27.251  47.050  54.498  1.00  0.00     0.017 A 
HETATM   13  C   UNL     1      28.122  46.813  55.565  1.00  0.00     0.043 A 
HETATM   14  C   UNL     1      28.719  45.566  55.702  1.00  0.00     0.116 A 
HETATM   15  F   UNL     1      29.553  45.342  56.724  1.00  0.00    -0.206 F 
HETATM   16  C   UNL     1      28.457  44.550  54.793  1.00  0.00     0.043 A 
HETATM   17  C   UNL     1      27.585  44.785  53.728  1.00  0.00     0.017 A 
ENDBRANCH   9  11
ENDBRANCH   2   5
BRANCH   1  18
HETATM   18  C   UNL     1      22.151  48.781  48.770  1.00  0.00     0.165 C 
BRANCH  18  19
HETATM   19  C   UNL     1      22.027  50.245  49.283  1.00  0.00     0.097 C 
HETATM   20  C   UNL     1      22.934  51.185  48.477  1.00  0.00     0.053 C 
BRANCH  19  21
HETATM   21  O   UNL     1      22.503  50.249  50.645  1.00  0.00    -0.384 OA
HETATM   22  H   UNL     1      22.852  49.359  50.828  1.00  0.00     0.211 HD
ENDBRANCH  19  21
BRANCH  19  23
HETATM   23  C   UNL     1      20.591  50.789  49.287  1.00  0.00    -0.023 A 
HETATM   24  C   UNL     1      20.188  51.892  48.513  1.00  0.00     0.013 A 
HETATM   25  C   UNL     1      18.869  52.358  48.557  1.00  0.00     0.043 A 
HETATM   26  C   UNL     1      17.943  51.732  49.379  1.00  0.00     0.116 A 
HETATM   27  F   UNL     1      16.684  52.183  49.419  1.00  0.00    -0.206 F 
HETATM   28  C   UNL     1      18.309  50.647  50.163  1.00  0.00     0.043 A 
HETATM   29  C   UNL     1      19.624  50.181  50.118  1.00  0.00     0.013 A 
ENDBRANCH  19  23
ENDBRANCH  18  19
ENDBRANCH   1  18
TORSDOF 6
ENDMDL
MODEL 5
REMARK VINA RESULT:      -9.1      2.495     10.264
REMARK  6 active torsions:
REMARK  status: ('A' for Active; 'I' for Inactive)
REMARK    1  A    between atoms: C_2  and  O_3 
REMARK    2  A    between atoms: C_2  and  C_4 
REMARK    3  A    between atoms: C_2  and  C_11 
REMARK    4  A    between atoms: C_11  and  N_12 
REMARK       I    between atoms: N_12  and  C_13 
REMARK    5  A    between atoms: C_13  and  C_14 
REMARK    6  A    between atoms: C_18  and  C_19 
ROOT
HETATM    1  N   UNL     1      23.452  48.034  49.993  1.00  0.00    -0.352 N 
HETATM    2  C   UNL     1      24.080  46.810  49.970  1.00  0.00     0.272 C 
HETATM    3  O   UNL     1      23.885  45.964  49.102  1.00  0.00    -0.266 OA
HETATM    4  H   UNL     1      23.791  48.689  50.694  1.00  0.00     0.162 HD
ENDROOT
BRANCH   2   5
HETATM    5  C   UNL     1      25.023  46.612  51.082  1.00  0.00     0.146 A 
HETATM    6  N   UNL     1      25.183  47.525  52.061  1.00  0.00    -0.169 NA
HETATM    7  N   UNL     1      26.119  46.980  52.859  1.00  0.00    -0.277 N 
HETATM    8  H   UNL     1      26.427  47.514  53.664  1.00  0.00     0.189 HD
HETATM    9  C   UNL     1      26.561  45.745  52.459  1.00  0.00     0.063 A 
HETATM   10  C   UNL     1      25.868  45.494  51.291  1.00  0.00     0.071 A 
BRANCH   9  11
HETATM   11  C   UNL     1      27.570  44.965  53.174  1.00  0.00    -0.008 A 
HETATM   12  C   UNL     1      28.143  43.816  52.603  1.00  0.00     0.017 A 
HETATM   13  C   UNL     1      29.109  43.083  53.298  1.00  0.00     0.043 A 
HETATM   14  C   UNL     1      29.508  43.497  54.562  1.00  0.00     0.116 A 
HETATM   15  F   UNL     1      30.435  42.793  55.225  1.00  0.00    -0.206 F 
HETATM   16  C   UNL     1      28.961  44.632  55.145  1.00  0.00     0.043 A 
HETATM   17  C   UNL     1      27.996  45.365  54.451  1.00  0.00     0.017 A 
ENDBRANCH   9  11
ENDBRANCH   2   5
BRANCH   1  18
HETATM   18  C   UNL     1      22.575  48.502  48.936  1.00  0.00     0.165 C 
BRANCH  18  19
HETATM   19  C   UNL     1      22.443  50.051  48.878  1.00  0.00     0.097 C 
HETATM   20  C   UNL     1      23.578  50.665  48.046  1.00  0.00     0.053 C 
BRANCH  19  21
HETATM   21  O   UNL     1      22.592  50.531  50.230  1.00  0.00    -0.384 OA
HETATM   22  H   UNL     1      23.110  51.354  50.186  1.00  0.00     0.211 HD
ENDBRANCH  19  21
BRANCH  19  23
HETATM   23  C   UNL     1      21.089  50.547  48.351  1.00  0.00    -0.023 A 
HETATM   24  C   UNL     1      20.440  51.687  48.859  1.00  0.00     0.013 A 
HETATM   25  C   UNL     1      19.202  52.095  48.352  1.00  0.00     0.043 A 
HETATM   26  C   UNL     1      18.596  51.364  47.339  1.00  0.00     0.116 A 
HETATM   27  F   UNL     1      17.409  51.758  46.860  1.00  0.00    -0.206 F 
HETATM   28  C   UNL     1      19.203  50.230  46.822  1.00  0.00     0.043 A 
HETATM   29  C   UNL     1      20.440  49.824  47.325  1.00  0.00     0.013 A 
ENDBRANCH  19  23
ENDBRANCH  18  19
ENDBRANCH   1  18
TORSDOF 6
ENDMDL
MODEL 6
REMARK VINA RESULT:      -8.7      3.350     10.372
REMARK  6 active torsions:
REMARK  status: ('A' for Active; 'I' for Inactive)
REMARK    1  A    between atoms: C_2  and  O_3 
REMARK    2  A    between atoms: C_2  and  C_4 
REMARK    3  A    between atoms: C_2  and  C_11 
REMARK    4  A    between atoms: C_11  and  N_12 
REMARK       I    between atoms: N_12  and  C_13 
REMARK    5  A    between atoms: C_13  and  C_14 
REMARK    6  A    between atoms: C_18  and  C_19 
ROOT
HETATM    1  N   UNL     1      21.956  48.429  49.532  1.00  0.00    -0.352 N 
HETATM    2  C   UNL     1      23.112  48.367  48.788  1.00  0.00     0.272 C 
HETATM    3  O   UNL     1      23.166  48.649  47.594  1.00  0.00    -0.266 OA
HETATM    4  H   UNL     1      22.070  48.289  50.534  1.00  0.00     0.162 HD
ENDROOT
BRANCH   2   5
HETATM    5  C   UNL     1      24.288  47.941  49.563  1.00  0.00     0.146 A 
HETATM    6  N   UNL     1      25.466  48.592  49.502  1.00  0.00    -0.169 NA
HETATM    7  N   UNL     1      26.263  47.896  50.332  1.00  0.00    -0.277 N 
HETATM    8  H   UNL     1      27.228  48.192  50.425  1.00  0.00     0.189 HD
HETATM    9  C   UNL     1      25.653  46.834  50.950  1.00  0.00     0.063 A 
HETATM   10  C   UNL     1      24.367  46.836  50.448  1.00  0.00     0.071 A 
BRANCH   9  11
HETATM   11  C   UNL     1      26.323  45.941  51.894  1.00  0.00    -0.008 A 
HETATM   12  C   UNL     1      26.929  44.748  51.466  1.00  0.00     0.017 A 
HETATM   13  C   UNL     1      27.568  43.907  52.380  1.00  0.00     0.043 A 
HETATM   14  C   UNL     1      27.607  44.255  53.724  1.00  0.00     0.116 A 
HETATM   15  F   UNL     1      28.221  43.448  54.598  1.00  0.00    -0.206 F 
HETATM   16  C   UNL     1      27.021  45.431  54.171  1.00  0.00     0.043 A 
HETATM   17  C   UNL     1      26.382  46.273  53.258  1.00  0.00     0.017 A 
ENDBRANCH   9  11
ENDBRANCH   2   5
BRANCH   1  18
HETATM   18  C   UNL     1      20.700  48.939  49.016  1.00  0.00     0.165 C 
BRANCH  18  19
HETATM   19  C   UNL     1      20.436  50.428  49.382  1.00  0.00     0.097 C 
HETATM   20  C   UNL     1      21.268  51.365  48.494  1.00  0.00     0.053 C 
BRANCH  19  21
HETATM   21  O   UNL     1      20.889  50.608  50.740  1.00  0.00    -0.384 OA
HETATM   22  H   UNL     1      20.532  51.458  51.050  1.00  0.00     0.211 HD
ENDBRANCH  19  21
BRANCH  19  23
HETATM   23  C   UNL     1      18.958  50.837  49.323  1.00  0.00    -0.023 A 
HETATM   24  C   UNL     1      17.965  50.036  48.732  1.00  0.00     0.013 A 
HETATM   25  C   UNL     1      16.631  50.455  48.694  1.00  0.00     0.043 A 
HETATM   26  C   UNL     1      16.277  51.681  49.239  1.00  0.00     0.116 A 
HETATM   27  F   UNL     1      14.999  52.079  49.198  1.00  0.00    -0.206 F 
HETATM   28  C   UNL     1      17.232  52.501  49.821  1.00  0.00     0.043 A 
HETATM   29  C   UNL     1      18.563  52.082  49.862  1.00  0.00     0.013 A 
ENDBRANCH  19  23
ENDBRANCH  18  19
ENDBRANCH   1  18
TORSDOF 6
ENDMDL
MODEL 7
REMARK VINA RESULT:      -8.6     12.383     14.756
REMARK  6 active torsions:
REMARK  status: ('A' for Active; 'I' for Inactive)
REMARK    1  A    between atoms: C_2  and  O_3 
REMARK    2  A    between atoms: C_2  and  C_4 
REMARK    3  A    between atoms: C_2  and  C_11 
REMARK    4  A    between atoms: C_11  and  N_12 
REMARK       I    between atoms: N_12  and  C_13 
REMARK    5  A    between atoms: C_13  and  C_14 
REMARK    6  A    between atoms: C_18  and  C_19 
ROOT
HETATM    1  N   UNL     1      28.962  48.462  39.500  1.00  0.00    -0.352 N 
HETATM    2  C   UNL     1      30.124  47.769  39.250  1.00  0.00     0.272 C 
HETATM    3  O   UNL     1      30.240  46.940  38.352  1.00  0.00    -0.266 OA
HETATM    4  H   UNL     1      29.033  49.205  40.191  1.00  0.00     0.162 HD
ENDROOT
BRANCH   2   5
HETATM    5  C   UNL     1      31.226  48.124  40.157  1.00  0.00     0.146 A 
HETATM    6  N   UNL     1      32.101  47.209  40.621  1.00  0.00    -0.169 NA
HETATM    7  N   UNL     1      32.927  47.922  41.407  1.00  0.00    -0.277 N 
HETATM    8  H   UNL     1      33.664  47.427  41.896  1.00  0.00     0.189 HD
HETATM    9  C   UNL     1      32.646  49.263  41.461  1.00  0.00     0.063 A 
HETATM   10  C   UNL     1      31.529  49.413  40.664  1.00  0.00     0.071 A 
BRANCH   9  11
HETATM   11  C   UNL     1      33.411  50.229  42.248  1.00  0.00    -0.008 A 
HETATM   12  C   UNL     1      34.767  50.480  41.977  1.00  0.00     0.017 A 
HETATM   13  C   UNL     1      35.484  51.409  42.736  1.00  0.00     0.043 A 
HETATM   14  C   UNL     1      34.850  52.092  43.765  1.00  0.00     0.116 A 
HETATM   15  F   UNL     1      35.539  52.982  44.490  1.00  0.00    -0.206 F 
HETATM   16  C   UNL     1      33.510  51.866  44.048  1.00  0.00     0.043 A 
HETATM   17  C   UNL     1      32.792  50.939  43.290  1.00  0.00     0.017 A 
ENDBRANCH   9  11
ENDBRANCH   2   5
BRANCH   1  18
HETATM   18  C   UNL     1      27.782  48.370  38.661  1.00  0.00     0.165 C 
BRANCH  18  19
HETATM   19  C   UNL     1      26.950  49.685  38.613  1.00  0.00     0.097 C 
HETATM   20  C   UNL     1      25.628  49.523  39.377  1.00  0.00     0.053 C 
BRANCH  19  21
HETATM   21  O   UNL     1      26.621  49.917  37.227  1.00  0.00    -0.384 OA
HETATM   22  H   UNL     1      26.325  49.066  36.858  1.00  0.00     0.211 HD
ENDBRANCH  19  21
BRANCH  19  23
HETATM   23  C   UNL     1      27.698  50.921  39.130  1.00  0.00    -0.023 A 
HETATM   24  C   UNL     1      27.646  51.343  40.472  1.00  0.00     0.013 A 
HETATM   25  C   UNL     1      28.339  52.482  40.895  1.00  0.00     0.043 A 
HETATM   26  C   UNL     1      29.083  53.216  39.982  1.00  0.00     0.116 A 
HETATM   27  F   UNL     1      29.742  54.307  40.392  1.00  0.00    -0.206 F 
HETATM   28  C   UNL     1      29.149  52.834  38.650  1.00  0.00     0.043 A 
HETATM   29  C   UNL     1      28.460  51.696  38.228  1.00  0.00     0.013 A 
ENDBRANCH  19  23
ENDBRANCH  18  19
ENDBRANCH   1  18
TORSDOF 6
ENDMDL
MODEL 8
REMARK VINA RESULT:      -8.5      1.782      2.475
REMARK  6 active torsions:
REMARK  status: ('A' for Active; 'I' for Inactive)
REMARK    1  A    between atoms: C_2  and  O_3 
REMARK    2  A    between atoms: C_2  and  C_4 
REMARK    3  A    between atoms: C_2  and  C_11 
REMARK    4  A    between atoms: C_11  and  N_12 
REMARK       I    between atoms: N_12  and  C_13 
REMARK    5  A    between atoms: C_13  and  C_14 
REMARK    6  A    between atoms: C_18  and  C_19 
ROOT
HETATM    1  N   UNL     1      25.270  46.147  51.694  1.00  0.00    -0.352 N 
HETATM    2  C   UNL     1      25.308  47.185  50.792  1.00  0.00     0.272 C 
HETATM    3  O   UNL     1      26.257  47.955  50.682  1.00  0.00    -0.266 OA
HETATM    4  H   UNL     1      24.482  45.511  51.600  1.00  0.00     0.162 HD
ENDROOT
BRANCH   2   5
HETATM    5  C   UNL     1      24.101  47.281  49.956  1.00  0.00     0.146 A 
HETATM    6  N   UNL     1      23.502  46.195  49.428  1.00  0.00    -0.169 NA
HETATM    7  N   UNL     1      22.463  46.702  48.741  1.00  0.00    -0.277 N 
HETATM    8  H   UNL     1      21.873  46.058  48.226  1.00  0.00     0.189 HD
HETATM    9  C   UNL     1      22.341  48.066  48.815  1.00  0.00     0.063 A 
HETATM   10  C   UNL     1      23.411  48.465  49.591  1.00  0.00     0.071 A 
BRANCH   9  11
HETATM   11  C   UNL     1      21.286  48.831  48.152  1.00  0.00    -0.008 A 
HETATM   12  C   UNL     1      20.320  48.200  47.351  1.00  0.00     0.017 A 
HETATM   13  C   UNL     1      19.316  48.945  46.727  1.00  0.00     0.043 A 
HETATM   14  C   UNL     1      19.272  50.322  46.902  1.00  0.00     0.116 A 
HETATM   15  F   UNL     1      18.309  51.033  46.303  1.00  0.00    -0.206 F 
HETATM   16  C   UNL     1      20.212  50.968  47.693  1.00  0.00     0.043 A 
HETATM   17  C   UNL     1      21.216  50.224  48.318  1.00  0.00     0.017 A 
ENDBRANCH   9  11
ENDBRANCH   2   5
BRANCH   1  18
HETATM   18  C   UNL     1      26.392  45.781  52.537  1.00  0.00     0.165 C 
BRANCH  18  19
HETATM   19  C   UNL     1      26.975  44.373  52.220  1.00  0.00     0.097 C 
HETATM   20  C   UNL     1      27.329  44.251  50.732  1.00  0.00     0.053 C 
BRANCH  19  21
HETATM   21  O   UNL     1      25.927  43.420  52.493  1.00  0.00    -0.384 OA
HETATM   22  H   UNL     1      25.080  43.877  52.347  1.00  0.00     0.211 HD
ENDBRANCH  19  21
BRANCH  19  23
HETATM   23  C   UNL     1      28.191  43.990  53.075  1.00  0.00    -0.023 A 
HETATM   24  C   UNL     1      29.169  43.073  52.648  1.00  0.00     0.013 A 
HETATM   25  C   UNL     1      30.256  42.748  53.467  1.00  0.00     0.043 A 
HETATM   26  C   UNL     1      30.372  43.329  54.722  1.00  0.00     0.116 A 
HETATM   27  F   UNL     1      31.413  43.012  55.503  1.00  0.00    -0.206 F 
HETATM   28  C   UNL     1      29.422  44.229  55.178  1.00  0.00     0.043 A 
HETATM   29  C   UNL     1      28.338  44.556  54.361  1.00  0.00     0.013 A 
ENDBRANCH  19  23
ENDBRANCH  18  19
ENDBRANCH   1  18
TORSDOF 6
ENDMDL
MODEL 9
REMARK VINA RESULT:      -8.5      2.386      3.437
REMARK  6 active torsions:
REMARK  status: ('A' for Active; 'I' for Inactive)
REMARK    1  A    between atoms: C_2  and  O_3 
REMARK    2  A    between atoms: C_2  and  C_4 
REMARK    3  A    between atoms: C_2  and  C_11 
REMARK    4  A    between atoms: C_11  and  N_12 
REMARK       I    between atoms: N_12  and  C_13 
REMARK    5  A    between atoms: C_13  and  C_14 
REMARK    6  A    between atoms: C_18  and  C_19 
ROOT
HETATM    1  N   UNL     1      24.997  46.572  49.609  1.00  0.00    -0.352 N 
HETATM    2  C   UNL     1      25.382  47.892  49.677  1.00  0.00     0.272 C 
HETATM    3  O   UNL     1      26.419  48.269  50.213  1.00  0.00    -0.266 OA
HETATM    4  H   UNL     1      24.180  46.381  49.033  1.00  0.00     0.162 HD
ENDROOT
BRANCH   2   5
HETATM    5  C   UNL     1      24.433  48.813  49.033  1.00  0.00     0.146 A 
HETATM    6  N   UNL     1      24.832  49.779  48.182  1.00  0.00    -0.169 NA
HETATM    7  N   UNL     1      23.687  50.392  47.830  1.00  0.00    -0.277 N 
HETATM    8  H   UNL     1      23.746  51.186  47.203  1.00  0.00     0.189 HD
HETATM    9  C   UNL     1      22.557  49.857  48.394  1.00  0.00     0.063 A 
HETATM   10  C   UNL     1      23.024  48.835  49.196  1.00  0.00     0.071 A 
BRANCH   9  11
HETATM   11  C   UNL     1      21.205  50.357  48.152  1.00  0.00    -0.008 A 
HETATM   12  C   UNL     1      20.304  49.657  47.333  1.00  0.00     0.017 A 
HETATM   13  C   UNL     1      19.014  50.147  47.114  1.00  0.00     0.043 A 
HETATM   14  C   UNL     1      18.619  51.336  47.714  1.00  0.00     0.116 A 
HETATM   15  F   UNL     1      17.382  51.803  47.503  1.00  0.00    -0.206 F 
HETATM   16  C   UNL     1      19.489  52.043  48.531  1.00  0.00     0.043 A 
HETATM   17  C   UNL     1      20.779  51.554  48.751  1.00  0.00     0.017 A 
ENDBRANCH   9  11
ENDBRANCH   2   5
BRANCH   1  18
HETATM   18  C   UNL     1      25.828  45.474  50.065  1.00  0.00     0.165 C 
BRANCH  18  19
HETATM   19  C   UNL     1      25.374  44.874  51.427  1.00  0.00     0.097 C 
HETATM   20  C   UNL     1      25.596  43.355  51.456  1.00  0.00     0.053 C 
BRANCH  19  21
HETATM   21  O   UNL     1      23.953  45.103  51.527  1.00  0.00    -0.384 OA
HETATM   22  H   UNL     1      23.563  44.310  51.935  1.00  0.00     0.211 HD
ENDBRANCH  19  21
BRANCH  19  23
HETATM   23  C   UNL     1      26.040  45.518  52.650  1.00  0.00    -0.023 A 
HETATM   24  C   UNL     1      25.628  46.752  53.187  1.00  0.00     0.013 A 
HETATM   25  C   UNL     1      26.273  47.304  54.298  1.00  0.00     0.043 A 
HETATM   26  C   UNL     1      27.340  46.634  54.880  1.00  0.00     0.116 A 
HETATM   27  F   UNL     1      27.955  47.168  55.943  1.00  0.00    -0.206 F 
HETATM   28  C   UNL     1      27.778  45.421  54.372  1.00  0.00     0.043 A 
HETATM   29  C   UNL     1      27.134  44.868  53.264  1.00  0.00     0.013 A 
ENDBRANCH  19  23
ENDBRANCH  18  19
ENDBRANCH   1  18
TORSDOF 6
ENDMDL
MODEL 10
REMARK VINA RESULT:      -8.5      5.874      9.648
REMARK  6 active torsions:
REMARK  status: ('A' for Active; 'I' for Inactive)
REMARK    1  A    between atoms: C_2  and  O_3 
REMARK    2  A    between atoms: C_2  and  C_4 
REMARK    3  A    between atoms: C_2  and  C_11 
REMARK    4  A    between atoms: C_11  and  N_12 
REMARK       I    between atoms: N_12  and  C_13 
REMARK    5  A    between atoms: C_13  and  C_14 
REMARK    6  A    between atoms: C_18  and  C_19 
ROOT
HETATM    1  N   UNL     1      27.280  41.261  50.733  1.00  0.00    -0.352 N 
HETATM    2  C   UNL     1      27.338  42.625  50.558  1.00  0.00     0.272 C 
HETATM    3  O   UNL     1      27.091  43.183  49.493  1.00  0.00    -0.266 OA
HETATM    4  H   UNL     1      27.387  40.935  51.691  1.00  0.00     0.162 HD
ENDROOT
BRANCH   2   5
HETATM    5  C   UNL     1      27.714  43.357  51.777  1.00  0.00     0.146 A 
HETATM    6  N   UNL     1      27.111  44.506  52.142  1.00  0.00    -0.169 NA
HETATM    7  N   UNL     1      27.737  44.851  53.281  1.00  0.00    -0.277 N 
HETATM    8  H   UNL     1      27.462  45.717  53.731  1.00  0.00     0.189 HD
HETATM    9  C   UNL     1      28.705  43.969  53.690  1.00  0.00     0.063 A 
HETATM   10  C   UNL     1      28.717  42.995  52.712  1.00  0.00     0.071 A 
BRANCH   9  11
HETATM   11  C   UNL     1      29.509  44.139  54.898  1.00  0.00    -0.008 A 
HETATM   12  C   UNL     1      30.464  43.181  55.279  1.00  0.00     0.017 A 
HETATM   13  C   UNL     1      31.227  43.358  56.436  1.00  0.00     0.043 A 
HETATM   14  C   UNL     1      31.043  44.494  57.214  1.00  0.00     0.116 A 
HETATM   15  F   UNL     1      31.777  44.662  58.321  1.00  0.00    -0.206 F 
HETATM   16  C   UNL     1      30.110  45.457  56.856  1.00  0.00     0.043 A 
HETATM   17  C   UNL     1      29.347  45.281  55.699  1.00  0.00     0.017 A 
ENDBRANCH   9  11
ENDBRANCH   2   5
BRANCH   1  18
HETATM   18  C   UNL     1      26.815  40.343  49.710  1.00  0.00     0.165 C 
BRANCH  18  19
HETATM   19  C   UNL     1      27.951  39.491  49.075  1.00  0.00     0.097 C 
HETATM   20  C   UNL     1      27.802  38.011  49.457  1.00  0.00     0.053 C 
BRANCH  19  21
HETATM   21  O   UNL     1      29.190  39.960  49.648  1.00  0.00    -0.384 OA
HETATM   22  H   UNL     1      29.191  39.693  50.584  1.00  0.00     0.211 HD
ENDBRANCH  19  21
BRANCH  19  23
HETATM   23  C   UNL     1      28.059  39.624  47.550  1.00  0.00    -0.023 A 
HETATM   24  C   UNL     1      28.087  40.866  46.890  1.00  0.00     0.013 A 
HETATM   25  C   UNL     1      28.178  40.937  45.496  1.00  0.00     0.043 A 
HETATM   26  C   UNL     1      28.233  39.770  44.747  1.00  0.00     0.116 A 
HETATM   27  F   UNL     1      28.317  39.843  43.413  1.00  0.00    -0.206 F 
HETATM   28  C   UNL     1      28.199  38.529  45.365  1.00  0.00     0.043 A 
HETATM   29  C   UNL     1      28.111  38.456  46.756  1.00  0.00     0.013 A 
ENDBRANCH  19  23
ENDBRANCH  18  19
ENDBRANCH   1  18
TORSDOF 6
ENDMDL
