MODEL 1
REMARK VINA RESULT:      -9.7      0.000      0.000
REMARK  3 active torsions:
REMARK  status: ('A' for Active; 'I' for Inactive)
REMARK    1  A    between atoms: O_2  and  C_3 
REMARK    2  A    between atoms: C_5  and  N_6 
REMARK       I    between atoms: N_6  and  C_7 
REMARK       I    between atoms: C_7  and  N_8 
REMARK    3  A    between atoms: C_11  and  C_12 
ROOT
HETATM    1  N   UNL     1      28.310  39.538  50.099  1.00  0.00    -0.306 N 
HETATM    2  C   UNL     1      27.949  40.866  50.042  1.00  0.00     0.323 C 
HETATM    3  N   UNL     1      28.218  41.604  51.203  1.00  0.00    -0.330 N 
HETATM    4  C   UNL     1      28.730  41.004  52.433  1.00  0.00     0.155 C 
HETATM    5  C   UNL     1      28.999  41.985  53.526  1.00  0.00     0.001 C 
HETATM    6  C   UNL     1      28.808  43.312  53.444  1.00  0.00    -0.046 C 
HETATM    7  C   UNL     1      28.302  43.914  52.162  1.00  0.00     0.059 C 
HETATM    8  C   UNL     1      27.531  42.891  51.328  1.00  0.00     0.132 C 
HETATM    9  O   UNL     1      27.398  41.383  49.072  1.00  0.00    -0.247 OA
HETATM   10  H   UNL     1      28.676  39.179  50.967  1.00  0.00     0.171 HD
ENDROOT
BRANCH   1  11
HETATM   11  C   UNL     1      28.093  38.531  49.128  1.00  0.00     0.077 A 
HETATM   12  C   UNL     1      28.921  38.290  48.028  1.00  0.00     0.069 A 
HETATM   13  C   UNL     1      28.599  37.280  47.111  1.00  0.00     0.070 A 
HETATM   14  C   UNL     1      27.439  36.519  47.291  1.00  0.00     0.040 A 
HETATM   15  C   UNL     1      26.612  36.744  48.387  1.00  0.00     0.047 A 
HETATM   16  C   UNL     1      26.949  37.740  49.295  1.00  0.00     0.143 A 
HETATM   17  F   UNL     1      26.144  37.960  50.347  1.00  0.00    -0.204 F 
BRANCH  13  18
HETATM   18  O   UNL     1      29.326  36.944  46.001  1.00  0.00    -0.356 OA
HETATM   19  C   UNL     1      28.967  35.737  45.339  1.00  0.00     0.210 C 
ENDBRANCH  13  18
ENDBRANCH   1  11
BRANCH   6  20
HETATM   20  C   UNL     1      29.028  44.227  54.525  1.00  0.00    -0.002 A 
HETATM   21  C   UNL     1      29.962  44.113  55.608  1.00  0.00     0.003 A 
HETATM   22  C   UNL     1      29.814  45.254  56.400  1.00  0.00     0.043 A 
HETATM   23  C   UNL     1      30.915  43.148  56.008  1.00  0.00     0.014 A 
HETATM   24  C   UNL     1      30.579  45.486  57.551  1.00  0.00     0.030 A 
HETATM   25  N   UNL     1      28.824  46.020  55.829  1.00  0.00    -0.364 N 
HETATM   26  C   UNL     1      31.524  44.522  57.910  1.00  0.00     0.002 A 
HETATM   27  C   UNL     1      31.690  43.366  57.153  1.00  0.00     0.001 A 
HETATM   28  H   UNL     1      28.502  46.904  56.196  1.00  0.00     0.165 HD
HETATM   29  C   UNL     1      28.342  45.410  54.701  1.00  0.00     0.101 A 
ENDBRANCH   6  20
TORSDOF 3
ENDMDL
MODEL 2
REMARK VINA RESULT:      -9.4      6.550      9.128
REMARK  3 active torsions:
REMARK  status: ('A' for Active; 'I' for Inactive)
REMARK    1  A    between atoms: O_2  and  C_3 
REMARK    2  A    between atoms: C_5  and  N_6 
REMARK       I    between atoms: N_6  and  C_7 
REMARK       I    between atoms: C_7  and  N_8 
REMARK    3  A    between atoms: C_11  and  C_12 
ROOT
HETATM    1  N   UNL     1      23.468  47.899  49.945  1.00  0.00    -0.306 N 
HETATM    2  C   UNL     1      23.924  46.670  49.520  1.00  0.00     0.323 C 
HETATM    3  N   UNL     1      24.928  46.101  50.316  1.00  0.00    -0.330 N 
HETATM    4  C   UNL     1      25.542  46.795  51.446  1.00  0.00     0.155 C 
HETATM    5  C   UNL     1      26.548  45.979  52.190  1.00  0.00     0.001 C 
HETATM    6  C   UNL     1      26.897  44.716  51.894  1.00  0.00    -0.046 C 
HETATM    7  C   UNL     1      26.236  44.011  50.741  1.00  0.00     0.059 C 
HETATM    8  C   UNL     1      25.690  45.004  49.716  1.00  0.00     0.132 C 
HETATM    9  O   UNL     1      23.524  46.108  48.502  1.00  0.00    -0.247 OA
HETATM   10  H   UNL     1      23.916  48.324  50.741  1.00  0.00     0.171 HD
ENDROOT
BRANCH   1  11
HETATM   11  C   UNL     1      22.532  48.750  49.311  1.00  0.00     0.077 A 
HETATM   12  C   UNL     1      21.185  48.439  49.100  1.00  0.00     0.069 A 
HETATM   13  C   UNL     1      20.348  49.347  48.438  1.00  0.00     0.070 A 
HETATM   14  C   UNL     1      20.864  50.564  47.979  1.00  0.00     0.040 A 
HETATM   15  C   UNL     1      22.200  50.888  48.192  1.00  0.00     0.047 A 
HETATM   16  C   UNL     1      23.017  49.984  48.859  1.00  0.00     0.143 A 
HETATM   17  F   UNL     1      24.308  50.297  49.055  1.00  0.00    -0.204 F 
BRANCH  13  18
HETATM   18  O   UNL     1      19.017  49.164  48.174  1.00  0.00    -0.356 OA
HETATM   19  C   UNL     1      18.258  48.463  49.151  1.00  0.00     0.210 C 
ENDBRANCH  13  18
ENDBRANCH   1  11
BRANCH   6  20
HETATM   20  C   UNL     1      27.901  43.971  52.595  1.00  0.00    -0.002 A 
HETATM   21  C   UNL     1      28.602  44.335  53.793  1.00  0.00     0.003 A 
HETATM   22  C   UNL     1      29.471  43.285  54.095  1.00  0.00     0.043 A 
HETATM   23  C   UNL     1      28.596  45.459  54.650  1.00  0.00     0.014 A 
HETATM   24  C   UNL     1      30.315  43.294  55.214  1.00  0.00     0.030 A 
HETATM   25  N   UNL     1      29.315  42.332  53.115  1.00  0.00    -0.364 N 
HETATM   26  C   UNL     1      30.275  44.411  56.052  1.00  0.00     0.002 A 
HETATM   27  C   UNL     1      29.430  45.482  55.775  1.00  0.00     0.001 A 
HETATM   28  H   UNL     1      29.826  41.462  53.078  1.00  0.00     0.165 HD
HETATM   29  C   UNL     1      28.374  42.735  52.206  1.00  0.00     0.101 A 
ENDBRANCH   6  20
TORSDOF 3
ENDMDL
MODEL 3
REMARK VINA RESULT:      -9.4      5.505      7.042
REMARK  3 active torsions:
REMARK  status: ('A' for Active; 'I' for Inactive)
REMARK    1  A    between atoms: O_2  and  C_3 
REMARK    2  A    between atoms: C_5  and  N_6 
REMARK       I    between atoms: N_6  and  C_7 
REMARK       I    between atoms: C_7  and  N_8 
REMARK    3  A    between atoms: C_11  and  C_12 
ROOT
HETATM    1  N   UNL     1      22.861  45.110  49.650  1.00  0.00    -0.306 N 
HETATM    2  C   UNL     1      23.365  44.166  50.517  1.00  0.00     0.323 C 
HETATM    3  N   UNL     1      24.372  44.625  51.377  1.00  0.00    -0.330 N 
HETATM    4  C   UNL     1      24.943  45.968  51.295  1.00  0.00     0.155 C 
HETATM    5  C   UNL     1      25.961  46.264  52.347  1.00  0.00     0.001 C 
HETATM    6  C   UNL     1      26.355  45.413  53.308  1.00  0.00    -0.046 C 
HETATM    7  C   UNL     1      25.739  44.044  53.390  1.00  0.00     0.059 C 
HETATM    8  C   UNL     1      25.179  43.599  52.040  1.00  0.00     0.132 C 
HETATM    9  O   UNL     1      23.001  42.991  50.533  1.00  0.00    -0.247 OA
HETATM   10  H   UNL     1      23.281  46.026  49.647  1.00  0.00     0.171 HD
ENDROOT
BRANCH   1  11
HETATM   11  C   UNL     1      21.909  44.930  48.618  1.00  0.00     0.077 A 
HETATM   12  C   UNL     1      20.531  45.117  48.761  1.00  0.00     0.069 A 
HETATM   13  C   UNL     1      19.673  44.887  47.678  1.00  0.00     0.070 A 
HETATM   14  C   UNL     1      20.195  44.459  46.453  1.00  0.00     0.040 A 
HETATM   15  C   UNL     1      21.566  44.279  46.296  1.00  0.00     0.047 A 
HETATM   16  C   UNL     1      22.407  44.521  47.374  1.00  0.00     0.143 A 
HETATM   17  F   UNL     1      23.729  44.339  47.221  1.00  0.00    -0.204 F 
BRANCH  13  18
HETATM   18  O   UNL     1      18.312  45.036  47.689  1.00  0.00    -0.356 OA
HETATM   19  C   UNL     1      17.639  44.883  46.444  1.00  0.00     0.210 C 
ENDBRANCH  13  18
ENDBRANCH   1  11
BRANCH   6  20
HETATM   20  C   UNL     1      27.370  45.705  54.277  1.00  0.00    -0.002 A 
HETATM   21  C   UNL     1      28.536  44.933  54.601  1.00  0.00     0.003 A 
HETATM   22  C   UNL     1      29.225  45.630  55.597  1.00  0.00     0.043 A 
HETATM   23  C   UNL     1      29.074  43.704  54.159  1.00  0.00     0.014 A 
HETATM   24  C   UNL     1      30.426  45.171  56.154  1.00  0.00     0.030 A 
HETATM   25  N   UNL     1      28.502  46.766  55.875  1.00  0.00    -0.364 N 
HETATM   26  C   UNL     1      30.942  43.960  55.684  1.00  0.00     0.002 A 
HETATM   27  C   UNL     1      30.276  43.233  54.701  1.00  0.00     0.001 A 
HETATM   28  H   UNL     1      28.764  47.457  56.563  1.00  0.00     0.165 HD
HETATM   29  C   UNL     1      27.382  46.821  55.087  1.00  0.00     0.101 A 
ENDBRANCH   6  20
TORSDOF 3
ENDMDL
MODEL 4
REMARK VINA RESULT:      -9.1      2.177      2.413
REMARK  3 active torsions:
REMARK  status: ('A' for Active; 'I' for Inactive)
REMARK    1  A    between atoms: O_2  and  C_3 
REMARK    2  A    between atoms: C_5  and  N_6 
REMARK       I    between atoms: N_6  and  C_7 
REMARK       I    between atoms: C_7  and  N_8 
REMARK    3  A    between atoms: C_11  and  C_12 
ROOT
HETATM    1  N   UNL     1      27.286  41.657  49.271  1.00  0.00    -0.306 N 
HETATM    2  C   UNL     1      27.839  41.122  50.414  1.00  0.00     0.323 C 
HETATM    3  N   UNL     1      28.083  42.043  51.442  1.00  0.00    -0.330 N 
HETATM    4  C   UNL     1      27.885  43.483  51.291  1.00  0.00     0.155 C 
HETATM    5  C   UNL     1      28.150  44.270  52.532  1.00  0.00     0.001 C 
HETATM    6  C   UNL     1      28.536  43.756  53.711  1.00  0.00    -0.046 C 
HETATM    7  C   UNL     1      28.712  42.269  53.854  1.00  0.00     0.059 C 
HETATM    8  C   UNL     1      28.990  41.605  52.505  1.00  0.00     0.132 C 
HETATM    9  O   UNL     1      28.140  39.936  50.537  1.00  0.00    -0.247 OA
HETATM   10  H   UNL     1      27.155  42.655  49.226  1.00  0.00     0.171 HD
ENDROOT
BRANCH   1  11
HETATM   11  C   UNL     1      27.008  41.003  48.047  1.00  0.00     0.077 A 
HETATM   12  C   UNL     1      27.919  40.846  46.999  1.00  0.00     0.069 A 
HETATM   13  C   UNL     1      27.531  40.201  45.817  1.00  0.00     0.070 A 
HETATM   14  C   UNL     1      26.223  39.721  45.682  1.00  0.00     0.040 A 
HETATM   15  C   UNL     1      25.310  39.862  46.722  1.00  0.00     0.047 A 
HETATM   16  C   UNL     1      25.711  40.494  47.893  1.00  0.00     0.143 A 
HETATM   17  F   UNL     1      24.825  40.635  48.892  1.00  0.00    -0.204 F 
BRANCH  13  18
HETATM   18  O   UNL     1      28.326  39.984  44.724  1.00  0.00    -0.356 OA
HETATM   19  C   UNL     1      27.831  40.438  43.470  1.00  0.00     0.210 C 
ENDBRANCH  13  18
ENDBRANCH   1  11
BRANCH   6  20
HETATM   20  C   UNL     1      28.831  44.538  54.875  1.00  0.00    -0.002 A 
HETATM   21  C   UNL     1      29.876  44.339  55.838  1.00  0.00     0.003 A 
HETATM   22  C   UNL     1      29.766  45.363  56.781  1.00  0.00     0.043 A 
HETATM   23  C   UNL     1      30.902  43.383  56.013  1.00  0.00     0.014 A 
HETATM   24  C   UNL     1      30.637  45.488  57.872  1.00  0.00     0.030 A 
HETATM   25  N   UNL     1      28.692  46.140  56.415  1.00  0.00    -0.364 N 
HETATM   26  C   UNL     1      31.651  44.537  58.009  1.00  0.00     0.002 A 
HETATM   27  C   UNL     1      31.783  43.496  57.095  1.00  0.00     0.001 A 
HETATM   28  H   UNL     1      28.375  46.953  56.924  1.00  0.00     0.165 HD
HETATM   29  C   UNL     1      28.120  45.653  55.270  1.00  0.00     0.101 A 
ENDBRANCH   6  20
TORSDOF 3
ENDMDL
MODEL 5
REMARK VINA RESULT:      -9.0      9.724     12.328
REMARK  3 active torsions:
REMARK  status: ('A' for Active; 'I' for Inactive)
REMARK    1  A    between atoms: O_2  and  C_3 
REMARK    2  A    between atoms: C_5  and  N_6 
REMARK       I    between atoms: N_6  and  C_7 
REMARK       I    between atoms: C_7  and  N_8 
REMARK    3  A    between atoms: C_11  and  C_12 
ROOT
HETATM    1  N   UNL     1      24.032  46.896  49.892  1.00  0.00    -0.306 N 
HETATM    2  C   UNL     1      24.184  48.209  49.503  1.00  0.00     0.323 C 
HETATM    3  N   UNL     1      23.003  48.853  49.111  1.00  0.00    -0.330 N 
HETATM    4  C   UNL     1      21.717  48.168  49.001  1.00  0.00     0.155 C 
HETATM    5  C   UNL     1      20.580  49.060  48.624  1.00  0.00     0.001 C 
HETATM    6  C   UNL     1      20.670  50.381  48.395  1.00  0.00    -0.046 C 
HETATM    7  C   UNL     1      21.999  51.072  48.536  1.00  0.00     0.059 C 
HETATM    8  C   UNL     1      23.161  50.096  48.353  1.00  0.00     0.132 C 
HETATM    9  O   UNL     1      25.269  48.787  49.459  1.00  0.00    -0.247 OA
HETATM   10  H   UNL     1      23.119  46.478  49.812  1.00  0.00     0.171 HD
ENDROOT
BRANCH   1  11
HETATM   11  C   UNL     1      25.039  45.971  50.256  1.00  0.00     0.077 A 
HETATM   12  C   UNL     1      25.556  44.981  49.415  1.00  0.00     0.069 A 
HETATM   13  C   UNL     1      26.537  44.098  49.885  1.00  0.00     0.070 A 
HETATM   14  C   UNL     1      26.993  44.201  51.204  1.00  0.00     0.040 A 
HETATM   15  C   UNL     1      26.493  45.188  52.047  1.00  0.00     0.047 A 
HETATM   16  C   UNL     1      25.529  46.064  51.565  1.00  0.00     0.143 A 
HETATM   17  F   UNL     1      25.043  47.011  52.384  1.00  0.00    -0.204 F 
BRANCH  13  18
HETATM   18  O   UNL     1      27.123  43.092  49.164  1.00  0.00    -0.356 OA
HETATM   19  C   UNL     1      27.210  41.818  49.792  1.00  0.00     0.210 C 
ENDBRANCH  13  18
ENDBRANCH   1  11
BRANCH   6  20
HETATM   20  C   UNL     1      19.572  51.206  47.987  1.00  0.00    -0.002 A 
HETATM   21  C   UNL     1      18.795  51.118  46.783  1.00  0.00     0.003 A 
HETATM   22  C   UNL     1      17.833  52.129  46.842  1.00  0.00     0.043 A 
HETATM   23  C   UNL     1      18.817  50.289  45.639  1.00  0.00     0.014 A 
HETATM   24  C   UNL     1      16.886  52.337  45.830  1.00  0.00     0.030 A 
HETATM   25  N   UNL     1      18.027  52.808  48.022  1.00  0.00    -0.364 N 
HETATM   26  C   UNL     1      16.923  51.490  44.719  1.00  0.00     0.002 A 
HETATM   27  C   UNL     1      17.876  50.480  44.621  1.00  0.00     0.001 A 
HETATM   28  H   UNL     1      17.474  53.597  48.324  1.00  0.00     0.165 HD
HETATM   29  C   UNL     1      19.072  52.263  48.718  1.00  0.00     0.101 A 
ENDBRANCH   6  20
TORSDOF 3
ENDMDL
MODEL 6
REMARK VINA RESULT:      -9.0     11.867     14.427
REMARK  3 active torsions:
REMARK  status: ('A' for Active; 'I' for Inactive)
REMARK    1  A    between atoms: O_2  and  C_3 
REMARK    2  A    between atoms: C_5  and  N_6 
REMARK       I    between atoms: N_6  and  C_7 
REMARK       I    between atoms: C_7  and  N_8 
REMARK    3  A    between atoms: C_11  and  C_12 
ROOT
HETATM    1  N   UNL     1      23.268  49.662  48.682  1.00  0.00    -0.306 N 
HETATM    2  C   UNL     1      22.250  49.121  47.929  1.00  0.00     0.323 C 
HETATM    3  N   UNL     1      21.075  49.884  47.883  1.00  0.00    -0.330 N 
HETATM    4  C   UNL     1      20.882  51.103  48.665  1.00  0.00     0.155 C 
HETATM    5  C   UNL     1      19.578  51.788  48.417  1.00  0.00     0.001 C 
HETATM    6  C   UNL     1      18.629  51.368  47.564  1.00  0.00    -0.046 C 
HETATM    7  C   UNL     1      18.856  50.122  46.752  1.00  0.00     0.059 C 
HETATM    8  C   UNL     1      19.869  49.194  47.420  1.00  0.00     0.132 C 
HETATM    9  O   UNL     1      22.326  48.034  47.358  1.00  0.00    -0.247 OA
HETATM   10  H   UNL     1      23.087  50.515  49.187  1.00  0.00     0.171 HD
ENDROOT
BRANCH   1  11
HETATM   11  C   UNL     1      24.529  49.094  48.984  1.00  0.00     0.077 A 
HETATM   12  C   UNL     1      24.731  47.999  49.830  1.00  0.00     0.069 A 
HETATM   13  C   UNL     1      26.027  47.530  50.079  1.00  0.00     0.070 A 
HETATM   14  C   UNL     1      27.124  48.166  49.488  1.00  0.00     0.040 A 
HETATM   15  C   UNL     1      26.936  49.250  48.636  1.00  0.00     0.047 A 
HETATM   16  C   UNL     1      25.644  49.698  48.388  1.00  0.00     0.143 A 
HETATM   17  F   UNL     1      25.466  50.750  47.572  1.00  0.00    -0.204 F 
BRANCH  13  18
HETATM   18  O   UNL     1      26.356  46.471  50.882  1.00  0.00    -0.356 OA
HETATM   19  C   UNL     1      25.300  45.882  51.632  1.00  0.00     0.210 C 
ENDBRANCH  13  18
ENDBRANCH   1  11
BRANCH   6  20
HETATM   20  C   UNL     1      17.365  52.017  47.381  1.00  0.00    -0.002 A 
HETATM   21  C   UNL     1      16.464  52.507  48.385  1.00  0.00     0.003 A 
HETATM   22  C   UNL     1      15.372  53.068  47.719  1.00  0.00     0.043 A 
HETATM   23  C   UNL     1      16.458  52.522  49.798  1.00  0.00     0.014 A 
HETATM   24  C   UNL     1      14.292  53.655  48.391  1.00  0.00     0.030 A 
HETATM   25  N   UNL     1      15.593  52.911  46.371  1.00  0.00    -0.364 N 
HETATM   26  C   UNL     1      14.323  53.670  49.788  1.00  0.00     0.002 A 
HETATM   27  C   UNL     1      15.389  53.109  50.485  1.00  0.00     0.001 A 
HETATM   28  H   UNL     1      14.960  53.220  45.648  1.00  0.00     0.165 HD
HETATM   29  C   UNL     1      16.789  52.278  46.155  1.00  0.00     0.101 A 
ENDBRANCH   6  20
TORSDOF 3
ENDMDL
MODEL 7
REMARK VINA RESULT:      -8.6      2.449      2.914
REMARK  3 active torsions:
REMARK  status: ('A' for Active; 'I' for Inactive)
REMARK    1  A    between atoms: O_2  and  C_3 
REMARK    2  A    between atoms: C_5  and  N_6 
REMARK       I    between atoms: N_6  and  C_7 
REMARK       I    between atoms: C_7  and  N_8 
REMARK    3  A    between atoms: C_11  and  C_12 
ROOT
HETATM    1  N   UNL     1      26.793  41.450  48.877  1.00  0.00    -0.306 N 
HETATM    2  C   UNL     1      27.297  40.932  50.049  1.00  0.00     0.323 C 
HETATM    3  N   UNL     1      27.618  41.881  51.029  1.00  0.00    -0.330 N 
HETATM    4  C   UNL     1      27.544  43.323  50.801  1.00  0.00     0.155 C 
HETATM    5  C   UNL     1      27.874  44.148  52.001  1.00  0.00     0.001 C 
HETATM    6  C   UNL     1      28.214  43.666  53.208  1.00  0.00    -0.046 C 
HETATM    7  C   UNL     1      28.262  42.179  53.429  1.00  0.00     0.059 C 
HETATM    8  C   UNL     1      28.484  41.424  52.118  1.00  0.00     0.132 C 
HETATM    9  O   UNL     1      27.496  39.732  50.235  1.00  0.00    -0.247 OA
HETATM   10  H   UNL     1      26.747  42.452  48.780  1.00  0.00     0.171 HD
ENDROOT
BRANCH   1  11
HETATM   11  C   UNL     1      26.460  40.759  47.688  1.00  0.00     0.077 A 
HETATM   12  C   UNL     1      25.224  40.159  47.432  1.00  0.00     0.069 A 
HETATM   13  C   UNL     1      25.008  39.476  46.227  1.00  0.00     0.070 A 
HETATM   14  C   UNL     1      26.036  39.387  45.282  1.00  0.00     0.040 A 
HETATM   15  C   UNL     1      27.267  39.989  45.521  1.00  0.00     0.047 A 
HETATM   16  C   UNL     1      27.465  40.672  46.715  1.00  0.00     0.143 A 
HETATM   17  F   UNL     1      28.657  41.245  46.946  1.00  0.00    -0.204 F 
BRANCH  13  18
HETATM   18  O   UNL     1      23.847  38.851  45.857  1.00  0.00    -0.356 OA
HETATM   19  C   UNL     1      23.721  37.476  46.200  1.00  0.00     0.210 C 
ENDBRANCH  13  18
ENDBRANCH   1  11
BRANCH   6  20
HETATM   20  C   UNL     1      28.574  44.481  54.330  1.00  0.00    -0.002 A 
HETATM   21  C   UNL     1      29.592  44.240  55.312  1.00  0.00     0.003 A 
HETATM   22  C   UNL     1      29.572  45.319  56.199  1.00  0.00     0.043 A 
HETATM   23  C   UNL     1      30.527  43.206  55.547  1.00  0.00     0.014 A 
HETATM   24  C   UNL     1      30.445  45.424  57.289  1.00  0.00     0.030 A 
HETATM   25  N   UNL     1      28.574  46.170  55.781  1.00  0.00    -0.364 N 
HETATM   26  C   UNL     1      31.369  44.395  57.486  1.00  0.00     0.002 A 
HETATM   27  C   UNL     1      31.410  43.298  56.630  1.00  0.00     0.001 A 
HETATM   28  H   UNL     1      28.330  47.034  56.243  1.00  0.00     0.165 HD
HETATM   29  C   UNL     1      27.965  45.674  54.659  1.00  0.00     0.101 A 
ENDBRANCH   6  20
TORSDOF 3
ENDMDL
MODEL 8
REMARK VINA RESULT:      -8.6     12.012     14.765
REMARK  3 active torsions:
REMARK  status: ('A' for Active; 'I' for Inactive)
REMARK    1  A    between atoms: O_2  and  C_3 
REMARK    2  A    between atoms: C_5  and  N_6 
REMARK       I    between atoms: N_6  and  C_7 
REMARK       I    between atoms: C_7  and  N_8 
REMARK    3  A    between atoms: C_11  and  C_12 
ROOT
HETATM    1  N   UNL     1      23.291  49.654  48.571  1.00  0.00    -0.306 N 
HETATM    2  C   UNL     1      22.268  49.068  47.858  1.00  0.00     0.323 C 
HETATM    3  N   UNL     1      21.074  49.802  47.820  1.00  0.00    -0.330 N 
HETATM    4  C   UNL     1      20.870  51.037  48.574  1.00  0.00     0.155 C 
HETATM    5  C   UNL     1      19.544  51.683  48.340  1.00  0.00     0.001 C 
HETATM    6  C   UNL     1      18.586  51.217  47.522  1.00  0.00    -0.046 C 
HETATM    7  C   UNL     1      18.824  49.957  46.737  1.00  0.00     0.059 C 
HETATM    8  C   UNL     1      19.875  49.071  47.405  1.00  0.00     0.132 C 
HETATM    9  O   UNL     1      22.357  47.969  47.314  1.00  0.00    -0.247 OA
HETATM   10  H   UNL     1      23.100  50.515  49.058  1.00  0.00     0.171 HD
ENDROOT
BRANCH   1  11
HETATM   11  C   UNL     1      24.572  49.124  48.857  1.00  0.00     0.077 A 
HETATM   12  C   UNL     1      24.812  47.990  49.637  1.00  0.00     0.069 A 
HETATM   13  C   UNL     1      26.125  47.564  49.877  1.00  0.00     0.070 A 
HETATM   14  C   UNL     1      27.200  48.283  49.343  1.00  0.00     0.040 A 
HETATM   15  C   UNL     1      26.973  49.408  48.556  1.00  0.00     0.047 A 
HETATM   16  C   UNL     1      25.666  49.813  48.316  1.00  0.00     0.143 A 
HETATM   17  F   UNL     1      25.451  50.904  47.564  1.00  0.00    -0.204 F 
BRANCH  13  18
HETATM   18  O   UNL     1      26.491  46.473  50.619  1.00  0.00    -0.356 OA
HETATM   19  C   UNL     1      26.833  45.293  49.901  1.00  0.00     0.210 C 
ENDBRANCH  13  18
ENDBRANCH   1  11
BRANCH   6  20
HETATM   20  C   UNL     1      17.302  51.831  47.352  1.00  0.00    -0.002 A 
HETATM   21  C   UNL     1      16.770  52.468  46.182  1.00  0.00     0.003 A 
HETATM   22  C   UNL     1      15.480  52.900  46.500  1.00  0.00     0.043 A 
HETATM   23  C   UNL     1      17.256  52.733  44.882  1.00  0.00     0.014 A 
HETATM   24  C   UNL     1      14.653  53.563  45.583  1.00  0.00     0.030 A 
HETATM   25  N   UNL     1      15.246  52.554  47.810  1.00  0.00    -0.364 N 
HETATM   26  C   UNL     1      15.156  53.796  44.301  1.00  0.00     0.002 A 
HETATM   27  C   UNL     1      16.441  53.390  43.952  1.00  0.00     0.001 A 
HETATM   28  H   UNL     1      14.391  52.751  48.309  1.00  0.00     0.165 HD
HETATM   29  C   UNL     1      16.337  51.912  48.335  1.00  0.00     0.101 A 
ENDBRANCH   6  20
TORSDOF 3
ENDMDL
MODEL 9
REMARK VINA RESULT:      -8.5      6.099      8.398
REMARK  3 active torsions:
REMARK  status: ('A' for Active; 'I' for Inactive)
REMARK    1  A    between atoms: O_2  and  C_3 
REMARK    2  A    between atoms: C_5  and  N_6 
REMARK       I    between atoms: N_6  and  C_7 
REMARK       I    between atoms: C_7  and  N_8 
REMARK    3  A    between atoms: C_11  and  C_12 
ROOT
HETATM    1  N   UNL     1      22.841  46.027  48.989  1.00  0.00    -0.306 N 
HETATM    2  C   UNL     1      22.953  44.766  49.531  1.00  0.00     0.323 C 
HETATM    3  N   UNL     1      24.196  44.475  50.108  1.00  0.00    -0.330 N 
HETATM    4  C   UNL     1      25.340  45.382  50.044  1.00  0.00     0.155 C 
HETATM    5  C   UNL     1      26.547  44.896  50.777  1.00  0.00     0.001 C 
HETATM    6  C   UNL     1      26.633  43.739  51.453  1.00  0.00    -0.046 C 
HETATM    7  C   UNL     1      25.437  42.829  51.527  1.00  0.00     0.059 C 
HETATM    8  C   UNL     1      24.483  43.060  50.355  1.00  0.00     0.132 C 
HETATM    9  O   UNL     1      22.056  43.925  49.493  1.00  0.00    -0.247 OA
HETATM   10  H   UNL     1      23.657  46.619  48.987  1.00  0.00     0.171 HD
ENDROOT
BRANCH   1  11
HETATM   11  C   UNL     1      21.752  46.577  48.271  1.00  0.00     0.077 A 
HETATM   12  C   UNL     1      20.783  47.424  48.816  1.00  0.00     0.069 A 
HETATM   13  C   UNL     1      19.729  47.893  48.020  1.00  0.00     0.070 A 
HETATM   14  C   UNL     1      19.642  47.505  46.678  1.00  0.00     0.040 A 
HETATM   15  C   UNL     1      20.607  46.670  46.123  1.00  0.00     0.047 A 
HETATM   16  C   UNL     1      21.652  46.221  46.920  1.00  0.00     0.143 A 
HETATM   17  F   UNL     1      22.577  45.408  46.382  1.00  0.00    -0.204 F 
BRANCH  13  18
HETATM   18  O   UNL     1      18.723  48.726  48.431  1.00  0.00    -0.356 OA
HETATM   19  C   UNL     1      18.516  48.839  49.834  1.00  0.00     0.210 C 
ENDBRANCH  13  18
ENDBRANCH   1  11
BRANCH   6  20
HETATM   20  C   UNL     1      27.819  43.273  52.108  1.00  0.00    -0.002 A 
HETATM   21  C   UNL     1      28.439  43.789  53.295  1.00  0.00     0.003 A 
HETATM   22  C   UNL     1      29.563  42.999  53.548  1.00  0.00     0.043 A 
HETATM   23  C   UNL     1      28.167  44.857  54.179  1.00  0.00     0.014 A 
HETATM   24  C   UNL     1      30.410  43.211  54.643  1.00  0.00     0.030 A 
HETATM   25  N   UNL     1      29.629  42.054  52.550  1.00  0.00    -0.364 N 
HETATM   26  C   UNL     1      30.106  44.265  55.509  1.00  0.00     0.002 A 
HETATM   27  C   UNL     1      29.001  45.080  55.281  1.00  0.00     0.001 A 
HETATM   28  H   UNL     1      30.349  41.350  52.477  1.00  0.00     0.165 HD
HETATM   29  C   UNL     1      28.586  42.211  51.676  1.00  0.00     0.101 A 
ENDBRANCH   6  20
TORSDOF 3
ENDMDL
MODEL 10
REMARK VINA RESULT:      -8.5      4.038      4.571
REMARK  3 active torsions:
REMARK  status: ('A' for Active; 'I' for Inactive)
REMARK    1  A    between atoms: O_2  and  C_3 
REMARK    2  A    between atoms: C_5  and  N_6 
REMARK       I    between atoms: N_6  and  C_7 
REMARK       I    between atoms: C_7  and  N_8 
REMARK    3  A    between atoms: C_11  and  C_12 
ROOT
HETATM    1  N   UNL     1      24.768  43.136  49.958  1.00  0.00    -0.306 N 
HETATM    2  C   UNL     1      26.138  43.196  50.092  1.00  0.00     0.323 C 
HETATM    3  N   UNL     1      26.594  43.709  51.315  1.00  0.00    -0.330 N 
HETATM    4  C   UNL     1      25.702  44.257  52.335  1.00  0.00     0.155 C 
HETATM    5  C   UNL     1      26.397  44.693  53.582  1.00  0.00     0.001 C 
HETATM    6  C   UNL     1      27.719  44.613  53.805  1.00  0.00    -0.046 C 
HETATM    7  C   UNL     1      28.618  44.025  52.751  1.00  0.00     0.059 C 
HETATM    8  C   UNL     1      27.995  44.132  51.360  1.00  0.00     0.132 C 
HETATM    9  O   UNL     1      26.926  42.864  49.208  1.00  0.00    -0.247 OA
HETATM   10  H   UNL     1      24.200  43.512  50.701  1.00  0.00     0.171 HD
ENDROOT
BRANCH   1  11
HETATM   11  C   UNL     1      24.017  42.749  48.823  1.00  0.00     0.077 A 
HETATM   12  C   UNL     1      23.759  41.427  48.448  1.00  0.00     0.069 A 
HETATM   13  C   UNL     1      23.023  41.155  47.288  1.00  0.00     0.070 A 
HETATM   14  C   UNL     1      22.553  42.208  46.497  1.00  0.00     0.040 A 
HETATM   15  C   UNL     1      22.795  43.528  46.864  1.00  0.00     0.047 A 
HETATM   16  C   UNL     1      23.517  43.785  48.023  1.00  0.00     0.143 A 
HETATM   17  F   UNL     1      23.756  45.060  48.371  1.00  0.00    -0.204 F 
BRANCH  13  18
HETATM   18  O   UNL     1      22.702  39.910  46.817  1.00  0.00    -0.356 OA
HETATM   19  C   UNL     1      21.402  39.421  47.127  1.00  0.00     0.210 C 
ENDBRANCH  13  18
ENDBRANCH   1  11
BRANCH   6  20
HETATM   20  C   UNL     1      28.368  45.085  54.992  1.00  0.00    -0.002 A 
HETATM   21  C   UNL     1      29.510  44.529  55.661  1.00  0.00     0.003 A 
HETATM   22  C   UNL     1      29.776  45.343  56.765  1.00  0.00     0.043 A 
HETATM   23  C   UNL     1      30.342  43.407  55.448  1.00  0.00     0.014 A 
HETATM   24  C   UNL     1      30.836  45.103  57.648  1.00  0.00     0.030 A 
HETATM   25  N   UNL     1      28.828  46.340  56.774  1.00  0.00    -0.364 N 
HETATM   26  C   UNL     1      31.652  43.996  57.402  1.00  0.00     0.002 A 
HETATM   27  C   UNL     1      31.409  43.156  56.319  1.00  0.00     0.001 A 
HETATM   28  H   UNL     1      28.774  47.071  57.468  1.00  0.00     0.165 HD
HETATM   29  C   UNL     1      27.973  46.193  55.713  1.00  0.00     0.101 A 
ENDBRANCH   6  20
TORSDOF 3
ENDMDL
