MODEL 1
REMARK VINA RESULT:      -8.5      0.000      0.000
REMARK  5 active torsions:
REMARK  status: ('A' for Active; 'I' for Inactive)
REMARK       I    between atoms: C_2  and  N_3 
REMARK    1  A    between atoms: C_2  and  O_16 
REMARK    2  A    between atoms: N_3  and  C_4 
REMARK    3  A    between atoms: C_7  and  C_10 
REMARK    4  A    between atoms: O_16  and  C_17 
REMARK    5  A    between atoms: C_17  and  C_18 
ROOT
HETATM    1  C   UNL     1      27.314  45.777  53.725  1.00  0.00     0.036 A 
HETATM    2  C   UNL     1      28.009  44.568  53.726  1.00  0.00     0.030 A 
HETATM    3  C   UNL     1      28.951  44.290  54.725  1.00  0.00     0.014 A 
HETATM    4  C   UNL     1      29.218  45.215  55.741  1.00  0.00    -0.023 A 
HETATM    5  C   UNL     1      28.509  46.421  55.745  1.00  0.00     0.014 A 
HETATM    6  C   UNL     1      27.564  46.697  54.749  1.00  0.00     0.030 A 
ENDROOT
BRANCH   1   7
HETATM    7  N   UNL     1      26.384  46.147  52.739  1.00  0.00    -0.303 N 
HETATM    8  C   UNL     1      25.209  45.532  52.406  1.00  0.00     0.365 C 
HETATM    9  O   UNL     1      24.695  44.562  52.939  1.00  0.00    -0.238 OA
HETATM   10  H   UNL     1      26.602  46.938  52.150  1.00  0.00     0.171 HD
BRANCH   8  11
HETATM   11  O   UNL     1      24.697  46.176  51.326  1.00  0.00    -0.299 OA
BRANCH  11  12
HETATM   12  C   UNL     1      25.423  46.028  50.098  1.00  0.00     0.219 C 
BRANCH  12  13
HETATM   13  C   UNL     1      25.795  47.387  49.567  1.00  0.00    -0.034 A 
HETATM   14  C   UNL     1      24.804  48.305  49.192  1.00  0.00     0.009 A 
HETATM   15  C   UNL     1      25.156  49.566  48.707  1.00  0.00     0.001 A 
HETATM   16  C   UNL     1      26.499  49.917  48.584  1.00  0.00     0.000 A 
HETATM   17  C   UNL     1      27.492  49.005  48.940  1.00  0.00     0.001 A 
HETATM   18  C   UNL     1      27.142  47.745  49.425  1.00  0.00     0.009 A 
ENDBRANCH  12  13
ENDBRANCH  11  12
ENDBRANCH   8  11
ENDBRANCH   1   7
BRANCH   4  19
HETATM   19  C   UNL     1      30.218  44.950  56.760  1.00  0.00     0.010 A 
HETATM   20  C   UNL     1      31.227  43.960  56.830  1.00  0.00     0.152 A 
HETATM   21  N   UNL     1      31.964  44.046  57.942  1.00  0.00    -0.187 NA
HETATM   22  N   UNL     1      31.428  45.092  58.590  1.00  0.00    -0.289 N 
HETATM   23  H   UNL     1      31.828  45.359  59.484  1.00  0.00     0.188 HD
HETATM   24  C   UNL     1      30.384  45.669  57.926  1.00  0.00     0.123 A 
ENDBRANCH   4  19
TORSDOF 5
ENDMDL
MODEL 2
REMARK VINA RESULT:      -8.2      2.848      8.536
REMARK  5 active torsions:
REMARK  status: ('A' for Active; 'I' for Inactive)
REMARK       I    between atoms: C_2  and  N_3 
REMARK    1  A    between atoms: C_2  and  O_16 
REMARK    2  A    between atoms: N_3  and  C_4 
REMARK    3  A    between atoms: C_7  and  C_10 
REMARK    4  A    between atoms: O_16  and  C_17 
REMARK    5  A    between atoms: C_17  and  C_18 
ROOT
HETATM    1  C   UNL     1      25.780  45.619  51.266  1.00  0.00     0.036 A 
HETATM    2  C   UNL     1      24.562  45.372  50.633  1.00  0.00     0.030 A 
HETATM    3  C   UNL     1      23.979  46.342  49.807  1.00  0.00     0.014 A 
HETATM    4  C   UNL     1      24.602  47.578  49.598  1.00  0.00    -0.023 A 
HETATM    5  C   UNL     1      25.831  47.817  50.223  1.00  0.00     0.014 A 
HETATM    6  C   UNL     1      26.415  46.846  51.045  1.00  0.00     0.030 A 
ENDROOT
BRANCH   1   7
HETATM    7  N   UNL     1      26.409  44.715  52.139  1.00  0.00    -0.303 N 
HETATM    8  C   UNL     1      25.959  44.239  53.338  1.00  0.00     0.365 C 
HETATM    9  O   UNL     1      24.884  44.458  53.875  1.00  0.00    -0.238 OA
HETATM   10  H   UNL     1      27.336  44.391  51.902  1.00  0.00     0.171 HD
BRANCH   8  11
HETATM   11  O   UNL     1      26.944  43.477  53.878  1.00  0.00    -0.299 OA
BRANCH  11  12
HETATM   12  C   UNL     1      28.270  43.717  53.386  1.00  0.00     0.219 C 
BRANCH  12  13
HETATM   13  C   UNL     1      29.192  43.999  54.544  1.00  0.00    -0.034 A 
HETATM   14  C   UNL     1      29.090  45.196  55.265  1.00  0.00     0.009 A 
HETATM   15  C   UNL     1      29.944  45.448  56.341  1.00  0.00     0.001 A 
HETATM   16  C   UNL     1      30.910  44.510  56.699  1.00  0.00     0.000 A 
HETATM   17  C   UNL     1      31.030  43.322  55.978  1.00  0.00     0.001 A 
HETATM   18  C   UNL     1      30.177  43.070  54.903  1.00  0.00     0.009 A 
ENDBRANCH  12  13
ENDBRANCH  11  12
ENDBRANCH   8  11
ENDBRANCH   1   7
BRANCH   4  19
HETATM   19  C   UNL     1      23.988  48.602  48.772  1.00  0.00     0.010 A 
HETATM   20  C   UNL     1      24.553  49.723  48.117  1.00  0.00     0.152 A 
HETATM   21  N   UNL     1      23.650  50.437  47.438  1.00  0.00    -0.187 NA
HETATM   22  N   UNL     1      22.502  49.777  47.657  1.00  0.00    -0.289 N 
HETATM   23  H   UNL     1      21.653  50.138  47.233  1.00  0.00     0.188 HD
HETATM   24  C   UNL     1      22.650  48.673  48.445  1.00  0.00     0.123 A 
ENDBRANCH   4  19
TORSDOF 5
ENDMDL
MODEL 3
REMARK VINA RESULT:      -8.1      1.768      2.455
REMARK  5 active torsions:
REMARK  status: ('A' for Active; 'I' for Inactive)
REMARK       I    between atoms: C_2  and  N_3 
REMARK    1  A    between atoms: C_2  and  O_16 
REMARK    2  A    between atoms: N_3  and  C_4 
REMARK    3  A    between atoms: C_7  and  C_10 
REMARK    4  A    between atoms: O_16  and  C_17 
REMARK    5  A    between atoms: C_17  and  C_18 
ROOT
HETATM    1  C   UNL     1      26.611  46.504  53.553  1.00  0.00     0.036 A 
HETATM    2  C   UNL     1      26.909  45.145  53.637  1.00  0.00     0.030 A 
HETATM    3  C   UNL     1      27.914  44.688  54.500  1.00  0.00     0.014 A 
HETATM    4  C   UNL     1      28.640  45.582  55.296  1.00  0.00    -0.023 A 
HETATM    5  C   UNL     1      28.329  46.944  55.220  1.00  0.00     0.014 A 
HETATM    6  C   UNL     1      27.322  47.400  54.360  1.00  0.00     0.030 A 
ENDROOT
BRANCH   1   7
HETATM    7  N   UNL     1      25.647  47.045  52.685  1.00  0.00    -0.303 N 
HETATM    8  C   UNL     1      25.643  47.053  51.319  1.00  0.00     0.365 C 
HETATM    9  O   UNL     1      26.454  46.538  50.565  1.00  0.00    -0.238 OA
HETATM   10  H   UNL     1      24.864  47.539  53.090  1.00  0.00     0.171 HD
BRANCH   8  11
HETATM   11  O   UNL     1      24.570  47.778  50.911  1.00  0.00    -0.299 OA
BRANCH  11  12
HETATM   12  C   UNL     1      24.205  47.647  49.531  1.00  0.00     0.219 C 
BRANCH  12  13
HETATM   13  C   UNL     1      23.318  48.797  49.133  1.00  0.00    -0.034 A 
HETATM   14  C   UNL     1      21.925  48.645  49.092  1.00  0.00     0.009 A 
HETATM   15  C   UNL     1      21.108  49.717  48.729  1.00  0.00     0.001 A 
HETATM   16  C   UNL     1      21.676  50.946  48.397  1.00  0.00     0.000 A 
HETATM   17  C   UNL     1      23.061  51.103  48.420  1.00  0.00     0.001 A 
HETATM   18  C   UNL     1      23.879  50.032  48.782  1.00  0.00     0.009 A 
ENDBRANCH  12  13
ENDBRANCH  11  12
ENDBRANCH   8  11
ENDBRANCH   1   7
BRANCH   4  19
HETATM   19  C   UNL     1      29.707  45.122  56.167  1.00  0.00     0.010 A 
HETATM   20  C   UNL     1      30.688  44.119  55.978  1.00  0.00     0.152 A 
HETATM   21  N   UNL     1      31.510  43.992  57.023  1.00  0.00    -0.187 NA
HETATM   22  N   UNL     1      31.057  44.912  57.889  1.00  0.00    -0.289 N 
HETATM   23  H   UNL     1      31.532  45.007  58.781  1.00  0.00     0.188 HD
HETATM   24  C   UNL     1      29.984  45.616  57.425  1.00  0.00     0.123 A 
ENDBRANCH   4  19
TORSDOF 5
ENDMDL
MODEL 4
REMARK VINA RESULT:      -8.0      4.536      8.134
REMARK  5 active torsions:
REMARK  status: ('A' for Active; 'I' for Inactive)
REMARK       I    between atoms: C_2  and  N_3 
REMARK    1  A    between atoms: C_2  and  O_16 
REMARK    2  A    between atoms: N_3  and  C_4 
REMARK    3  A    between atoms: C_7  and  C_10 
REMARK    4  A    between atoms: O_16  and  C_17 
REMARK    5  A    between atoms: C_17  and  C_18 
ROOT
HETATM    1  C   UNL     1      28.004  42.734  52.753  1.00  0.00     0.036 A 
HETATM    2  C   UNL     1      27.317  42.704  51.540  1.00  0.00     0.030 A 
HETATM    3  C   UNL     1      27.415  41.591  50.695  1.00  0.00     0.014 A 
HETATM    4  C   UNL     1      28.202  40.488  51.045  1.00  0.00    -0.023 A 
HETATM    5  C   UNL     1      28.879  40.516  52.269  1.00  0.00     0.014 A 
HETATM    6  C   UNL     1      28.777  41.626  53.116  1.00  0.00     0.030 A 
ENDROOT
BRANCH   1   7
HETATM    7  N   UNL     1      27.988  43.827  53.637  1.00  0.00    -0.303 N 
HETATM    8  C   UNL     1      27.101  44.095  54.641  1.00  0.00     0.365 C 
HETATM    9  O   UNL     1      26.166  43.406  55.018  1.00  0.00    -0.238 OA
HETATM   10  H   UNL     1      28.681  44.551  53.512  1.00  0.00     0.171 HD
BRANCH   8  11
HETATM   11  O   UNL     1      27.415  45.311  55.158  1.00  0.00    -0.299 OA
BRANCH  11  12
HETATM   12  C   UNL     1      28.751  45.773  54.919  1.00  0.00     0.219 C 
BRANCH  12  13
HETATM   13  C   UNL     1      29.642  45.340  56.054  1.00  0.00    -0.034 A 
HETATM   14  C   UNL     1      30.592  44.325  55.870  1.00  0.00     0.009 A 
HETATM   15  C   UNL     1      31.420  43.934  56.923  1.00  0.00     0.001 A 
HETATM   16  C   UNL     1      31.301  44.546  58.170  1.00  0.00     0.000 A 
HETATM   17  C   UNL     1      30.348  45.545  58.367  1.00  0.00     0.001 A 
HETATM   18  C   UNL     1      29.520  45.937  57.315  1.00  0.00     0.009 A 
ENDBRANCH  12  13
ENDBRANCH  11  12
ENDBRANCH   8  11
ENDBRANCH   1   7
BRANCH   4  19
HETATM   19  C   UNL     1      28.338  39.345  50.159  1.00  0.00     0.010 A 
HETATM   20  C   UNL     1      27.516  38.895  49.098  1.00  0.00     0.152 A 
HETATM   21  N   UNL     1      27.985  37.791  48.509  1.00  0.00    -0.187 NA
HETATM   22  N   UNL     1      29.110  37.528  49.192  1.00  0.00    -0.289 N 
HETATM   23  H   UNL     1      29.657  36.716  48.923  1.00  0.00     0.188 HD
HETATM   24  C   UNL     1      29.368  38.427  50.186  1.00  0.00     0.123 A 
ENDBRANCH   4  19
TORSDOF 5
ENDMDL
MODEL 5
REMARK VINA RESULT:      -7.9      2.936      8.705
REMARK  5 active torsions:
REMARK  status: ('A' for Active; 'I' for Inactive)
REMARK       I    between atoms: C_2  and  N_3 
REMARK    1  A    between atoms: C_2  and  O_16 
REMARK    2  A    between atoms: N_3  and  C_4 
REMARK    3  A    between atoms: C_7  and  C_10 
REMARK    4  A    between atoms: O_16  and  C_17 
REMARK    5  A    between atoms: C_17  and  C_18 
ROOT
HETATM    1  C   UNL     1      25.913  45.267  51.557  1.00  0.00     0.036 A 
HETATM    2  C   UNL     1      26.168  46.636  51.495  1.00  0.00     0.030 A 
HETATM    3  C   UNL     1      25.395  47.468  50.674  1.00  0.00     0.014 A 
HETATM    4  C   UNL     1      24.353  46.946  49.898  1.00  0.00    -0.023 A 
HETATM    5  C   UNL     1      24.091  45.574  49.973  1.00  0.00     0.014 A 
HETATM    6  C   UNL     1      24.860  44.744  50.798  1.00  0.00     0.030 A 
ENDROOT
BRANCH   1   7
HETATM    7  N   UNL     1      26.666  44.362  52.325  1.00  0.00    -0.303 N 
HETATM    8  C   UNL     1      26.513  44.033  53.643  1.00  0.00     0.365 C 
HETATM    9  O   UNL     1      25.648  44.417  54.414  1.00  0.00    -0.238 OA
HETATM   10  H   UNL     1      27.460  43.914  51.890  1.00  0.00     0.171 HD
BRANCH   8  11
HETATM   11  O   UNL     1      27.531  43.202  53.983  1.00  0.00    -0.299 OA
BRANCH  11  12
HETATM   12  C   UNL     1      28.850  43.646  53.641  1.00  0.00     0.219 C 
BRANCH  12  13
HETATM   13  C   UNL     1      29.613  43.972  54.899  1.00  0.00    -0.034 A 
HETATM   14  C   UNL     1      30.566  43.079  55.409  1.00  0.00     0.009 A 
HETATM   15  C   UNL     1      31.275  43.390  56.571  1.00  0.00     0.001 A 
HETATM   16  C   UNL     1      31.031  44.590  57.237  1.00  0.00     0.000 A 
HETATM   17  C   UNL     1      30.073  45.477  56.746  1.00  0.00     0.001 A 
HETATM   18  C   UNL     1      29.365  45.168  55.585  1.00  0.00     0.009 A 
ENDBRANCH  12  13
ENDBRANCH  11  12
ENDBRANCH   8  11
ENDBRANCH   1   7
BRANCH   4  19
HETATM   19  C   UNL     1      23.570  47.795  49.017  1.00  0.00     0.010 A 
HETATM   20  C   UNL     1      23.863  49.057  48.448  1.00  0.00     0.152 A 
HETATM   21  N   UNL     1      22.877  49.521  47.676  1.00  0.00    -0.187 NA
HETATM   22  N   UNL     1      21.945  48.557  47.748  1.00  0.00    -0.289 N 
HETATM   23  H   UNL     1      21.081  48.685  47.232  1.00  0.00     0.188 HD
HETATM   24  C   UNL     1      22.311  47.503  48.535  1.00  0.00     0.123 A 
ENDBRANCH   4  19
TORSDOF 5
ENDMDL
MODEL 6
REMARK VINA RESULT:      -7.4      6.361     11.459
REMARK  5 active torsions:
REMARK  status: ('A' for Active; 'I' for Inactive)
REMARK       I    between atoms: C_2  and  N_3 
REMARK    1  A    between atoms: C_2  and  O_16 
REMARK    2  A    between atoms: N_3  and  C_4 
REMARK    3  A    between atoms: C_7  and  C_10 
REMARK    4  A    between atoms: O_16  and  C_17 
REMARK    5  A    between atoms: C_17  and  C_18 
ROOT
HETATM    1  C   UNL     1      21.102  50.350  49.550  1.00  0.00     0.036 A 
HETATM    2  C   UNL     1      20.969  51.404  48.647  1.00  0.00     0.030 A 
HETATM    3  C   UNL     1      19.737  52.051  48.483  1.00  0.00     0.014 A 
HETATM    4  C   UNL     1      18.614  51.656  49.219  1.00  0.00    -0.023 A 
HETATM    5  C   UNL     1      18.753  50.608  50.134  1.00  0.00     0.014 A 
HETATM    6  C   UNL     1      19.986  49.964  50.302  1.00  0.00     0.030 A 
ENDROOT
BRANCH   1   7
HETATM    7  N   UNL     1      22.290  49.626  49.743  1.00  0.00    -0.303 N 
HETATM    8  C   UNL     1      22.893  48.740  48.895  1.00  0.00     0.365 C 
HETATM    9  O   UNL     1      22.551  48.437  47.763  1.00  0.00    -0.238 OA
HETATM   10  H   UNL     1      22.762  49.712  50.632  1.00  0.00     0.171 HD
BRANCH   8  11
HETATM   11  O   UNL     1      23.959  48.205  49.544  1.00  0.00    -0.299 OA
BRANCH  11  12
HETATM   12  C   UNL     1      24.031  46.773  49.567  1.00  0.00     0.219 C 
BRANCH  12  13
HETATM   13  C   UNL     1      24.709  46.324  50.834  1.00  0.00    -0.034 A 
HETATM   14  C   UNL     1      24.519  45.024  51.325  1.00  0.00     0.009 A 
HETATM   15  C   UNL     1      25.156  44.612  52.497  1.00  0.00     0.001 A 
HETATM   16  C   UNL     1      25.980  45.496  53.192  1.00  0.00     0.000 A 
HETATM   17  C   UNL     1      26.162  46.795  52.720  1.00  0.00     0.001 A 
HETATM   18  C   UNL     1      25.526  47.209  51.549  1.00  0.00     0.009 A 
ENDBRANCH  12  13
ENDBRANCH  11  12
ENDBRANCH   8  11
ENDBRANCH   1   7
BRANCH   4  19
HETATM   19  C   UNL     1      17.325  52.297  49.030  1.00  0.00     0.010 A 
HETATM   20  C   UNL     1      16.545  53.084  49.912  1.00  0.00     0.152 A 
HETATM   21  N   UNL     1      15.403  53.505  49.361  1.00  0.00    -0.187 NA
HETATM   22  N   UNL     1      15.445  52.989  48.123  1.00  0.00    -0.289 N 
HETATM   23  H   UNL     1      14.668  53.176  47.498  1.00  0.00     0.188 HD
HETATM   24  C   UNL     1      16.573  52.261  47.874  1.00  0.00     0.123 A 
ENDBRANCH   4  19
TORSDOF 5
ENDMDL
MODEL 7
REMARK VINA RESULT:      -7.4      9.281     12.870
REMARK  5 active torsions:
REMARK  status: ('A' for Active; 'I' for Inactive)
REMARK       I    between atoms: C_2  and  N_3 
REMARK    1  A    between atoms: C_2  and  O_16 
REMARK    2  A    between atoms: N_3  and  C_4 
REMARK    3  A    between atoms: C_7  and  C_10 
REMARK    4  A    between atoms: O_16  and  C_17 
REMARK    5  A    between atoms: C_17  and  C_18 
ROOT
HETATM    1  C   UNL     1      18.280  51.933  49.587  1.00  0.00     0.036 A 
HETATM    2  C   UNL     1      19.047  52.459  48.548  1.00  0.00     0.030 A 
HETATM    3  C   UNL     1      20.279  51.883  48.211  1.00  0.00     0.014 A 
HETATM    4  C   UNL     1      20.769  50.772  48.907  1.00  0.00    -0.023 A 
HETATM    5  C   UNL     1      19.990  50.239  49.940  1.00  0.00     0.014 A 
HETATM    6  C   UNL     1      18.756  50.811  50.273  1.00  0.00     0.030 A 
ENDROOT
BRANCH   1   7
HETATM    7  N   UNL     1      17.054  52.475  50.010  1.00  0.00    -0.303 N 
HETATM    8  C   UNL     1      15.791  52.129  49.618  1.00  0.00     0.365 C 
HETATM    9  O   UNL     1      15.463  51.232  48.857  1.00  0.00    -0.238 OA
HETATM   10  H   UNL     1      17.074  53.255  50.651  1.00  0.00     0.171 HD
BRANCH   8  11
HETATM   11  O   UNL     1      14.924  52.992  50.206  1.00  0.00    -0.299 OA
BRANCH  11  12
HETATM   12  C   UNL     1      14.823  54.292  49.609  1.00  0.00     0.219 C 
BRANCH  12  13
HETATM   13  C   UNL     1      14.919  55.346  50.681  1.00  0.00    -0.034 A 
HETATM   14  C   UNL     1      15.173  56.684  50.348  1.00  0.00     0.009 A 
HETATM   15  C   UNL     1      15.253  57.658  51.345  1.00  0.00     0.001 A 
HETATM   16  C   UNL     1      15.089  57.302  52.683  1.00  0.00     0.000 A 
HETATM   17  C   UNL     1      14.853  55.971  53.025  1.00  0.00     0.001 A 
HETATM   18  C   UNL     1      14.772  54.997  52.030  1.00  0.00     0.009 A 
ENDBRANCH  12  13
ENDBRANCH  11  12
ENDBRANCH   8  11
ENDBRANCH   1   7
BRANCH   4  19
HETATM   19  C   UNL     1      22.061  50.191  48.588  1.00  0.00     0.010 A 
HETATM   20  C   UNL     1      23.056  50.597  47.667  1.00  0.00     0.152 A 
HETATM   21  N   UNL     1      24.123  49.794  47.667  1.00  0.00    -0.187 NA
HETATM   22  N   UNL     1      23.816  48.868  48.588  1.00  0.00    -0.289 N 
HETATM   23  H   UNL     1      24.490  48.130  48.771  1.00  0.00     0.188 HD
HETATM   24  C   UNL     1      22.596  49.061  49.170  1.00  0.00     0.123 A 
ENDBRANCH   4  19
TORSDOF 5
ENDMDL
MODEL 8
REMARK VINA RESULT:      -7.4      1.757      2.578
REMARK  5 active torsions:
REMARK  status: ('A' for Active; 'I' for Inactive)
REMARK       I    between atoms: C_2  and  N_3 
REMARK    1  A    between atoms: C_2  and  O_16 
REMARK    2  A    between atoms: N_3  and  C_4 
REMARK    3  A    between atoms: C_7  and  C_10 
REMARK    4  A    between atoms: O_16  and  C_17 
REMARK    5  A    between atoms: C_17  and  C_18 
ROOT
HETATM    1  C   UNL     1      27.731  44.614  53.256  1.00  0.00     0.036 A 
HETATM    2  C   UNL     1      28.598  43.538  53.444  1.00  0.00     0.030 A 
HETATM    3  C   UNL     1      29.463  43.504  54.545  1.00  0.00     0.014 A 
HETATM    4  C   UNL     1      29.480  44.547  55.479  1.00  0.00    -0.023 A 
HETATM    5  C   UNL     1      28.600  45.619  55.295  1.00  0.00     0.014 A 
HETATM    6  C   UNL     1      27.731  45.649  54.197  1.00  0.00     0.030 A 
ENDROOT
BRANCH   1   7
HETATM    7  N   UNL     1      26.862  44.740  52.159  1.00  0.00    -0.303 N 
HETATM    8  C   UNL     1      25.517  44.500  52.108  1.00  0.00     0.365 C 
HETATM    9  O   UNL     1      24.779  44.180  53.027  1.00  0.00    -0.238 OA
HETATM   10  H   UNL     1      27.256  44.994  51.265  1.00  0.00     0.171 HD
BRANCH   8  11
HETATM   11  O   UNL     1      25.118  44.649  50.819  1.00  0.00    -0.299 OA
BRANCH  11  12
HETATM   12  C   UNL     1      25.015  45.997  50.342  1.00  0.00     0.219 C 
BRANCH  12  13
HETATM   13  C   UNL     1      23.770  46.141  49.507  1.00  0.00    -0.034 A 
HETATM   14  C   UNL     1      23.370  47.397  49.029  1.00  0.00     0.009 A 
HETATM   15  C   UNL     1      22.218  47.523  48.250  1.00  0.00     0.001 A 
HETATM   16  C   UNL     1      21.453  46.398  47.950  1.00  0.00     0.000 A 
HETATM   17  C   UNL     1      21.833  45.147  48.434  1.00  0.00     0.001 A 
HETATM   18  C   UNL     1      22.984  45.020  49.212  1.00  0.00     0.009 A 
ENDBRANCH  12  13
ENDBRANCH  11  12
ENDBRANCH   8  11
ENDBRANCH   1   7
BRANCH   4  19
HETATM   19  C   UNL     1      30.399  44.538  56.604  1.00  0.00     0.010 A 
HETATM   20  C   UNL     1      31.516  43.713  56.879  1.00  0.00     0.152 A 
HETATM   21  N   UNL     1      32.119  44.022  58.030  1.00  0.00    -0.187 NA
HETATM   22  N   UNL     1      31.390  45.047  58.498  1.00  0.00    -0.289 N 
HETATM   23  H   UNL     1      31.660  45.464  59.384  1.00  0.00     0.188 HD
HETATM   24  C   UNL     1      30.353  45.396  57.683  1.00  0.00     0.123 A 
ENDBRANCH   4  19
TORSDOF 5
ENDMDL
MODEL 9
REMARK VINA RESULT:      -7.4      4.468      5.849
REMARK  5 active torsions:
REMARK  status: ('A' for Active; 'I' for Inactive)
REMARK       I    between atoms: C_2  and  N_3 
REMARK    1  A    between atoms: C_2  and  O_16 
REMARK    2  A    between atoms: N_3  and  C_4 
REMARK    3  A    between atoms: C_7  and  C_10 
REMARK    4  A    between atoms: O_16  and  C_17 
REMARK    5  A    between atoms: C_17  and  C_18 
ROOT
HETATM    1  C   UNL     1      28.473  42.727  52.595  1.00  0.00     0.036 A 
HETATM    2  C   UNL     1      29.837  42.506  52.784  1.00  0.00     0.030 A 
HETATM    3  C   UNL     1      30.475  42.949  53.950  1.00  0.00     0.014 A 
HETATM    4  C   UNL     1      29.762  43.623  54.949  1.00  0.00    -0.023 A 
HETATM    5  C   UNL     1      28.392  43.831  54.762  1.00  0.00     0.014 A 
HETATM    6  C   UNL     1      27.753  43.384  53.599  1.00  0.00     0.030 A 
ENDROOT
BRANCH   1   7
HETATM    7  N   UNL     1      27.769  42.349  51.439  1.00  0.00    -0.303 N 
HETATM    8  C   UNL     1      27.381  43.130  50.387  1.00  0.00     0.365 C 
HETATM    9  O   UNL     1      27.617  44.314  50.206  1.00  0.00    -0.238 OA
HETATM   10  H   UNL     1      27.453  41.392  51.364  1.00  0.00     0.171 HD
BRANCH   8  11
HETATM   11  O   UNL     1      26.635  42.361  49.553  1.00  0.00    -0.299 OA
BRANCH  11  12
HETATM   12  C   UNL     1      27.330  41.768  48.449  1.00  0.00     0.219 C 
BRANCH  12  13
HETATM   13  C   UNL     1      27.575  40.309  48.734  1.00  0.00    -0.034 A 
HETATM   14  C   UNL     1      26.552  39.498  49.244  1.00  0.00     0.009 A 
HETATM   15  C   UNL     1      26.783  38.145  49.500  1.00  0.00     0.001 A 
HETATM   16  C   UNL     1      28.040  37.594  49.255  1.00  0.00     0.000 A 
HETATM   17  C   UNL     1      29.069  38.396  48.763  1.00  0.00     0.001 A 
HETATM   18  C   UNL     1      28.839  39.748  48.507  1.00  0.00     0.009 A 
ENDBRANCH  12  13
ENDBRANCH  11  12
ENDBRANCH   8  11
ENDBRANCH   1   7
BRANCH   4  19
HETATM   19  C   UNL     1      30.422  44.117  56.144  1.00  0.00     0.010 A 
HETATM   20  C   UNL     1      31.455  43.552  56.931  1.00  0.00     0.152 A 
HETATM   21  N   UNL     1      31.802  44.324  57.965  1.00  0.00    -0.187 NA
HETATM   22  N   UNL     1      30.992  45.387  57.845  1.00  0.00    -0.289 N 
HETATM   23  H   UNL     1      31.069  46.130  58.533  1.00  0.00     0.188 HD
HETATM   24  C   UNL     1      30.150  45.314  56.773  1.00  0.00     0.123 A 
ENDBRANCH   4  19
TORSDOF 5
ENDMDL
MODEL 10
REMARK VINA RESULT:      -7.3      3.720      9.102
REMARK  5 active torsions:
REMARK  status: ('A' for Active; 'I' for Inactive)
REMARK       I    between atoms: C_2  and  N_3 
REMARK    1  A    between atoms: C_2  and  O_16 
REMARK    2  A    between atoms: N_3  and  C_4 
REMARK    3  A    between atoms: C_7  and  C_10 
REMARK    4  A    between atoms: O_16  and  C_17 
REMARK    5  A    between atoms: C_17  and  C_18 
ROOT
HETATM    1  C   UNL     1      24.406  45.854  49.832  1.00  0.00     0.036 A 
HETATM    2  C   UNL     1      23.290  45.632  49.026  1.00  0.00     0.030 A 
HETATM    3  C   UNL     1      22.491  46.704  48.607  1.00  0.00     0.014 A 
HETATM    4  C   UNL     1      22.791  48.018  48.986  1.00  0.00    -0.023 A 
HETATM    5  C   UNL     1      23.920  48.238  49.783  1.00  0.00     0.014 A 
HETATM    6  C   UNL     1      24.721  47.167  50.198  1.00  0.00     0.030 A 
ENDROOT
BRANCH   1   7
HETATM    7  N   UNL     1      25.233  44.831  50.325  1.00  0.00    -0.303 N 
HETATM    8  C   UNL     1      25.204  44.232  51.554  1.00  0.00     0.365 C 
HETATM    9  O   UNL     1      24.411  44.425  52.462  1.00  0.00    -0.238 OA
HETATM   10  H   UNL     1      25.988  44.504  49.739  1.00  0.00     0.171 HD
BRANCH   8  11
HETATM   11  O   UNL     1      26.256  43.377  51.623  1.00  0.00    -0.299 OA
BRANCH  11  12
HETATM   12  C   UNL     1      27.548  43.941  51.362  1.00  0.00     0.219 C 
BRANCH  12  13
HETATM   13  C   UNL     1      28.417  43.796  52.584  1.00  0.00    -0.034 A 
HETATM   14  C   UNL     1      29.530  42.944  52.573  1.00  0.00     0.009 A 
HETATM   15  C   UNL     1      30.335  42.820  53.707  1.00  0.00     0.001 A 
HETATM   16  C   UNL     1      30.030  43.538  54.862  1.00  0.00     0.000 A 
HETATM   17  C   UNL     1      28.915  44.375  54.888  1.00  0.00     0.001 A 
HETATM   18  C   UNL     1      28.110  44.501  53.755  1.00  0.00     0.009 A 
ENDBRANCH  12  13
ENDBRANCH  11  12
ENDBRANCH   8  11
ENDBRANCH   1   7
BRANCH   4  19
HETATM   19  C   UNL     1      21.949  49.131  48.585  1.00  0.00     0.010 A 
HETATM   20  C   UNL     1      21.957  50.488  48.987  1.00  0.00     0.152 A 
HETATM   21  N   UNL     1      21.014  51.215  48.381  1.00  0.00    -0.187 NA
HETATM   22  N   UNL     1      20.397  50.326  47.588  1.00  0.00    -0.289 N 
HETATM   23  H   UNL     1      19.625  50.649  47.013  1.00  0.00     0.188 HD
HETATM   24  C   UNL     1      20.918  49.067  47.671  1.00  0.00     0.123 A 
ENDBRANCH   4  19
TORSDOF 5
ENDMDL
