MODEL 1
REMARK VINA RESULT:      -9.3      0.000      0.000
REMARK  5 active torsions:
REMARK  status: ('A' for Active; 'I' for Inactive)
REMARK    1  A    between atoms: C_7  and  C_8 
REMARK    2  A    between atoms: N_9  and  N_10 
REMARK       I    between atoms: N_10  and  C_11 
REMARK    3  A    between atoms: C_11  and  C_12 
REMARK    4  A    between atoms: C_12  and  N_13 
REMARK    5  A    between atoms: N_13  and  C_14 
ROOT
HETATM    1  N   UNL     1      25.933  46.439  52.461  1.00  0.00    -0.246 N 
HETATM    2  C   UNL     1      25.973  46.470  53.855  1.00  0.00     0.255 C 
HETATM    3  O   UNL     1      25.777  47.459  54.557  1.00  0.00    -0.270 OA
HETATM    4  H   UNL     1      25.842  45.536  52.004  1.00  0.00     0.192 HD
ENDROOT
BRANCH   1   5
HETATM    5  N   UNL     1      25.642  47.502  51.636  1.00  0.00    -0.184 NA
HETATM    6  C   UNL     1      25.632  47.310  50.355  1.00  0.00     0.153 C 
BRANCH   6   7
HETATM    7  C   UNL     1      25.356  48.406  49.440  1.00  0.00     0.018 A 
HETATM    8  C   UNL     1      26.267  49.270  48.846  1.00  0.00     0.018 A 
HETATM    9  C   UNL     1      27.749  49.350  48.938  1.00  0.00     0.069 C 
HETATM   10  N   UNL     1      25.557  50.153  48.069  1.00  0.00    -0.358 N 
HETATM   11  H   UNL     1      25.963  50.896  47.518  1.00  0.00     0.166 HD
HETATM   12  C   UNL     1      24.211  49.892  48.138  1.00  0.00     0.043 A 
HETATM   13  C   UNL     1      24.050  48.798  48.986  1.00  0.00     0.004 A 
HETATM   14  C   UNL     1      23.134  50.537  47.516  1.00  0.00     0.030 A 
HETATM   15  C   UNL     1      22.743  48.319  49.218  1.00  0.00     0.014 A 
HETATM   16  C   UNL     1      21.654  48.949  48.604  1.00  0.00     0.001 A 
HETATM   17  C   UNL     1      21.850  50.043  47.767  1.00  0.00     0.002 A 
ENDBRANCH   6   7
ENDBRANCH   1   5
BRANCH   2  18
HETATM   18  C   UNL     1      26.321  45.108  54.463  1.00  0.00     0.224 C 
BRANCH  18  19
HETATM   19  N   UNL     1      27.520  44.538  53.844  1.00  0.00    -0.380 N 
HETATM   20  H   UNL     1      27.697  44.841  52.885  1.00  0.00     0.160 HD
BRANCH  19  21
HETATM   21  C   UNL     1      28.708  44.482  54.593  1.00  0.00     0.050 A 
HETATM   22  C   UNL     1      29.491  43.307  54.613  1.00  0.00     0.060 A 
HETATM   23 CL   UNL     1      29.066  41.954  53.618  1.00  0.00    -0.082 Cl
HETATM   24  C   UNL     1      30.641  43.206  55.402  1.00  0.00     0.026 A 
HETATM   25  C   UNL     1      31.024  44.273  56.210  1.00  0.00     0.002 A 
HETATM   26  C   UNL     1      30.254  45.432  56.230  1.00  0.00     0.002 A 
HETATM   27  C   UNL     1      29.105  45.531  55.437  1.00  0.00     0.031 A 
ENDBRANCH  19  21
ENDBRANCH  18  19
ENDBRANCH   2  18
TORSDOF 5
ENDMDL
MODEL 2
REMARK VINA RESULT:      -9.1      2.891      9.016
REMARK  5 active torsions:
REMARK  status: ('A' for Active; 'I' for Inactive)
REMARK    1  A    between atoms: C_7  and  C_8 
REMARK    2  A    between atoms: N_9  and  N_10 
REMARK       I    between atoms: N_10  and  C_11 
REMARK    3  A    between atoms: C_11  and  C_12 
REMARK    4  A    between atoms: C_12  and  N_13 
REMARK    5  A    between atoms: N_13  and  C_14 
ROOT
HETATM    1  N   UNL     1      26.330  44.673  52.126  1.00  0.00    -0.246 N 
HETATM    2  C   UNL     1      26.439  44.854  50.747  1.00  0.00     0.255 C 
HETATM    3  O   UNL     1      27.418  44.572  50.061  1.00  0.00    -0.270 OA
HETATM    4  H   UNL     1      25.403  44.686  52.539  1.00  0.00     0.192 HD
ENDROOT
BRANCH   1   5
HETATM    5  N   UNL     1      27.289  44.124  52.948  1.00  0.00    -0.184 NA
HETATM    6  C   UNL     1      28.093  44.918  53.582  1.00  0.00     0.153 C 
BRANCH   6   7
HETATM    7  C   UNL     1      29.139  44.387  54.441  1.00  0.00     0.018 A 
HETATM    8  C   UNL     1      29.995  43.324  54.184  1.00  0.00     0.018 A 
HETATM    9  C   UNL     1      30.124  42.430  53.003  1.00  0.00     0.069 C 
HETATM   10  N   UNL     1      30.809  43.170  55.280  1.00  0.00    -0.358 N 
HETATM   11  H   UNL     1      31.533  42.471  55.371  1.00  0.00     0.166 HD
HETATM   12  C   UNL     1      30.511  44.101  56.245  1.00  0.00     0.043 A 
HETATM   13  C   UNL     1      29.470  44.883  55.748  1.00  0.00     0.004 A 
HETATM   14  C   UNL     1      31.081  44.306  57.507  1.00  0.00     0.030 A 
HETATM   15  C   UNL     1      28.978  45.932  56.555  1.00  0.00     0.014 A 
HETATM   16  C   UNL     1      29.538  46.154  57.820  1.00  0.00     0.001 A 
HETATM   17  C   UNL     1      30.573  45.350  58.287  1.00  0.00     0.002 A 
ENDBRANCH   6   7
ENDBRANCH   1   5
BRANCH   2  18
HETATM   18  C   UNL     1      25.184  45.487  50.138  1.00  0.00     0.224 C 
BRANCH  18  19
HETATM   19  N   UNL     1      24.980  46.851  50.632  1.00  0.00    -0.380 N 
HETATM   20  H   UNL     1      25.189  46.987  51.622  1.00  0.00     0.160 HD
BRANCH  19  21
HETATM   21  C   UNL     1      25.437  47.929  49.855  1.00  0.00     0.050 A 
HETATM   22  C   UNL     1      24.528  48.727  49.127  1.00  0.00     0.060 A 
HETATM   23 CL   UNL     1      22.822  48.468  49.273  1.00  0.00    -0.082 Cl
HETATM   24  C   UNL     1      24.966  49.763  48.296  1.00  0.00     0.026 A 
HETATM   25  C   UNL     1      26.329  50.012  48.156  1.00  0.00     0.002 A 
HETATM   26  C   UNL     1      27.246  49.222  48.841  1.00  0.00     0.002 A 
HETATM   27  C   UNL     1      26.805  48.187  49.674  1.00  0.00     0.031 A 
ENDBRANCH  19  21
ENDBRANCH  18  19
ENDBRANCH   2  18
TORSDOF 5
ENDMDL
MODEL 3
REMARK VINA RESULT:      -9.0      3.659      9.379
REMARK  5 active torsions:
REMARK  status: ('A' for Active; 'I' for Inactive)
REMARK    1  A    between atoms: C_7  and  C_8 
REMARK    2  A    between atoms: N_9  and  N_10 
REMARK       I    between atoms: N_10  and  C_11 
REMARK    3  A    between atoms: C_11  and  C_12 
REMARK    4  A    between atoms: C_12  and  N_13 
REMARK    5  A    between atoms: N_13  and  C_14 
ROOT
HETATM    1  N   UNL     1      23.792  46.848  49.938  1.00  0.00    -0.246 N 
HETATM    2  C   UNL     1      23.544  48.122  49.428  1.00  0.00     0.255 C 
HETATM    3  O   UNL     1      24.271  49.104  49.561  1.00  0.00    -0.270 OA
HETATM    4  H   UNL     1      23.275  46.066  49.548  1.00  0.00     0.192 HD
ENDROOT
BRANCH   1   5
HETATM    5  N   UNL     1      24.905  46.467  50.654  1.00  0.00    -0.184 NA
HETATM    6  C   UNL     1      24.781  45.536  51.546  1.00  0.00     0.153 C 
BRANCH   6   7
HETATM    7  C   UNL     1      25.919  45.115  52.347  1.00  0.00     0.018 A 
HETATM    8  C   UNL     1      26.604  43.908  52.285  1.00  0.00     0.018 A 
HETATM    9  C   UNL     1      26.415  42.714  51.421  1.00  0.00     0.069 C 
HETATM   10  N   UNL     1      27.599  43.945  53.233  1.00  0.00    -0.358 N 
HETATM   11  H   UNL     1      28.257  43.200  53.412  1.00  0.00     0.166 HD
HETATM   12  C   UNL     1      27.584  45.140  53.910  1.00  0.00     0.043 A 
HETATM   13  C   UNL     1      26.545  45.899  53.375  1.00  0.00     0.004 A 
HETATM   14  C   UNL     1      28.407  45.600  54.946  1.00  0.00     0.030 A 
HETATM   15  C   UNL     1      26.322  47.191  53.900  1.00  0.00     0.014 A 
HETATM   16  C   UNL     1      27.136  47.668  54.934  1.00  0.00     0.001 A 
HETATM   17  C   UNL     1      28.162  46.881  55.449  1.00  0.00     0.002 A 
ENDBRANCH   6   7
ENDBRANCH   1   5
BRANCH   2  18
HETATM   18  C   UNL     1      22.213  48.203  48.673  1.00  0.00     0.224 C 
BRANCH  18  19
HETATM   19  N   UNL     1      21.096  48.458  49.585  1.00  0.00    -0.380 N 
HETATM   20  H   UNL     1      21.264  48.197  50.558  1.00  0.00     0.160 HD
BRANCH  19  21
HETATM   21  C   UNL     1      20.411  49.682  49.492  1.00  0.00     0.050 A 
HETATM   22  C   UNL     1      19.195  49.879  50.182  1.00  0.00     0.060 A 
HETATM   23 CL   UNL     1      18.587  48.660  51.252  1.00  0.00    -0.082 Cl
HETATM   24  C   UNL     1      18.463  51.063  50.052  1.00  0.00     0.026 A 
HETATM   25  C   UNL     1      18.921  52.074  49.210  1.00  0.00     0.002 A 
HETATM   26  C   UNL     1      20.101  51.892  48.497  1.00  0.00     0.002 A 
HETATM   27  C   UNL     1      20.833  50.707  48.631  1.00  0.00     0.031 A 
ENDBRANCH  19  21
ENDBRANCH  18  19
ENDBRANCH   2  18
TORSDOF 5
ENDMDL
MODEL 4
REMARK VINA RESULT:      -8.8      3.562      9.419
REMARK  5 active torsions:
REMARK  status: ('A' for Active; 'I' for Inactive)
REMARK    1  A    between atoms: C_7  and  C_8 
REMARK    2  A    between atoms: N_9  and  N_10 
REMARK       I    between atoms: N_10  and  C_11 
REMARK    3  A    between atoms: C_11  and  C_12 
REMARK    4  A    between atoms: C_12  and  N_13 
REMARK    5  A    between atoms: N_13  and  C_14 
ROOT
HETATM    1  N   UNL     1      23.991  46.837  50.138  1.00  0.00    -0.246 N 
HETATM    2  C   UNL     1      23.587  48.026  49.529  1.00  0.00     0.255 C 
HETATM    3  O   UNL     1      24.143  49.116  49.642  1.00  0.00    -0.270 OA
HETATM    4  H   UNL     1      23.629  45.963  49.769  1.00  0.00     0.192 HD
ENDROOT
BRANCH   1   5
HETATM    5  N   UNL     1      25.094  46.677  50.945  1.00  0.00    -0.184 NA
HETATM    6  C   UNL     1      25.079  45.737  51.837  1.00  0.00     0.153 C 
BRANCH   6   7
HETATM    7  C   UNL     1      26.209  45.542  52.732  1.00  0.00     0.018 A 
HETATM    8  C   UNL     1      26.596  46.341  53.800  1.00  0.00     0.018 A 
HETATM    9  C   UNL     1      26.010  47.588  54.359  1.00  0.00     0.069 C 
HETATM   10  N   UNL     1      27.723  45.780  54.351  1.00  0.00    -0.358 N 
HETATM   11  H   UNL     1      28.225  46.149  55.147  1.00  0.00     0.166 HD
HETATM   12  C   UNL     1      28.083  44.641  53.675  1.00  0.00     0.043 A 
HETATM   13  C   UNL     1      27.151  44.460  52.655  1.00  0.00     0.004 A 
HETATM   14  C   UNL     1      29.155  43.764  53.889  1.00  0.00     0.030 A 
HETATM   15  C   UNL     1      27.293  43.338  51.810  1.00  0.00     0.014 A 
HETATM   16  C   UNL     1      28.357  42.450  52.011  1.00  0.00     0.001 A 
HETATM   17  C   UNL     1      29.273  42.664  53.035  1.00  0.00     0.002 A 
ENDBRANCH   6   7
ENDBRANCH   1   5
BRANCH   2  18
HETATM   18  C   UNL     1      22.318  47.853  48.688  1.00  0.00     0.224 C 
BRANCH  18  19
HETATM   19  N   UNL     1      21.114  48.131  49.475  1.00  0.00    -0.380 N 
HETATM   20  H   UNL     1      21.135  47.782  50.434  1.00  0.00     0.160 HD
BRANCH  19  21
HETATM   21  C   UNL     1      20.540  49.412  49.405  1.00  0.00     0.050 A 
HETATM   22  C   UNL     1      19.364  49.713  50.127  1.00  0.00     0.060 A 
HETATM   23 CL   UNL     1      18.674  48.545  51.205  1.00  0.00    -0.082 Cl
HETATM   24  C   UNL     1      18.738  50.959  50.021  1.00  0.00     0.026 A 
HETATM   25  C   UNL     1      19.265  51.930  49.173  1.00  0.00     0.002 A 
HETATM   26  C   UNL     1      20.407  51.649  48.431  1.00  0.00     0.002 A 
HETATM   27  C   UNL     1      21.031  50.401  48.540  1.00  0.00     0.031 A 
ENDBRANCH  19  21
ENDBRANCH  18  19
ENDBRANCH   2  18
TORSDOF 5
ENDMDL
MODEL 5
REMARK VINA RESULT:      -8.8      2.245      2.586
REMARK  5 active torsions:
REMARK  status: ('A' for Active; 'I' for Inactive)
REMARK    1  A    between atoms: C_7  and  C_8 
REMARK    2  A    between atoms: N_9  and  N_10 
REMARK       I    between atoms: N_10  and  C_11 
REMARK    3  A    between atoms: C_11  and  C_12 
REMARK    4  A    between atoms: C_12  and  N_13 
REMARK    5  A    between atoms: N_13  and  C_14 
ROOT
HETATM    1  N   UNL     1      25.487  44.751  50.635  1.00  0.00    -0.246 N 
HETATM    2  C   UNL     1      26.374  43.685  50.483  1.00  0.00     0.255 C 
HETATM    3  O   UNL     1      27.182  43.549  49.567  1.00  0.00    -0.270 OA
HETATM    4  H   UNL     1      25.065  44.897  51.548  1.00  0.00     0.192 HD
ENDROOT
BRANCH   1   5
HETATM    5  N   UNL     1      25.384  45.843  49.803  1.00  0.00    -0.184 NA
HETATM    6  C   UNL     1      25.474  47.028  50.320  1.00  0.00     0.153 C 
BRANCH   6   7
HETATM    7  C   UNL     1      25.347  48.214  49.488  1.00  0.00     0.018 A 
HETATM    8  C   UNL     1      26.364  49.017  48.988  1.00  0.00     0.018 A 
HETATM    9  C   UNL     1      27.842  48.930  49.123  1.00  0.00     0.069 C 
HETATM   10  N   UNL     1      25.778  50.030  48.267  1.00  0.00    -0.358 N 
HETATM   11  H   UNL     1      26.279  50.764  47.786  1.00  0.00     0.166 HD
HETATM   12  C   UNL     1      24.410  49.911  48.281  1.00  0.00     0.043 A 
HETATM   13  C   UNL     1      24.106  48.780  49.035  1.00  0.00     0.004 A 
HETATM   14  C   UNL     1      23.429  50.715  47.686  1.00  0.00     0.030 A 
HETATM   15  C   UNL     1      22.748  48.428  49.196  1.00  0.00     0.014 A 
HETATM   16  C   UNL     1      21.754  49.218  48.607  1.00  0.00     0.001 A 
HETATM   17  C   UNL     1      22.092  50.345  47.865  1.00  0.00     0.002 A 
ENDBRANCH   6   7
ENDBRANCH   1   5
BRANCH   2  18
HETATM   18  C   UNL     1      26.230  42.639  51.592  1.00  0.00     0.224 C 
BRANCH  18  19
HETATM   19  N   UNL     1      26.156  43.268  52.913  1.00  0.00    -0.380 N 
HETATM   20  H   UNL     1      25.407  42.923  53.514  1.00  0.00     0.160 HD
BRANCH  19  21
HETATM   21  C   UNL     1      27.345  43.468  53.635  1.00  0.00     0.050 A 
HETATM   22  C   UNL     1      27.631  44.724  54.216  1.00  0.00     0.060 A 
HETATM   23 CL   UNL     1      26.466  46.005  54.150  1.00  0.00    -0.082 Cl
HETATM   24  C   UNL     1      28.836  44.966  54.882  1.00  0.00     0.026 A 
HETATM   25  C   UNL     1      29.796  43.961  54.967  1.00  0.00     0.002 A 
HETATM   26  C   UNL     1      29.550  42.724  54.379  1.00  0.00     0.002 A 
HETATM   27  C   UNL     1      28.342  42.484  53.714  1.00  0.00     0.031 A 
ENDBRANCH  19  21
ENDBRANCH  18  19
ENDBRANCH   2  18
TORSDOF 5
ENDMDL
MODEL 6
REMARK VINA RESULT:      -8.8      3.127      9.276
REMARK  5 active torsions:
REMARK  status: ('A' for Active; 'I' for Inactive)
REMARK    1  A    between atoms: C_7  and  C_8 
REMARK    2  A    between atoms: N_9  and  N_10 
REMARK       I    between atoms: N_10  and  C_11 
REMARK    3  A    between atoms: C_11  and  C_12 
REMARK    4  A    between atoms: C_12  and  N_13 
REMARK    5  A    between atoms: N_13  and  C_14 
ROOT
HETATM    1  N   UNL     1      24.907  46.552  51.079  1.00  0.00    -0.246 N 
HETATM    2  C   UNL     1      24.625  47.475  50.072  1.00  0.00     0.255 C 
HETATM    3  O   UNL     1      25.261  48.500  49.837  1.00  0.00    -0.270 OA
HETATM    4  H   UNL     1      24.493  45.628  51.012  1.00  0.00     0.192 HD
ENDROOT
BRANCH   1   5
HETATM    5  N   UNL     1      25.961  46.618  51.963  1.00  0.00    -0.184 NA
HETATM    6  C   UNL     1      25.890  45.939  53.065  1.00  0.00     0.153 C 
BRANCH   6   7
HETATM    7  C   UNL     1      26.963  45.995  54.044  1.00  0.00     0.018 A 
HETATM    8  C   UNL     1      27.203  46.982  54.990  1.00  0.00     0.018 A 
HETATM    9  C   UNL     1      26.474  48.239  55.306  1.00  0.00     0.069 C 
HETATM   10  N   UNL     1      28.331  46.625  55.689  1.00  0.00    -0.358 N 
HETATM   11  H   UNL     1      28.740  47.159  56.443  1.00  0.00     0.166 HD
HETATM   12  C   UNL     1      28.835  45.434  55.226  1.00  0.00     0.043 A 
HETATM   13  C   UNL     1      27.998  45.009  54.197  1.00  0.00     0.004 A 
HETATM   14  C   UNL     1      29.959  44.708  55.641  1.00  0.00     0.030 A 
HETATM   15  C   UNL     1      28.296  43.789  53.552  1.00  0.00     0.014 A 
HETATM   16  C   UNL     1      29.414  43.049  53.955  1.00  0.00     0.001 A 
HETATM   17  C   UNL     1      30.233  43.505  54.983  1.00  0.00     0.002 A 
ENDBRANCH   6   7
ENDBRANCH   1   5
BRANCH   2  18
HETATM   18  C   UNL     1      23.381  47.097  49.261  1.00  0.00     0.224 C 
BRANCH  18  19
HETATM   19  N   UNL     1      22.869  48.241  48.503  1.00  0.00    -0.380 N 
HETATM   20  H   UNL     1      22.818  48.102  47.493  1.00  0.00     0.160 HD
BRANCH  19  21
HETATM   21  C   UNL     1      21.740  48.923  48.987  1.00  0.00     0.050 A 
HETATM   22  C   UNL     1      21.826  50.283  49.359  1.00  0.00     0.060 A 
HETATM   23 CL   UNL     1      23.294  51.168  49.112  1.00  0.00    -0.082 Cl
HETATM   24  C   UNL     1      20.733  50.964  49.904  1.00  0.00     0.026 A 
HETATM   25  C   UNL     1      19.530  50.293  50.111  1.00  0.00     0.002 A 
HETATM   26  C   UNL     1      19.428  48.946  49.779  1.00  0.00     0.002 A 
HETATM   27  C   UNL     1      20.523  48.268  49.232  1.00  0.00     0.031 A 
ENDBRANCH  19  21
ENDBRANCH  18  19
ENDBRANCH   2  18
TORSDOF 5
ENDMDL
MODEL 7
REMARK VINA RESULT:      -8.7      2.630      9.070
REMARK  5 active torsions:
REMARK  status: ('A' for Active; 'I' for Inactive)
REMARK    1  A    between atoms: C_7  and  C_8 
REMARK    2  A    between atoms: N_9  and  N_10 
REMARK       I    between atoms: N_10  and  C_11 
REMARK    3  A    between atoms: C_11  and  C_12 
REMARK    4  A    between atoms: C_12  and  N_13 
REMARK    5  A    between atoms: N_13  and  C_14 
ROOT
HETATM    1  N   UNL     1      25.691  45.480  51.326  1.00  0.00    -0.246 N 
HETATM    2  C   UNL     1      25.236  45.189  50.040  1.00  0.00     0.255 C 
HETATM    3  O   UNL     1      25.811  44.478  49.218  1.00  0.00    -0.270 OA
HETATM    4  H   UNL     1      25.024  45.844  52.000  1.00  0.00     0.192 HD
ENDROOT
BRANCH   1   5
HETATM    5  N   UNL     1      26.846  45.001  51.903  1.00  0.00    -0.184 NA
HETATM    6  C   UNL     1      26.753  44.063  52.793  1.00  0.00     0.153 C 
BRANCH   6   7
HETATM    7  C   UNL     1      27.940  43.541  53.450  1.00  0.00     0.018 A 
HETATM    8  C   UNL     1      28.530  42.295  53.280  1.00  0.00     0.018 A 
HETATM    9  C   UNL     1      28.167  41.147  52.408  1.00  0.00     0.069 C 
HETATM   10  N   UNL     1      29.622  42.234  54.112  1.00  0.00    -0.358 N 
HETATM   11  H   UNL     1      30.243  41.442  54.197  1.00  0.00     0.166 HD
HETATM   12  C   UNL     1      29.762  43.402  54.821  1.00  0.00     0.043 A 
HETATM   13  C   UNL     1      28.726  44.246  54.425  1.00  0.00     0.004 A 
HETATM   14  C   UNL     1      30.722  43.771  55.772  1.00  0.00     0.030 A 
HETATM   15  C   UNL     1      28.650  45.530  55.008  1.00  0.00     0.014 A 
HETATM   16  C   UNL     1      29.602  45.917  55.959  1.00  0.00     0.001 A 
HETATM   17  C   UNL     1      30.621  45.047  56.335  1.00  0.00     0.002 A 
ENDBRANCH   6   7
ENDBRANCH   1   5
BRANCH   2  18
HETATM   18  C   UNL     1      23.908  45.882  49.717  1.00  0.00     0.224 C 
BRANCH  18  19
HETATM   19  N   UNL     1      23.866  47.238  50.268  1.00  0.00    -0.380 N 
HETATM   20  H   UNL     1      24.573  47.439  50.976  1.00  0.00     0.160 HD
BRANCH  19  21
HETATM   21  C   UNL     1      23.694  48.321  49.390  1.00  0.00     0.050 A 
HETATM   22  C   UNL     1      24.808  49.054  48.925  1.00  0.00     0.060 A 
HETATM   23 CL   UNL     1      26.416  48.557  49.335  1.00  0.00    -0.082 Cl
HETATM   24  C   UNL     1      24.657  50.176  48.104  1.00  0.00     0.026 A 
HETATM   25  C   UNL     1      23.382  50.604  47.743  1.00  0.00     0.002 A 
HETATM   26  C   UNL     1      22.267  49.916  48.210  1.00  0.00     0.002 A 
HETATM   27  C   UNL     1      22.422  48.793  49.030  1.00  0.00     0.031 A 
ENDBRANCH  19  21
ENDBRANCH  18  19
ENDBRANCH   2  18
TORSDOF 5
ENDMDL
MODEL 8
REMARK VINA RESULT:      -8.7      5.545      9.303
REMARK  5 active torsions:
REMARK  status: ('A' for Active; 'I' for Inactive)
REMARK    1  A    between atoms: C_7  and  C_8 
REMARK    2  A    between atoms: N_9  and  N_10 
REMARK       I    between atoms: N_10  and  C_11 
REMARK    3  A    between atoms: C_11  and  C_12 
REMARK    4  A    between atoms: C_12  and  N_13 
REMARK    5  A    between atoms: N_13  and  C_14 
ROOT
HETATM    1  N   UNL     1      27.397  42.299  52.374  1.00  0.00    -0.246 N 
HETATM    2  C   UNL     1      28.076  41.132  52.025  1.00  0.00     0.255 C 
HETATM    3  O   UNL     1      28.985  40.610  52.667  1.00  0.00    -0.270 OA
HETATM    4  H   UNL     1      26.505  42.486  51.926  1.00  0.00     0.192 HD
ENDROOT
BRANCH   1   5
HETATM    5  N   UNL     1      27.608  43.048  53.510  1.00  0.00    -0.184 NA
HETATM    6  C   UNL     1      28.534  43.954  53.493  1.00  0.00     0.153 C 
BRANCH   6   7
HETATM    7  C   UNL     1      28.814  44.755  54.674  1.00  0.00     0.018 A 
HETATM    8  C   UNL     1      28.208  45.943  55.060  1.00  0.00     0.018 A 
HETATM    9  C   UNL     1      27.124  46.744  54.432  1.00  0.00     0.069 C 
HETATM   10  N   UNL     1      28.798  46.348  56.234  1.00  0.00    -0.358 N 
HETATM   11  H   UNL     1      28.554  47.184  56.747  1.00  0.00     0.166 HD
HETATM   12  C   UNL     1      29.770  45.460  56.624  1.00  0.00     0.043 A 
HETATM   13  C   UNL     1      29.802  44.446  55.670  1.00  0.00     0.004 A 
HETATM   14  C   UNL     1      30.613  45.480  57.743  1.00  0.00     0.030 A 
HETATM   15  C   UNL     1      30.722  43.390  55.847  1.00  0.00     0.014 A 
HETATM   16  C   UNL     1      31.572  43.391  56.960  1.00  0.00     0.001 A 
HETATM   17  C   UNL     1      31.517  44.424  57.892  1.00  0.00     0.002 A 
ENDBRANCH   6   7
ENDBRANCH   1   5
BRANCH   2  18
HETATM   18  C   UNL     1      27.588  40.543  50.697  1.00  0.00     0.224 C 
BRANCH  18  19
HETATM   19  N   UNL     1      28.664  40.501  49.704  1.00  0.00    -0.380 N 
HETATM   20  H   UNL     1      29.605  40.412  50.090  1.00  0.00     0.160 HD
BRANCH  19  21
HETATM   21  C   UNL     1      28.498  39.702  48.560  1.00  0.00     0.050 A 
HETATM   22  C   UNL     1      28.996  38.381  48.528  1.00  0.00     0.060 A 
HETATM   23 CL   UNL     1      29.712  37.680  49.940  1.00  0.00    -0.082 Cl
HETATM   24  C   UNL     1      28.901  37.590  47.378  1.00  0.00     0.026 A 
HETATM   25  C   UNL     1      28.324  38.111  46.223  1.00  0.00     0.002 A 
HETATM   26  C   UNL     1      27.851  39.419  46.220  1.00  0.00     0.002 A 
HETATM   27  C   UNL     1      27.946  40.208  47.373  1.00  0.00     0.031 A 
ENDBRANCH  19  21
ENDBRANCH  18  19
ENDBRANCH   2  18
TORSDOF 5
ENDMDL
MODEL 9
REMARK VINA RESULT:      -8.6      2.989      9.024
REMARK  5 active torsions:
REMARK  status: ('A' for Active; 'I' for Inactive)
REMARK    1  A    between atoms: C_7  and  C_8 
REMARK    2  A    between atoms: N_9  and  N_10 
REMARK       I    between atoms: N_10  and  C_11 
REMARK    3  A    between atoms: C_11  and  C_12 
REMARK    4  A    between atoms: C_12  and  N_13 
REMARK    5  A    between atoms: N_13  and  C_14 
ROOT
HETATM    1  N   UNL     1      25.301  46.799  51.348  1.00  0.00    -0.246 N 
HETATM    2  C   UNL     1      25.223  45.916  50.270  1.00  0.00     0.255 C 
HETATM    3  O   UNL     1      26.051  45.053  49.987  1.00  0.00    -0.270 OA
HETATM    4  H   UNL     1      24.453  47.274  51.640  1.00  0.00     0.192 HD
ENDROOT
BRANCH   1   5
HETATM    5  N   UNL     1      26.303  46.836  52.292  1.00  0.00    -0.184 NA
HETATM    6  C   UNL     1      26.324  45.923  53.211  1.00  0.00     0.153 C 
BRANCH   6   7
HETATM    7  C   UNL     1      27.345  45.933  54.246  1.00  0.00     0.018 A 
HETATM    8  C   UNL     1      27.533  46.875  55.249  1.00  0.00     0.018 A 
HETATM    9  C   UNL     1      26.785  48.116  55.585  1.00  0.00     0.069 C 
HETATM   10  N   UNL     1      28.624  46.485  55.988  1.00  0.00    -0.358 N 
HETATM   11  H   UNL     1      28.991  46.984  56.787  1.00  0.00     0.166 HD
HETATM   12  C   UNL     1      29.154  45.318  55.497  1.00  0.00     0.043 A 
HETATM   13  C   UNL     1      28.372  44.941  54.407  1.00  0.00     0.004 A 
HETATM   14  C   UNL     1      30.257  44.573  55.936  1.00  0.00     0.030 A 
HETATM   15  C   UNL     1      28.707  43.752  53.723  1.00  0.00     0.014 A 
HETATM   16  C   UNL     1      29.805  42.994  54.148  1.00  0.00     0.001 A 
HETATM   17  C   UNL     1      30.567  43.402  55.238  1.00  0.00     0.002 A 
ENDBRANCH   6   7
ENDBRANCH   1   5
BRANCH   2  18
HETATM   18  C   UNL     1      23.971  46.141  49.417  1.00  0.00     0.224 C 
BRANCH  18  19
HETATM   19  N   UNL     1      23.163  47.248  49.935  1.00  0.00    -0.380 N 
HETATM   20  H   UNL     1      23.278  47.436  50.932  1.00  0.00     0.160 HD
BRANCH  19  21
HETATM   21  C   UNL     1      23.088  48.438  49.191  1.00  0.00     0.050 A 
HETATM   22  C   UNL     1      21.849  48.896  48.691  1.00  0.00     0.060 A 
HETATM   23 CL   UNL     1      20.383  48.063  49.087  1.00  0.00    -0.082 Cl
HETATM   24  C   UNL     1      21.759  50.041  47.894  1.00  0.00     0.026 A 
HETATM   25  C   UNL     1      22.912  50.746  47.560  1.00  0.00     0.002 A 
HETATM   26  C   UNL     1      24.148  50.300  48.016  1.00  0.00     0.002 A 
HETATM   27  C   UNL     1      24.235  49.154  48.816  1.00  0.00     0.031 A 
ENDBRANCH  19  21
ENDBRANCH  18  19
ENDBRANCH   2  18
TORSDOF 5
ENDMDL
MODEL 10
REMARK VINA RESULT:      -8.5      4.982      8.535
REMARK  5 active torsions:
REMARK  status: ('A' for Active; 'I' for Inactive)
REMARK    1  A    between atoms: C_7  and  C_8 
REMARK    2  A    between atoms: N_9  and  N_10 
REMARK       I    between atoms: N_10  and  C_11 
REMARK    3  A    between atoms: C_11  and  C_12 
REMARK    4  A    between atoms: C_12  and  N_13 
REMARK    5  A    between atoms: N_13  and  C_14 
ROOT
HETATM    1  N   UNL     1      26.379  42.887  52.287  1.00  0.00    -0.246 N 
HETATM    2  C   UNL     1      25.239  43.141  51.523  1.00  0.00     0.255 C 
HETATM    3  O   UNL     1      24.429  44.044  51.721  1.00  0.00    -0.270 OA
HETATM    4  H   UNL     1      27.104  42.301  51.884  1.00  0.00     0.192 HD
ENDROOT
BRANCH   1   5
HETATM    5  N   UNL     1      26.805  43.618  53.372  1.00  0.00    -0.184 NA
HETATM    6  C   UNL     1      27.997  44.126  53.349  1.00  0.00     0.153 C 
BRANCH   6   7
HETATM    7  C   UNL     1      28.504  44.885  54.481  1.00  0.00     0.018 A 
HETATM    8  C   UNL     1      28.113  46.149  54.903  1.00  0.00     0.018 A 
HETATM    9  C   UNL     1      27.093  47.091  54.371  1.00  0.00     0.069 C 
HETATM   10  N   UNL     1      28.869  46.473  56.004  1.00  0.00    -0.358 N 
HETATM   11  H   UNL     1      28.797  47.337  56.522  1.00  0.00     0.166 HD
HETATM   12  C   UNL     1      29.742  45.459  56.313  1.00  0.00     0.043 A 
HETATM   13  C   UNL     1      29.535  44.445  55.379  1.00  0.00     0.004 A 
HETATM   14  C   UNL     1      30.689  45.365  57.341  1.00  0.00     0.030 A 
HETATM   15  C   UNL     1      30.313  43.271  55.485  1.00  0.00     0.014 A 
HETATM   16  C   UNL     1      31.262  43.159  56.507  1.00  0.00     0.001 A 
HETATM   17  C   UNL     1      31.447  44.193  57.419  1.00  0.00     0.002 A 
ENDBRANCH   6   7
ENDBRANCH   1   5
BRANCH   2  18
HETATM   18  C   UNL     1      25.062  42.136  50.380  1.00  0.00     0.224 C 
BRANCH  18  19
HETATM   19  N   UNL     1      25.708  40.858  50.688  1.00  0.00    -0.380 N 
HETATM   20  H   UNL     1      25.103  40.164  51.128  1.00  0.00     0.160 HD
BRANCH  19  21
HETATM   21  C   UNL     1      26.546  40.274  49.723  1.00  0.00     0.050 A 
HETATM   22  C   UNL     1      27.924  40.098  49.979  1.00  0.00     0.060 A 
HETATM   23 CL   UNL     1      28.583  40.489  51.533  1.00  0.00    -0.082 Cl
HETATM   24  C   UNL     1      28.789  39.579  49.011  1.00  0.00     0.026 A 
HETATM   25  C   UNL     1      28.299  39.242  47.752  1.00  0.00     0.002 A 
HETATM   26  C   UNL     1      26.951  39.432  47.465  1.00  0.00     0.002 A 
HETATM   27  C   UNL     1      26.087  39.950  48.437  1.00  0.00     0.031 A 
ENDBRANCH  19  21
ENDBRANCH  18  19
ENDBRANCH   2  18
TORSDOF 5
ENDMDL
