MODEL 1
REMARK VINA RESULT:      -9.6      0.000      0.000
REMARK  7 active torsions:
REMARK  status: ('A' for Active; 'I' for Inactive)
REMARK    1  A    between atoms: C_2  and  N_3 
REMARK    2  A    between atoms: C_2  and  C_26 
REMARK       I    between atoms: N_3  and  C_4 
REMARK    3  A    between atoms: C_4  and  C_5 
REMARK    4  A    between atoms: C_8  and  C_9 
REMARK       I    between atoms: C_9  and  N_10 
REMARK    5  A    between atoms: N_10  and  C_11 
REMARK    6  A    between atoms: N_20  and  C_21 
REMARK    7  A    between atoms: C_29  and  O_30 
ROOT
HETATM    1  C   UNL     1      25.076  45.007  51.790  1.00  0.00     0.098 A 
HETATM    2  C   UNL     1      24.497  46.113  50.966  1.00  0.00     0.206 A 
HETATM    3  O   UNL     1      24.547  47.283  51.354  1.00  0.00    -0.286 OA
HETATM    4  C   UNL     1      23.836  45.765  49.672  1.00  0.00     0.098 A 
HETATM    5  C   UNL     1      23.908  44.482  49.278  1.00  0.00     0.112 A 
HETATM    6  N   UNL     1      24.560  43.497  49.992  1.00  0.00    -0.360 N 
HETATM    7  C   UNL     1      25.064  43.777  51.246  1.00  0.00     0.112 A 
ENDROOT
BRANCH   1   8
HETATM    8  C   UNL     1      25.628  45.171  53.163  1.00  0.00     0.257 C 
HETATM    9  N   UNL     1      26.692  46.027  53.268  1.00  0.00    -0.348 N 
HETATM   10  H   UNL     1      27.019  46.497  52.427  1.00  0.00     0.163 HD
HETATM   11  O   UNL     1      25.141  44.586  54.127  1.00  0.00    -0.267 OA
BRANCH   9  12
HETATM   12  C   UNL     1      27.262  46.423  54.544  1.00  0.00     0.114 C 
HETATM   13  C   UNL     1      27.710  47.886  54.512  1.00  0.00     0.037 C 
BRANCH  12  14
HETATM   14  C   UNL     1      28.412  45.508  54.923  1.00  0.00    -0.036 A 
HETATM   15  C   UNL     1      29.202  45.806  56.041  1.00  0.00     0.012 A 
HETATM   16  C   UNL     1      30.269  44.977  56.401  1.00  0.00     0.037 A 
HETATM   17  C   UNL     1      30.565  43.833  55.659  1.00  0.00     0.068 A 
HETATM   18  C   UNL     1      29.789  43.529  54.541  1.00  0.00     0.037 A 
HETATM   19  C   UNL     1      28.725  44.361  54.174  1.00  0.00     0.012 A 
BRANCH  17  20
HETATM   20  O   UNL     1      31.629  43.109  56.123  1.00  0.00    -0.356 OA
HETATM   21  C   UNL     1      32.145  43.471  57.397  1.00  0.00     0.210 C 
ENDBRANCH  17  20
ENDBRANCH  12  14
ENDBRANCH   9  12
ENDBRANCH   1   8
BRANCH   4  22
HETATM   22  C   UNL     1      23.097  46.731  48.812  1.00  0.00     0.257 C 
HETATM   23  N   UNL     1      22.542  47.796  49.479  1.00  0.00    -0.352 N 
HETATM   24  H   UNL     1      22.592  47.784  50.498  1.00  0.00     0.163 HD
HETATM   25  O   UNL     1      23.002  46.559  47.601  1.00  0.00    -0.267 OA
BRANCH  23  26
HETATM   26  C   UNL     1      21.664  48.800  48.880  1.00  0.00     0.084 C 
HETATM   27  C   UNL     1      20.185  48.408  48.983  1.00  0.00     0.025 C 
HETATM   28  C   UNL     1      19.214  49.370  48.296  1.00  0.00     0.002 C 
HETATM   29  C   UNL     1      19.058  50.688  49.047  1.00  0.00     0.000 C 
HETATM   30  C   UNL     1      20.079  51.763  48.690  1.00  0.00     0.000 C 
HETATM   31  C   UNL     1      21.522  51.314  48.482  1.00  0.00     0.002 C 
HETATM   32  C   UNL     1      22.002  50.202  49.411  1.00  0.00     0.025 C 
ENDBRANCH  23  26
ENDBRANCH   4  22
BRANCH   6  33
HETATM   33  C   UNL     1      24.507  42.106  49.524  1.00  0.00     0.089 A 
HETATM   34  C   UNL     1      25.492  41.580  48.510  1.00  0.00     0.028 A 
HETATM   35  C   UNL     1      25.548  41.093  49.925  1.00  0.00     0.028 A 
ENDBRANCH   6  33
TORSDOF 7
ENDMDL
MODEL 2
REMARK VINA RESULT:      -9.5      2.277      9.338
REMARK  7 active torsions:
REMARK  status: ('A' for Active; 'I' for Inactive)
REMARK    1  A    between atoms: C_2  and  N_3 
REMARK    2  A    between atoms: C_2  and  C_26 
REMARK       I    between atoms: N_3  and  C_4 
REMARK    3  A    between atoms: C_4  and  C_5 
REMARK    4  A    between atoms: C_8  and  C_9 
REMARK       I    between atoms: C_9  and  N_10 
REMARK    5  A    between atoms: N_10  and  C_11 
REMARK    6  A    between atoms: N_20  and  C_21 
REMARK    7  A    between atoms: C_29  and  O_30 
ROOT
HETATM    1  C   UNL     1      25.877  42.424  50.961  1.00  0.00     0.098 A 
HETATM    2  C   UNL     1      26.837  43.041  51.928  1.00  0.00     0.206 A 
HETATM    3  O   UNL     1      26.540  44.065  52.547  1.00  0.00    -0.286 OA
HETATM    4  C   UNL     1      28.175  42.399  52.110  1.00  0.00     0.098 A 
HETATM    5  C   UNL     1      28.382  41.235  51.470  1.00  0.00     0.112 A 
HETATM    6  N   UNL     1      27.435  40.615  50.681  1.00  0.00    -0.360 N 
HETATM    7  C   UNL     1      26.245  41.257  50.404  1.00  0.00     0.112 A 
ENDROOT
BRANCH   1   8
HETATM    8  C   UNL     1      24.575  43.024  50.558  1.00  0.00     0.257 C 
HETATM    9  N   UNL     1      24.614  43.802  49.431  1.00  0.00    -0.348 N 
HETATM   10  H   UNL     1      25.501  43.905  48.944  1.00  0.00     0.163 HD
HETATM   11  O   UNL     1      23.544  42.813  51.191  1.00  0.00    -0.267 OA
BRANCH   9  12
HETATM   12  C   UNL     1      23.420  44.345  48.807  1.00  0.00     0.114 C 
HETATM   13  C   UNL     1      23.363  43.976  47.323  1.00  0.00     0.037 C 
BRANCH  12  14
HETATM   14  C   UNL     1      23.353  45.849  48.998  1.00  0.00    -0.036 A 
HETATM   15  C   UNL     1      24.324  46.500  49.769  1.00  0.00     0.012 A 
HETATM   16  C   UNL     1      24.273  47.883  49.961  1.00  0.00     0.037 A 
HETATM   17  C   UNL     1      23.259  48.647  49.381  1.00  0.00     0.068 A 
HETATM   18  C   UNL     1      22.283  48.010  48.616  1.00  0.00     0.037 A 
HETATM   19  C   UNL     1      22.327  46.624  48.429  1.00  0.00     0.012 A 
BRANCH  17  20
HETATM   20  O   UNL     1      23.330  49.988  49.642  1.00  0.00    -0.356 OA
HETATM   21  C   UNL     1      22.098  50.692  49.729  1.00  0.00     0.210 C 
ENDBRANCH  17  20
ENDBRANCH  12  14
ENDBRANCH   9  12
ENDBRANCH   1   8
BRANCH   4  22
HETATM   22  C   UNL     1      29.283  42.968  52.927  1.00  0.00     0.257 C 
HETATM   23  N   UNL     1      28.933  43.336  54.203  1.00  0.00    -0.352 N 
HETATM   24  H   UNL     1      27.944  43.287  54.447  1.00  0.00     0.163 HD
HETATM   25  O   UNL     1      30.413  43.093  52.465  1.00  0.00    -0.267 OA
BRANCH  23  26
HETATM   26  C   UNL     1      29.805  44.035  55.147  1.00  0.00     0.084 C 
HETATM   27  C   UNL     1      29.101  45.226  55.807  1.00  0.00     0.025 C 
HETATM   28  C   UNL     1      29.983  46.059  56.740  1.00  0.00     0.002 C 
HETATM   29  C   UNL     1      30.298  45.344  58.049  1.00  0.00     0.000 C 
HETATM   30  C   UNL     1      31.522  44.435  58.013  1.00  0.00     0.000 C 
HETATM   31  C   UNL     1      31.728  43.591  56.759  1.00  0.00     0.002 C 
HETATM   32  C   UNL     1      30.454  43.041  56.123  1.00  0.00     0.025 C 
ENDBRANCH  23  26
ENDBRANCH   4  22
BRANCH   6  33
HETATM   33  C   UNL     1      27.788  39.390  49.952  1.00  0.00     0.089 A 
HETATM   34  C   UNL     1      28.726  39.420  48.773  1.00  0.00     0.028 A 
HETATM   35  C   UNL     1      29.159  38.773  50.053  1.00  0.00     0.028 A 
ENDBRANCH   6  33
TORSDOF 7
ENDMDL
MODEL 3
REMARK VINA RESULT:      -9.4      1.842      9.820
REMARK  7 active torsions:
REMARK  status: ('A' for Active; 'I' for Inactive)
REMARK    1  A    between atoms: C_2  and  N_3 
REMARK    2  A    between atoms: C_2  and  C_26 
REMARK       I    between atoms: N_3  and  C_4 
REMARK    3  A    between atoms: C_4  and  C_5 
REMARK    4  A    between atoms: C_8  and  C_9 
REMARK       I    between atoms: C_9  and  N_10 
REMARK    5  A    between atoms: N_10  and  C_11 
REMARK    6  A    between atoms: N_20  and  C_21 
REMARK    7  A    between atoms: C_29  and  O_30 
ROOT
HETATM    1  C   UNL     1      24.375  46.829  49.971  1.00  0.00     0.098 A 
HETATM    2  C   UNL     1      24.861  46.636  51.373  1.00  0.00     0.206 A 
HETATM    3  O   UNL     1      25.052  47.603  52.114  1.00  0.00    -0.286 OA
HETATM    4  C   UNL     1      25.131  45.244  51.846  1.00  0.00     0.098 A 
HETATM    5  C   UNL     1      24.808  44.244  51.008  1.00  0.00     0.112 A 
HETATM    6  N   UNL     1      24.239  44.438  49.766  1.00  0.00    -0.360 N 
HETATM    7  C   UNL     1      24.101  45.717  49.267  1.00  0.00     0.112 A 
ENDROOT
BRANCH   1   8
HETATM    8  C   UNL     1      24.207  48.151  49.306  1.00  0.00     0.257 C 
HETATM    9  N   UNL     1      22.911  48.564  49.145  1.00  0.00    -0.348 N 
HETATM   10  H   UNL     1      22.165  47.967  49.495  1.00  0.00     0.163 HD
HETATM   11  O   UNL     1      25.173  48.820  48.949  1.00  0.00    -0.267 OA
BRANCH   9  12
HETATM   12  C   UNL     1      22.560  49.886  48.655  1.00  0.00     0.114 C 
HETATM   13  C   UNL     1      23.519  50.945  49.203  1.00  0.00     0.037 C 
BRANCH  12  14
HETATM   14  C   UNL     1      21.121  50.221  49.002  1.00  0.00    -0.036 A 
HETATM   15  C   UNL     1      20.612  51.495  48.718  1.00  0.00     0.012 A 
HETATM   16  C   UNL     1      19.291  51.822  49.037  1.00  0.00     0.037 A 
HETATM   17  C   UNL     1      18.450  50.885  49.638  1.00  0.00     0.068 A 
HETATM   18  C   UNL     1      18.947  49.616  49.932  1.00  0.00     0.037 A 
HETATM   19  C   UNL     1      20.271  49.288  49.620  1.00  0.00     0.012 A 
BRANCH  17  20
HETATM   20  O   UNL     1      17.182  51.333  49.891  1.00  0.00    -0.356 OA
HETATM   21  C   UNL     1      16.983  52.740  49.874  1.00  0.00     0.210 C 
ENDBRANCH  17  20
ENDBRANCH  12  14
ENDBRANCH   9  12
ENDBRANCH   1   8
BRANCH   4  22
HETATM   22  C   UNL     1      25.745  44.901  53.159  1.00  0.00     0.257 C 
HETATM   23  N   UNL     1      27.047  45.309  53.315  1.00  0.00    -0.352 N 
HETATM   24  H   UNL     1      27.510  45.712  52.501  1.00  0.00     0.163 HD
HETATM   25  O   UNL     1      25.112  44.292  54.016  1.00  0.00    -0.267 OA
BRANCH  23  26
HETATM   26  C   UNL     1      27.903  44.977  54.454  1.00  0.00     0.084 C 
HETATM   27  C   UNL     1      28.987  43.958  54.084  1.00  0.00     0.025 C 
HETATM   28  C   UNL     1      29.863  43.496  55.250  1.00  0.00     0.002 C 
HETATM   29  C   UNL     1      30.839  44.570  55.717  1.00  0.00     0.000 C 
HETATM   30  C   UNL     1      30.289  45.537  56.760  1.00  0.00     0.000 C 
HETATM   31  C   UNL     1      28.852  46.015  56.579  1.00  0.00     0.002 C 
HETATM   32  C   UNL     1      28.418  46.255  55.136  1.00  0.00     0.025 C 
ENDBRANCH  23  26
ENDBRANCH   4  22
BRANCH   6  33
HETATM   33  C   UNL     1      24.004  43.285  48.888  1.00  0.00     0.089 A 
HETATM   34  C   UNL     1      22.870  42.324  49.139  1.00  0.00     0.028 A 
HETATM   35  C   UNL     1      22.828  43.231  47.947  1.00  0.00     0.028 A 
ENDBRANCH   6  33
TORSDOF 7
ENDMDL
MODEL 4
REMARK VINA RESULT:      -9.2      2.102      3.012
REMARK  7 active torsions:
REMARK  status: ('A' for Active; 'I' for Inactive)
REMARK    1  A    between atoms: C_2  and  N_3 
REMARK    2  A    between atoms: C_2  and  C_26 
REMARK       I    between atoms: N_3  and  C_4 
REMARK    3  A    between atoms: C_4  and  C_5 
REMARK    4  A    between atoms: C_8  and  C_9 
REMARK       I    between atoms: C_9  and  N_10 
REMARK    5  A    between atoms: N_10  and  C_11 
REMARK    6  A    between atoms: N_20  and  C_21 
REMARK    7  A    between atoms: C_29  and  O_30 
ROOT
HETATM    1  C   UNL     1      25.349  45.617  49.599  1.00  0.00     0.098 A 
HETATM    2  C   UNL     1      24.857  47.022  49.749  1.00  0.00     0.206 A 
HETATM    3  O   UNL     1      25.568  47.889  50.261  1.00  0.00    -0.286 OA
HETATM    4  C   UNL     1      23.472  47.343  49.286  1.00  0.00     0.098 A 
HETATM    5  C   UNL     1      22.800  46.364  48.656  1.00  0.00     0.112 A 
HETATM    6  N   UNL     1      23.322  45.110  48.412  1.00  0.00    -0.360 N 
HETATM    7  C   UNL     1      24.546  44.761  48.943  1.00  0.00     0.112 A 
ENDROOT
BRANCH   1   8
HETATM    8  C   UNL     1      26.637  45.106  50.146  1.00  0.00     0.257 C 
HETATM    9  N   UNL     1      26.526  44.310  51.255  1.00  0.00    -0.348 N 
HETATM   10  H   UNL     1      25.597  44.109  51.616  1.00  0.00     0.163 HD
HETATM   11  O   UNL     1      27.713  45.375  49.618  1.00  0.00    -0.267 OA
BRANCH   9  12
HETATM   12  C   UNL     1      27.657  43.604  51.833  1.00  0.00     0.114 C 
HETATM   13  C   UNL     1      27.357  42.109  51.969  1.00  0.00     0.037 C 
BRANCH  12  14
HETATM   14  C   UNL     1      28.035  44.209  53.173  1.00  0.00    -0.036 A 
HETATM   15  C   UNL     1      27.282  45.265  53.701  1.00  0.00     0.012 A 
HETATM   16  C   UNL     1      27.621  45.837  54.931  1.00  0.00     0.037 A 
HETATM   17  C   UNL     1      28.712  45.364  55.661  1.00  0.00     0.068 A 
HETATM   18  C   UNL     1      29.473  44.317  55.143  1.00  0.00     0.037 A 
HETATM   19  C   UNL     1      29.140  43.747  53.909  1.00  0.00     0.012 A 
BRANCH  17  20
HETATM   20  O   UNL     1      28.929  46.008  56.849  1.00  0.00    -0.356 OA
HETATM   21  C   UNL     1      30.228  45.893  57.413  1.00  0.00     0.210 C 
ENDBRANCH  17  20
ENDBRANCH  12  14
ENDBRANCH   9  12
ENDBRANCH   1   8
BRANCH   4  22
HETATM   22  C   UNL     1      22.793  48.652  49.493  1.00  0.00     0.257 C 
HETATM   23  N   UNL     1      21.421  48.605  49.465  1.00  0.00    -0.352 N 
HETATM   24  H   UNL     1      20.991  47.718  49.208  1.00  0.00     0.163 HD
HETATM   25  O   UNL     1      23.438  49.682  49.667  1.00  0.00    -0.267 OA
BRANCH  23  26
HETATM   26  C   UNL     1      20.537  49.770  49.511  1.00  0.00     0.084 C 
HETATM   27  C   UNL     1      20.836  50.765  48.382  1.00  0.00     0.025 C 
HETATM   28  C   UNL     1      20.009  52.051  48.422  1.00  0.00     0.002 C 
HETATM   29  C   UNL     1      18.553  51.830  48.027  1.00  0.00     0.000 C 
HETATM   30  C   UNL     1      17.626  51.423  49.168  1.00  0.00     0.000 C 
HETATM   31  C   UNL     1      18.170  50.428  50.187  1.00  0.00     0.002 C 
HETATM   32  C   UNL     1      19.068  49.332  49.619  1.00  0.00     0.025 C 
ENDBRANCH  23  26
ENDBRANCH   4  22
BRANCH   6  33
HETATM   33  C   UNL     1      22.476  44.081  47.794  1.00  0.00     0.089 A 
HETATM   34  C   UNL     1      22.837  43.457  46.470  1.00  0.00     0.028 A 
HETATM   35  C   UNL     1      22.906  42.638  47.722  1.00  0.00     0.028 A 
ENDBRANCH   6  33
TORSDOF 7
ENDMDL
MODEL 5
REMARK VINA RESULT:      -9.1      2.129      9.606
REMARK  7 active torsions:
REMARK  status: ('A' for Active; 'I' for Inactive)
REMARK    1  A    between atoms: C_2  and  N_3 
REMARK    2  A    between atoms: C_2  and  C_26 
REMARK       I    between atoms: N_3  and  C_4 
REMARK    3  A    between atoms: C_4  and  C_5 
REMARK    4  A    between atoms: C_8  and  C_9 
REMARK       I    between atoms: C_9  and  N_10 
REMARK    5  A    between atoms: N_10  and  C_11 
REMARK    6  A    between atoms: N_20  and  C_21 
REMARK    7  A    between atoms: C_29  and  O_30 
ROOT
HETATM    1  C   UNL     1      23.060  46.631  48.851  1.00  0.00     0.098 A 
HETATM    2  C   UNL     1      24.224  46.700  49.788  1.00  0.00     0.206 A 
HETATM    3  O   UNL     1      24.696  47.786  50.132  1.00  0.00    -0.286 OA
HETATM    4  C   UNL     1      24.817  45.419  50.280  1.00  0.00     0.098 A 
HETATM    5  C   UNL     1      24.185  44.284  49.933  1.00  0.00     0.112 A 
HETATM    6  N   UNL     1      23.035  44.249  49.172  1.00  0.00    -0.360 N 
HETATM    7  C   UNL     1      22.550  45.411  48.607  1.00  0.00     0.112 A 
ENDROOT
BRANCH   1   8
HETATM    8  C   UNL     1      22.459  47.804  48.158  1.00  0.00     0.257 C 
HETATM    9  N   UNL     1      22.521  48.986  48.847  1.00  0.00    -0.348 N 
HETATM   10  H   UNL     1      22.977  48.993  49.757  1.00  0.00     0.163 HD
HETATM   11  O   UNL     1      21.961  47.706  47.039  1.00  0.00    -0.267 OA
BRANCH   9  12
HETATM   12  C   UNL     1      22.123  50.258  48.269  1.00  0.00     0.114 C 
HETATM   13  C   UNL     1      23.173  51.337  48.542  1.00  0.00     0.037 C 
BRANCH  12  14
HETATM   14  C   UNL     1      20.760  50.678  48.789  1.00  0.00    -0.036 A 
HETATM   15  C   UNL     1      20.092  49.878  49.725  1.00  0.00     0.012 A 
HETATM   16  C   UNL     1      18.834  50.247  50.209  1.00  0.00     0.037 A 
HETATM   17  C   UNL     1      18.221  51.424  49.777  1.00  0.00     0.068 A 
HETATM   18  C   UNL     1      18.873  52.225  48.842  1.00  0.00     0.037 A 
HETATM   19  C   UNL     1      20.129  51.854  48.349  1.00  0.00     0.012 A 
BRANCH  17  20
HETATM   20  O   UNL     1      16.995  51.669  50.334  1.00  0.00    -0.356 OA
HETATM   21  C   UNL     1      16.376  52.906  50.005  1.00  0.00     0.210 C 
ENDBRANCH  17  20
ENDBRANCH  12  14
ENDBRANCH   9  12
ENDBRANCH   1   8
BRANCH   4  22
HETATM   22  C   UNL     1      26.055  45.320  51.102  1.00  0.00     0.257 C 
HETATM   23  N   UNL     1      25.973  45.893  52.347  1.00  0.00    -0.352 N 
HETATM   24  H   UNL     1      25.126  46.418  52.563  1.00  0.00     0.163 HD
HETATM   25  O   UNL     1      27.062  44.767  50.670  1.00  0.00    -0.267 OA
BRANCH  23  26
HETATM   26  C   UNL     1      27.088  46.041  53.282  1.00  0.00     0.084 C 
HETATM   27  C   UNL     1      26.928  47.273  54.180  1.00  0.00     0.025 C 
HETATM   28  C   UNL     1      28.103  47.540  55.122  1.00  0.00     0.002 C 
HETATM   29  C   UNL     1      28.178  46.542  56.273  1.00  0.00     0.000 C 
HETATM   30  C   UNL     1      28.955  45.264  55.972  1.00  0.00     0.000 C 
HETATM   31  C   UNL     1      28.763  44.639  54.595  1.00  0.00     0.002 C 
HETATM   32  C   UNL     1      27.348  44.722  54.028  1.00  0.00     0.025 C 
ENDBRANCH  23  26
ENDBRANCH   4  22
BRANCH   6  33
HETATM   33  C   UNL     1      22.469  42.955  48.771  1.00  0.00     0.089 A 
HETATM   34  C   UNL     1      22.824  42.316  47.453  1.00  0.00     0.028 A 
HETATM   35  C   UNL     1      23.305  41.701  48.732  1.00  0.00     0.028 A 
ENDBRANCH   6  33
TORSDOF 7
ENDMDL
MODEL 6
REMARK VINA RESULT:      -9.0      2.562     10.258
REMARK  7 active torsions:
REMARK  status: ('A' for Active; 'I' for Inactive)
REMARK    1  A    between atoms: C_2  and  N_3 
REMARK    2  A    between atoms: C_2  and  C_26 
REMARK       I    between atoms: N_3  and  C_4 
REMARK    3  A    between atoms: C_4  and  C_5 
REMARK    4  A    between atoms: C_8  and  C_9 
REMARK       I    between atoms: C_9  and  N_10 
REMARK    5  A    between atoms: N_10  and  C_11 
REMARK    6  A    between atoms: N_20  and  C_21 
REMARK    7  A    between atoms: C_29  and  O_30 
ROOT
HETATM    1  C   UNL     1      23.832  47.561  49.394  1.00  0.00     0.098 A 
HETATM    2  C   UNL     1      24.976  46.983  50.166  1.00  0.00     0.206 A 
HETATM    3  O   UNL     1      25.694  47.701  50.865  1.00  0.00    -0.286 OA
HETATM    4  C   UNL     1      25.242  45.517  50.051  1.00  0.00     0.098 A 
HETATM    5  C   UNL     1      24.357  44.792  49.345  1.00  0.00     0.112 A 
HETATM    6  N   UNL     1      23.234  45.325  48.746  1.00  0.00    -0.360 N 
HETATM    7  C   UNL     1      23.044  46.692  48.737  1.00  0.00     0.112 A 
ENDROOT
BRANCH   1   8
HETATM    8  C   UNL     1      23.532  49.016  49.284  1.00  0.00     0.257 C 
HETATM    9  N   UNL     1      22.219  49.358  49.469  1.00  0.00    -0.348 N 
HETATM   10  H   UNL     1      21.551  48.620  49.681  1.00  0.00     0.163 HD
HETATM   11  O   UNL     1      24.414  49.840  49.059  1.00  0.00    -0.267 OA
BRANCH   9  12
HETATM   12  C   UNL     1      21.767  50.736  49.545  1.00  0.00     0.114 C 
HETATM   13  C   UNL     1      21.402  51.114  50.983  1.00  0.00     0.037 C 
BRANCH  12  14
HETATM   14  C   UNL     1      20.597  50.969  48.607  1.00  0.00    -0.036 A 
HETATM   15  C   UNL     1      19.678  51.992  48.875  1.00  0.00     0.012 A 
HETATM   16  C   UNL     1      18.592  52.215  48.025  1.00  0.00     0.037 A 
HETATM   17  C   UNL     1      18.403  51.429  46.887  1.00  0.00     0.068 A 
HETATM   18  C   UNL     1      19.307  50.404  46.613  1.00  0.00     0.037 A 
HETATM   19  C   UNL     1      20.392  50.173  47.467  1.00  0.00     0.012 A 
BRANCH  17  20
HETATM   20  O   UNL     1      17.306  51.758  46.139  1.00  0.00    -0.356 OA
HETATM   21  C   UNL     1      17.398  51.547  44.736  1.00  0.00     0.210 C 
ENDBRANCH  17  20
ENDBRANCH  12  14
ENDBRANCH   9  12
ENDBRANCH   1   8
BRANCH   4  22
HETATM   22  C   UNL     1      26.418  44.821  50.643  1.00  0.00     0.257 C 
HETATM   23  N   UNL     1      26.166  44.148  51.813  1.00  0.00    -0.352 N 
HETATM   24  H   UNL     1      25.241  44.263  52.226  1.00  0.00     0.163 HD
HETATM   25  O   UNL     1      27.521  44.868  50.106  1.00  0.00    -0.267 OA
BRANCH  23  26
HETATM   26  C   UNL     1      27.178  43.503  52.649  1.00  0.00     0.084 C 
HETATM   27  C   UNL     1      28.044  42.521  51.851  1.00  0.00     0.025 C 
HETATM   28  C   UNL     1      29.066  41.742  52.681  1.00  0.00     0.002 C 
HETATM   29  C   UNL     1      30.233  42.607  53.145  1.00  0.00     0.000 C 
HETATM   30  C   UNL     1      30.009  43.345  54.461  1.00  0.00     0.000 C 
HETATM   31  C   UNL     1      28.631  43.955  54.694  1.00  0.00     0.002 C 
HETATM   32  C   UNL     1      27.960  44.550  53.458  1.00  0.00     0.025 C 
ENDBRANCH  23  26
ENDBRANCH   4  22
BRANCH   6  33
HETATM   33  C   UNL     1      22.375  44.466  47.921  1.00  0.00     0.089 A 
HETATM   34  C   UNL     1      22.835  43.946  46.583  1.00  0.00     0.028 A 
HETATM   35  C   UNL     1      22.665  43.000  47.732  1.00  0.00     0.028 A 
ENDBRANCH   6  33
TORSDOF 7
ENDMDL
MODEL 7
REMARK VINA RESULT:      -8.6      3.666     10.032
REMARK  7 active torsions:
REMARK  status: ('A' for Active; 'I' for Inactive)
REMARK    1  A    between atoms: C_2  and  N_3 
REMARK    2  A    between atoms: C_2  and  C_26 
REMARK       I    between atoms: N_3  and  C_4 
REMARK    3  A    between atoms: C_4  and  C_5 
REMARK    4  A    between atoms: C_8  and  C_9 
REMARK       I    between atoms: C_9  and  N_10 
REMARK    5  A    between atoms: N_10  and  C_11 
REMARK    6  A    between atoms: N_20  and  C_21 
REMARK    7  A    between atoms: C_29  and  O_30 
ROOT
HETATM    1  C   UNL     1      26.950  42.543  50.352  1.00  0.00     0.098 A 
HETATM    2  C   UNL     1      27.428  42.631  51.767  1.00  0.00     0.206 A 
HETATM    3  O   UNL     1      27.870  41.637  52.347  1.00  0.00    -0.286 OA
HETATM    4  C   UNL     1      27.333  43.947  52.469  1.00  0.00     0.098 A 
HETATM    5  C   UNL     1      26.927  44.999  51.736  1.00  0.00     0.112 A 
HETATM    6  N   UNL     1      26.614  44.922  50.394  1.00  0.00    -0.360 N 
HETATM    7  C   UNL     1      26.575  43.694  49.767  1.00  0.00     0.112 A 
ENDROOT
BRANCH   1   8
HETATM    8  C   UNL     1      26.837  41.280  49.571  1.00  0.00     0.257 C 
HETATM    9  N   UNL     1      28.028  40.710  49.205  1.00  0.00    -0.348 N 
HETATM   10  H   UNL     1      28.891  41.163  49.496  1.00  0.00     0.163 HD
HETATM   11  O   UNL     1      25.746  40.787  49.298  1.00  0.00    -0.267 OA
BRANCH   9  12
HETATM   12  C   UNL     1      28.115  39.405  48.573  1.00  0.00     0.114 C 
HETATM   13  C   UNL     1      29.345  38.639  49.066  1.00  0.00     0.037 C 
BRANCH  12  14
HETATM   14  C   UNL     1      28.127  39.542  47.061  1.00  0.00    -0.036 A 
HETATM   15  C   UNL     1      28.156  40.815  46.476  1.00  0.00     0.012 A 
HETATM   16  C   UNL     1      28.162  40.960  45.086  1.00  0.00     0.037 A 
HETATM   17  C   UNL     1      28.146  39.841  44.252  1.00  0.00     0.068 A 
HETATM   18  C   UNL     1      28.110  38.569  44.823  1.00  0.00     0.037 A 
HETATM   19  C   UNL     1      28.097  38.422  46.215  1.00  0.00     0.012 A 
BRANCH  17  20
HETATM   20  O   UNL     1      28.160  40.123  42.914  1.00  0.00    -0.356 OA
HETATM   21  C   UNL     1      28.315  41.488  42.547  1.00  0.00     0.210 C 
ENDBRANCH  17  20
ENDBRANCH  12  14
ENDBRANCH   9  12
ENDBRANCH   1   8
BRANCH   4  22
HETATM   22  C   UNL     1      27.636  44.161  53.911  1.00  0.00     0.257 C 
HETATM   23  N   UNL     1      28.964  44.065  54.246  1.00  0.00    -0.352 N 
HETATM   24  H   UNL     1      29.607  43.760  53.516  1.00  0.00     0.163 HD
HETATM   25  O   UNL     1      26.743  44.398  54.719  1.00  0.00    -0.267 OA
BRANCH  23  26
HETATM   26  C   UNL     1      29.495  44.104  55.608  1.00  0.00     0.084 C 
HETATM   27  C   UNL     1      30.743  43.227  55.766  1.00  0.00     0.025 C 
HETATM   28  C   UNL     1      31.300  43.149  57.189  1.00  0.00     0.002 C 
HETATM   29  C   UNL     1      31.983  44.439  57.628  1.00  0.00     0.000 C 
HETATM   30  C   UNL     1      31.060  45.483  58.249  1.00  0.00     0.000 C 
HETATM   31  C   UNL     1      29.689  45.672  57.608  1.00  0.00     0.002 C 
HETATM   32  C   UNL     1      29.656  45.555  56.086  1.00  0.00     0.025 C 
ENDBRANCH  23  26
ENDBRANCH   4  22
BRANCH   6  33
HETATM   33  C   UNL     1      26.096  46.109  49.702  1.00  0.00     0.089 A 
HETATM   34  C   UNL     1      24.897  46.861  50.222  1.00  0.00     0.028 A 
HETATM   35  C   UNL     1      26.253  47.494  50.275  1.00  0.00     0.028 A 
ENDBRANCH   6  33
TORSDOF 7
ENDMDL
MODEL 8
REMARK VINA RESULT:      -8.4      7.504     12.377
REMARK  7 active torsions:
REMARK  status: ('A' for Active; 'I' for Inactive)
REMARK    1  A    between atoms: C_2  and  N_3 
REMARK    2  A    between atoms: C_2  and  C_26 
REMARK       I    between atoms: N_3  and  C_4 
REMARK    3  A    between atoms: C_4  and  C_5 
REMARK    4  A    between atoms: C_8  and  C_9 
REMARK       I    between atoms: C_9  and  N_10 
REMARK    5  A    between atoms: N_10  and  C_11 
REMARK    6  A    between atoms: N_20  and  C_21 
REMARK    7  A    between atoms: C_29  and  O_30 
ROOT
HETATM    1  C   UNL     1      15.825  51.909  48.339  1.00  0.00     0.098 A 
HETATM    2  C   UNL     1      15.520  52.797  49.504  1.00  0.00     0.206 A 
HETATM    3  O   UNL     1      16.018  52.580  50.612  1.00  0.00    -0.286 OA
HETATM    4  C   UNL     1      14.580  53.940  49.299  1.00  0.00     0.098 A 
HETATM    5  C   UNL     1      14.158  54.162  48.043  1.00  0.00     0.112 A 
HETATM    6  N   UNL     1      14.552  53.408  46.957  1.00  0.00    -0.360 N 
HETATM    7  C   UNL     1      15.317  52.275  47.150  1.00  0.00     0.112 A 
ENDROOT
BRANCH   1   8
HETATM    8  C   UNL     1      16.615  50.649  48.417  1.00  0.00     0.257 C 
HETATM    9  N   UNL     1      17.810  50.748  49.079  1.00  0.00    -0.348 N 
HETATM   10  H   UNL     1      18.069  51.646  49.479  1.00  0.00     0.163 HD
HETATM   11  O   UNL     1      16.202  49.598  47.932  1.00  0.00    -0.267 OA
BRANCH   9  12
HETATM   12  C   UNL     1      18.641  49.595  49.381  1.00  0.00     0.114 C 
HETATM   13  C   UNL     1      18.673  49.324  50.887  1.00  0.00     0.037 C 
BRANCH  12  14
HETATM   14  C   UNL     1      20.043  49.787  48.832  1.00  0.00    -0.036 A 
HETATM   15  C   UNL     1      20.715  48.709  48.242  1.00  0.00     0.012 A 
HETATM   16  C   UNL     1      22.009  48.866  47.737  1.00  0.00     0.037 A 
HETATM   17  C   UNL     1      22.654  50.102  47.802  1.00  0.00     0.068 A 
HETATM   18  C   UNL     1      21.997  51.181  48.391  1.00  0.00     0.037 A 
HETATM   19  C   UNL     1      20.705  51.024  48.905  1.00  0.00     0.012 A 
BRANCH  17  20
HETATM   20  O   UNL     1      23.913  50.120  47.266  1.00  0.00    -0.356 OA
HETATM   21  C   UNL     1      24.998  49.947  48.168  1.00  0.00     0.210 C 
ENDBRANCH  17  20
ENDBRANCH  12  14
ENDBRANCH   9  12
ENDBRANCH   1   8
BRANCH   4  22
HETATM   22  C   UNL     1      14.074  54.825  50.386  1.00  0.00     0.257 C 
HETATM   23  N   UNL     1      14.911  55.858  50.730  1.00  0.00    -0.352 N 
HETATM   24  H   UNL     1      15.834  55.874  50.297  1.00  0.00     0.163 HD
HETATM   25  O   UNL     1      12.988  54.618  50.919  1.00  0.00    -0.267 OA
BRANCH  23  26
HETATM   26  C   UNL     1      14.699  56.776  51.849  1.00  0.00     0.084 C 
HETATM   27  C   UNL     1      15.257  56.221  53.164  1.00  0.00     0.025 C 
HETATM   28  C   UNL     1      14.991  57.089  54.395  1.00  0.00     0.002 C 
HETATM   29  C   UNL     1      15.833  58.360  54.415  1.00  0.00     0.000 C 
HETATM   30  C   UNL     1      15.228  59.551  53.678  1.00  0.00     0.000 C 
HETATM   31  C   UNL     1      14.529  59.269  52.353  1.00  0.00     0.002 C 
HETATM   32  C   UNL     1      15.176  58.192  51.486  1.00  0.00     0.025 C 
ENDBRANCH  23  26
ENDBRANCH   4  22
BRANCH   6  33
HETATM   33  C   UNL     1      13.966  53.674  45.637  1.00  0.00     0.089 A 
HETATM   34  C   UNL     1      14.647  54.578  44.642  1.00  0.00     0.028 A 
HETATM   35  C   UNL     1      14.562  53.107  44.375  1.00  0.00     0.028 A 
ENDBRANCH   6  33
TORSDOF 7
ENDMDL
MODEL 9
REMARK VINA RESULT:      -8.1      2.591     10.426
REMARK  7 active torsions:
REMARK  status: ('A' for Active; 'I' for Inactive)
REMARK    1  A    between atoms: C_2  and  N_3 
REMARK    2  A    between atoms: C_2  and  C_26 
REMARK       I    between atoms: N_3  and  C_4 
REMARK    3  A    between atoms: C_4  and  C_5 
REMARK    4  A    between atoms: C_8  and  C_9 
REMARK       I    between atoms: C_9  and  N_10 
REMARK    5  A    between atoms: N_10  and  C_11 
REMARK    6  A    between atoms: N_20  and  C_21 
REMARK    7  A    between atoms: C_29  and  O_30 
ROOT
HETATM    1  C   UNL     1      24.213  45.323  50.221  1.00  0.00     0.098 A 
HETATM    2  C   UNL     1      24.761  44.618  51.421  1.00  0.00     0.206 A 
HETATM    3  O   UNL     1      24.314  43.524  51.770  1.00  0.00    -0.286 OA
HETATM    4  C   UNL     1      25.849  45.285  52.201  1.00  0.00     0.098 A 
HETATM    5  C   UNL     1      26.343  46.430  51.699  1.00  0.00     0.112 A 
HETATM    6  N   UNL     1      25.910  46.999  50.519  1.00  0.00    -0.360 N 
HETATM    7  C   UNL     1      24.824  46.464  49.857  1.00  0.00     0.112 A 
ENDROOT
BRANCH   1   8
HETATM    8  C   UNL     1      23.034  44.867  49.435  1.00  0.00     0.257 C 
HETATM    9  N   UNL     1      22.670  45.684  48.397  1.00  0.00    -0.348 N 
HETATM   10  H   UNL     1      23.224  46.520  48.223  1.00  0.00     0.163 HD
HETATM   11  O   UNL     1      22.449  43.820  49.699  1.00  0.00    -0.267 OA
BRANCH   9  12
HETATM   12  C   UNL     1      21.643  45.326  47.434  1.00  0.00     0.114 C 
HETATM   13  C   UNL     1      22.236  45.177  46.032  1.00  0.00     0.037 C 
BRANCH  12  14
HETATM   14  C   UNL     1      20.520  46.347  47.446  1.00  0.00    -0.036 A 
HETATM   15  C   UNL     1      20.088  46.924  46.245  1.00  0.00     0.012 A 
HETATM   16  C   UNL     1      19.059  47.871  46.238  1.00  0.00     0.037 A 
HETATM   17  C   UNL     1      18.437  48.255  47.427  1.00  0.00     0.068 A 
HETATM   18  C   UNL     1      18.862  47.692  48.629  1.00  0.00     0.037 A 
HETATM   19  C   UNL     1      19.896  46.750  48.639  1.00  0.00     0.012 A 
BRANCH  17  20
HETATM   20  O   UNL     1      17.442  49.183  47.278  1.00  0.00    -0.356 OA
HETATM   21  C   UNL     1      16.943  49.785  48.466  1.00  0.00     0.210 C 
ENDBRANCH  17  20
ENDBRANCH  12  14
ENDBRANCH   9  12
ENDBRANCH   1   8
BRANCH   4  22
HETATM   22  C   UNL     1      26.399  44.778  53.490  1.00  0.00     0.257 C 
HETATM   23  N   UNL     1      27.650  45.245  53.810  1.00  0.00    -0.352 N 
HETATM   24  H   UNL     1      28.132  45.805  53.108  1.00  0.00     0.163 HD
HETATM   25  O   UNL     1      25.761  43.996  54.188  1.00  0.00    -0.267 OA
BRANCH  23  26
HETATM   26  C   UNL     1      28.451  44.794  54.948  1.00  0.00     0.084 C 
HETATM   27  C   UNL     1      29.471  43.723  54.547  1.00  0.00     0.025 C 
HETATM   28  C   UNL     1      30.283  43.140  55.705  1.00  0.00     0.002 C 
HETATM   29  C   UNL     1      31.319  44.116  56.251  1.00  0.00     0.000 C 
HETATM   30  C   UNL     1      30.810  45.063  57.333  1.00  0.00     0.000 C 
HETATM   31  C   UNL     1      29.415  45.650  57.147  1.00  0.00     0.002 C 
HETATM   32  C   UNL     1      29.035  45.995  55.709  1.00  0.00     0.025 C 
ENDBRANCH  23  26
ENDBRANCH   4  22
BRANCH   6  33
HETATM   33  C   UNL     1      26.450  48.298  50.100  1.00  0.00     0.089 A 
HETATM   34  C   UNL     1      27.496  48.404  49.020  1.00  0.00     0.028 A 
HETATM   35  C   UNL     1      26.108  48.907  48.765  1.00  0.00     0.028 A 
ENDBRANCH   6  33
TORSDOF 7
ENDMDL
MODEL 10
REMARK VINA RESULT:      -8.0      2.814     10.601
REMARK  7 active torsions:
REMARK  status: ('A' for Active; 'I' for Inactive)
REMARK    1  A    between atoms: C_2  and  N_3 
REMARK    2  A    between atoms: C_2  and  C_26 
REMARK       I    between atoms: N_3  and  C_4 
REMARK    3  A    between atoms: C_4  and  C_5 
REMARK    4  A    between atoms: C_8  and  C_9 
REMARK       I    between atoms: C_9  and  N_10 
REMARK    5  A    between atoms: N_10  and  C_11 
REMARK    6  A    between atoms: N_20  and  C_21 
REMARK    7  A    between atoms: C_29  and  O_30 
ROOT
HETATM    1  C   UNL     1      22.902  46.606  48.935  1.00  0.00     0.098 A 
HETATM    2  C   UNL     1      23.813  45.514  49.398  1.00  0.00     0.206 A 
HETATM    3  O   UNL     1      23.418  44.348  49.468  1.00  0.00    -0.286 OA
HETATM    4  C   UNL     1      25.208  45.873  49.796  1.00  0.00     0.098 A 
HETATM    5  C   UNL     1      25.587  47.148  49.600  1.00  0.00     0.112 A 
HETATM    6  N   UNL     1      24.769  48.114  49.051  1.00  0.00    -0.360 N 
HETATM    7  C   UNL     1      23.444  47.829  48.797  1.00  0.00     0.112 A 
ENDROOT
BRANCH   1   8
HETATM    8  C   UNL     1      21.450  46.436  48.652  1.00  0.00     0.257 C 
HETATM    9  N   UNL     1      20.735  47.600  48.544  1.00  0.00    -0.348 N 
HETATM   10  H   UNL     1      21.229  48.483  48.646  1.00  0.00     0.163 HD
HETATM   11  O   UNL     1      20.947  45.325  48.509  1.00  0.00    -0.267 OA
BRANCH   9  12
HETATM   12  C   UNL     1      19.344  47.634  48.126  1.00  0.00     0.114 C 
HETATM   13  C   UNL     1      19.229  47.541  46.602  1.00  0.00     0.037 C 
BRANCH  12  14
HETATM   14  C   UNL     1      18.658  48.883  48.649  1.00  0.00    -0.036 A 
HETATM   15  C   UNL     1      17.377  49.220  48.194  1.00  0.00     0.012 A 
HETATM   16  C   UNL     1      16.734  50.370  48.660  1.00  0.00     0.037 A 
HETATM   17  C   UNL     1      17.351  51.202  49.595  1.00  0.00     0.068 A 
HETATM   18  C   UNL     1      18.629  50.881  50.051  1.00  0.00     0.037 A 
HETATM   19  C   UNL     1      19.278  49.734  49.580  1.00  0.00     0.012 A 
BRANCH  17  20
HETATM   20  O   UNL     1      16.610  52.289  49.972  1.00  0.00    -0.356 OA
HETATM   21  C   UNL     1      15.211  52.228  49.727  1.00  0.00     0.210 C 
ENDBRANCH  17  20
ENDBRANCH  12  14
ENDBRANCH   9  12
ENDBRANCH   1   8
BRANCH   4  22
HETATM   22  C   UNL     1      26.185  44.927  50.405  1.00  0.00     0.257 C 
HETATM   23  N   UNL     1      25.799  44.388  51.607  1.00  0.00    -0.352 N 
HETATM   24  H   UNL     1      24.943  44.749  52.026  1.00  0.00     0.163 HD
HETATM   25  O   UNL     1      27.251  44.673  49.852  1.00  0.00    -0.267 OA
BRANCH  23  26
HETATM   26  C   UNL     1      26.636  43.542  52.458  1.00  0.00     0.084 C 
HETATM   27  C   UNL     1      27.099  42.273  51.733  1.00  0.00     0.025 C 
HETATM   28  C   UNL     1      27.904  41.297  52.592  1.00  0.00     0.002 C 
HETATM   29  C   UNL     1      29.311  41.800  52.897  1.00  0.00     0.000 C 
HETATM   30  C   UNL     1      29.428  42.689  54.131  1.00  0.00     0.000 C 
HETATM   31  C   UNL     1      28.320  43.711  54.364  1.00  0.00     0.002 C 
HETATM   32  C   UNL     1      27.760  44.367  53.105  1.00  0.00     0.025 C 
ENDBRANCH  23  26
ENDBRANCH   4  22
BRANCH   6  33
HETATM   33  C   UNL     1      25.245  49.500  48.959  1.00  0.00     0.089 A 
HETATM   34  C   UNL     1      26.084  49.969  47.797  1.00  0.00     0.028 A 
HETATM   35  C   UNL     1      24.680  50.470  47.953  1.00  0.00     0.028 A 
ENDBRANCH   6  33
TORSDOF 7
ENDMDL
