MODEL 1
REMARK VINA RESULT:      -7.9      0.000      0.000
REMARK  6 active torsions:
REMARK  status: ('A' for Active; 'I' for Inactive)
REMARK    1  A    between atoms: C_9  and  C_10 
REMARK    2  A    between atoms: C_12  and  O_13 
REMARK    3  A    between atoms: C_15  and  O_16 
REMARK    4  A    between atoms: O_16  and  C_17 
REMARK    5  A    between atoms: C_17  and  C_18 
REMARK    6  A    between atoms: C_18  and  N_19 
ROOT
HETATM    1  H   UNL     1      30.167  51.997  37.114  1.00  0.00     0.186 HD
HETATM    2  N   UNL     1      29.388  51.606  37.665  1.00  0.00    -0.304 NA
HETATM    3  C   UNL     1      29.614  51.520  38.939  1.00  0.00     0.062 C 
HETATM    4  C   UNL     1      28.519  51.000  39.892  1.00  0.00     0.173 C 
HETATM    5  C   UNL     1      28.021  52.171  40.724  1.00  0.00     0.012 C 
HETATM    6  N   UNL     1      27.608  53.141  41.414  1.00  0.00    -0.099 N 
HETATM    7  C   UNL     1      27.357  50.458  39.147  1.00  0.00     0.090 C 
HETATM    8  N   UNL     1      26.454  49.953  38.621  1.00  0.00    -0.195 NA
HETATM    9  C   UNL     1      29.104  49.887  40.839  1.00  0.00     0.070 C 
HETATM   10  C   UNL     1      30.434  50.342  41.522  1.00  0.00     0.053 C 
HETATM   11  C   UNL     1      31.452  50.858  40.515  1.00  0.00    -0.052 C 
HETATM   12  C   UNL     1      32.747  50.484  40.593  1.00  0.00     0.005 C 
HETATM   13  C   UNL     1      30.979  51.902  39.512  1.00  0.00     0.171 C 
HETATM   14  C   UNL     1      30.960  53.225  40.150  1.00  0.00     0.074 C 
HETATM   15  N   UNL     1      30.989  54.225  40.734  1.00  0.00    -0.196 NA
HETATM   16  C   UNL     1      31.003  49.264  42.485  1.00  0.00     0.244 C 
HETATM   17  N   UNL     1      32.419  49.584  42.898  1.00  0.00    -0.071 N 
HETATM   18  H   UNL     1      32.755  48.790  43.461  1.00  0.00     0.279 HD
HETATM   19  C   UNL     1      32.547  50.781  43.808  1.00  0.00     0.270 C 
HETATM   20  C   UNL     1      33.324  49.647  41.694  1.00  0.00     0.262 C 
ENDROOT
BRANCH   9  21
HETATM   21  C   UNL     1      29.178  48.493  40.187  1.00  0.00    -0.047 A 
HETATM   22  C   UNL     1      28.400  47.404  40.611  1.00  0.00     0.047 A 
HETATM   23  C   UNL     1      28.673  46.106  40.149  1.00  0.00     0.102 A 
HETATM   24  C   UNL     1      29.662  45.876  39.186  1.00  0.00     0.102 A 
HETATM   25  C   UNL     1      30.368  46.968  38.682  1.00  0.00     0.040 A 
HETATM   26  C   UNL     1      30.146  48.255  39.195  1.00  0.00     0.010 A 
BRANCH  23  27
HETATM   27  O   UNL     1      27.969  45.026  40.627  1.00  0.00    -0.353 OA
HETATM   28  C   UNL     1      26.759  45.423  41.282  1.00  0.00     0.210 C 
ENDBRANCH  23  27
BRANCH  24  29
HETATM   29  O   UNL     1      29.872  44.570  38.818  1.00  0.00    -0.347 OA
BRANCH  29  30
HETATM   30  C   UNL     1      29.486  44.210  37.488  1.00  0.00     0.203 C 
BRANCH  30  31
HETATM   31  C   UNL     1      28.785  42.844  37.533  1.00  0.00     0.261 C 
BRANCH  31  32
HETATM   32  N   UNL     1      27.846  42.717  38.719  1.00  0.00    -0.065 N 
HETATM   33  H   UNL     1      27.912  43.612  39.229  1.00  0.00     0.280 HD
HETATM   34  C   UNL     1      26.387  42.510  38.336  1.00  0.00     0.261 C 
HETATM   35  C   UNL     1      25.533  42.355  39.599  1.00  0.00     0.195 C 
HETATM   36  O   UNL     1      26.002  41.269  40.403  1.00  0.00    -0.388 OA
HETATM   37  C   UNL     1      27.344  41.484  40.848  1.00  0.00     0.195 C 
HETATM   38  C   UNL     1      28.303  41.599  39.659  1.00  0.00     0.261 C 
ENDBRANCH  31  32
ENDBRANCH  30  31
ENDBRANCH  29  30
ENDBRANCH  24  29
ENDBRANCH   9  21
TORSDOF 6
ENDMDL
MODEL 2
REMARK VINA RESULT:      -7.8      4.781      9.425
REMARK  6 active torsions:
REMARK  status: ('A' for Active; 'I' for Inactive)
REMARK    1  A    between atoms: C_9  and  C_10 
REMARK    2  A    between atoms: C_12  and  O_13 
REMARK    3  A    between atoms: C_15  and  O_16 
REMARK    4  A    between atoms: O_16  and  C_17 
REMARK    5  A    between atoms: C_17  and  C_18 
REMARK    6  A    between atoms: C_18  and  N_19 
ROOT
HETATM    1  H   UNL     1      28.452  52.357  43.080  1.00  0.00     0.186 HD
HETATM    2  N   UNL     1      29.092  52.729  42.362  1.00  0.00    -0.304 NA
HETATM    3  C   UNL     1      29.235  51.971  41.319  1.00  0.00     0.062 C 
HETATM    4  C   UNL     1      30.123  52.423  40.142  1.00  0.00     0.173 C 
HETATM    5  C   UNL     1      29.217  52.753  38.967  1.00  0.00     0.012 C 
HETATM    6  N   UNL     1      28.467  53.027  37.992  1.00  0.00    -0.099 N 
HETATM    7  C   UNL     1      30.886  53.650  40.473  1.00  0.00     0.090 C 
HETATM    8  N   UNL     1      31.565  54.564  40.699  1.00  0.00    -0.195 NA
HETATM    9  C   UNL     1      31.120  51.274  39.738  1.00  0.00     0.070 C 
HETATM   10  C   UNL     1      30.387  49.907  39.546  1.00  0.00     0.053 C 
HETATM   11  C   UNL     1      29.519  49.545  40.743  1.00  0.00    -0.052 C 
HETATM   12  C   UNL     1      29.531  48.293  41.248  1.00  0.00     0.005 C 
HETATM   13  C   UNL     1      28.553  50.605  41.254  1.00  0.00     0.171 C 
HETATM   14  C   UNL     1      27.352  50.627  40.407  1.00  0.00     0.074 C 
HETATM   15  N   UNL     1      26.443  50.560  39.693  1.00  0.00    -0.196 NA
HETATM   16  C   UNL     1      31.356  48.772  39.114  1.00  0.00     0.244 C 
HETATM   17  N   UNL     1      30.704  47.416  39.226  1.00  0.00    -0.071 N 
HETATM   18  H   UNL     1      31.426  46.716  39.008  1.00  0.00     0.279 HD
HETATM   19  C   UNL     1      29.611  47.166  38.216  1.00  0.00     0.270 C 
HETATM   20  C   UNL     1      30.282  47.143  40.647  1.00  0.00     0.262 C 
ENDROOT
BRANCH   9  21
HETATM   21  C   UNL     1      32.372  51.195  40.633  1.00  0.00    -0.047 A 
HETATM   22  C   UNL     1      32.315  51.183  42.035  1.00  0.00     0.047 A 
HETATM   23  C   UNL     1      33.480  51.352  42.801  1.00  0.00     0.102 A 
HETATM   24  C   UNL     1      34.738  51.440  42.192  1.00  0.00     0.102 A 
HETATM   25  C   UNL     1      34.812  51.346  40.803  1.00  0.00     0.040 A 
HETATM   26  C   UNL     1      33.643  51.251  40.033  1.00  0.00     0.010 A 
BRANCH  23  27
HETATM   27  O   UNL     1      33.417  51.426  44.173  1.00  0.00    -0.353 OA
HETATM   28  C   UNL     1      32.211  52.055  44.620  1.00  0.00     0.210 C 
ENDBRANCH  23  27
BRANCH  24  29
HETATM   29  O   UNL     1      35.813  51.630  43.024  1.00  0.00    -0.347 OA
BRANCH  29  30
HETATM   30  C   UNL     1      36.732  52.663  42.656  1.00  0.00     0.203 C 
BRANCH  30  31
HETATM   31  C   UNL     1      38.087  52.374  43.317  1.00  0.00     0.261 C 
BRANCH  31  32
HETATM   32  N   UNL     1      38.470  53.434  44.334  1.00  0.00    -0.065 N 
HETATM   33  H   UNL     1      39.501  53.421  44.382  1.00  0.00     0.280 HD
HETATM   34  C   UNL     1      38.044  54.845  43.948  1.00  0.00     0.261 C 
HETATM   35  C   UNL     1      38.441  55.829  45.054  1.00  0.00     0.195 C 
HETATM   36  O   UNL     1      37.862  55.453  46.306  1.00  0.00    -0.388 OA
HETATM   37  C   UNL     1      38.318  54.165  46.731  1.00  0.00     0.195 C 
HETATM   38  C   UNL     1      37.924  53.085  45.720  1.00  0.00     0.261 C 
ENDBRANCH  31  32
ENDBRANCH  30  31
ENDBRANCH  29  30
ENDBRANCH  24  29
ENDBRANCH   9  21
TORSDOF 6
ENDMDL
MODEL 3
REMARK VINA RESULT:      -7.8      2.180      4.831
REMARK  6 active torsions:
REMARK  status: ('A' for Active; 'I' for Inactive)
REMARK    1  A    between atoms: C_9  and  C_10 
REMARK    2  A    between atoms: C_12  and  O_13 
REMARK    3  A    between atoms: C_15  and  O_16 
REMARK    4  A    between atoms: O_16  and  C_17 
REMARK    5  A    between atoms: C_17  and  C_18 
REMARK    6  A    between atoms: C_18  and  N_19 
ROOT
HETATM    1  H   UNL     1      31.054  49.951  44.124  1.00  0.00     0.186 HD
HETATM    2  N   UNL     1      31.500  49.450  43.341  1.00  0.00    -0.304 NA
HETATM    3  C   UNL     1      31.264  49.955  42.169  1.00  0.00     0.062 C 
HETATM    4  C   UNL     1      31.906  49.337  40.911  1.00  0.00     0.173 C 
HETATM    5  C   UNL     1      32.958  50.305  40.393  1.00  0.00     0.012 C 
HETATM    6  N   UNL     1      33.831  51.107  39.965  1.00  0.00    -0.099 N 
HETATM    7  C   UNL     1      32.591  48.058  41.217  1.00  0.00     0.090 C 
HETATM    8  N   UNL     1      33.078  47.017  41.380  1.00  0.00    -0.195 NA
HETATM    9  C   UNL     1      30.814  49.099  39.802  1.00  0.00     0.070 C 
HETATM   10  C   UNL     1      29.941  50.372  39.560  1.00  0.00     0.053 C 
HETATM   11  C   UNL     1      29.362  50.928  40.853  1.00  0.00    -0.052 C 
HETATM   12  C   UNL     1      28.070  51.315  40.918  1.00  0.00     0.005 C 
HETATM   13  C   UNL     1      30.322  51.148  42.015  1.00  0.00     0.171 C 
HETATM   14  C   UNL     1      31.053  52.407  41.817  1.00  0.00     0.074 C 
HETATM   15  N   UNL     1      31.568  53.417  41.581  1.00  0.00    -0.196 NA
HETATM   16  C   UNL     1      28.882  50.159  38.445  1.00  0.00     0.244 C 
HETATM   17  N   UNL     1      27.862  51.272  38.430  1.00  0.00    -0.071 N 
HETATM   18  H   UNL     1      27.152  51.020  37.729  1.00  0.00     0.279 HD
HETATM   19  C   UNL     1      28.402  52.604  37.969  1.00  0.00     0.270 C 
HETATM   20  C   UNL     1      27.133  51.344  39.748  1.00  0.00     0.262 C 
ENDROOT
BRANCH   9  21
HETATM   21  C   UNL     1      29.999  47.807  40.002  1.00  0.00    -0.047 A 
HETATM   22  C   UNL     1      30.186  46.652  39.227  1.00  0.00     0.047 A 
HETATM   23  C   UNL     1      29.266  45.593  39.285  1.00  0.00     0.102 A 
HETATM   24  C   UNL     1      28.193  45.618  40.183  1.00  0.00     0.102 A 
HETATM   25  C   UNL     1      28.061  46.716  41.032  1.00  0.00     0.040 A 
HETATM   26  C   UNL     1      28.936  47.807  40.924  1.00  0.00     0.010 A 
BRANCH  23  27
HETATM   27  O   UNL     1      29.400  44.497  38.465  1.00  0.00    -0.353 OA
HETATM   28  C   UNL     1      29.501  44.870  37.086  1.00  0.00     0.210 C 
ENDBRANCH  23  27
BRANCH  24  29
HETATM   29  O   UNL     1      27.334  44.547  40.146  1.00  0.00    -0.347 OA
BRANCH  29  30
HETATM   30  C   UNL     1      25.962  44.838  39.861  1.00  0.00     0.203 C 
BRANCH  30  31
HETATM   31  C   UNL     1      25.780  44.898  38.337  1.00  0.00     0.261 C 
BRANCH  31  32
HETATM   32  N   UNL     1      25.306  46.261  37.867  1.00  0.00    -0.065 N 
HETATM   33  H   UNL     1      24.497  46.082  37.250  1.00  0.00     0.280 HD
HETATM   34  C   UNL     1      24.836  47.176  38.990  1.00  0.00     0.261 C 
HETATM   35  C   UNL     1      24.417  48.534  38.416  1.00  0.00     0.195 C 
HETATM   36  O   UNL     1      25.493  49.136  37.691  1.00  0.00    -0.388 OA
HETATM   37  C   UNL     1      25.893  48.334  36.577  1.00  0.00     0.195 C 
HETATM   38  C   UNL     1      26.388  46.961  37.041  1.00  0.00     0.261 C 
ENDBRANCH  31  32
ENDBRANCH  30  31
ENDBRANCH  29  30
ENDBRANCH  24  29
ENDBRANCH   9  21
TORSDOF 6
ENDMDL
MODEL 4
REMARK VINA RESULT:      -7.7     11.094     13.761
REMARK  6 active torsions:
REMARK  status: ('A' for Active; 'I' for Inactive)
REMARK    1  A    between atoms: C_9  and  C_10 
REMARK    2  A    between atoms: C_12  and  O_13 
REMARK    3  A    between atoms: C_15  and  O_16 
REMARK    4  A    between atoms: O_16  and  C_17 
REMARK    5  A    between atoms: C_17  and  C_18 
REMARK    6  A    between atoms: C_18  and  N_19 
ROOT
HETATM    1  H   UNL     1      17.093  46.403  48.909  1.00  0.00     0.186 HD
HETATM    2  N   UNL     1      17.417  47.340  49.192  1.00  0.00    -0.304 NA
HETATM    3  C   UNL     1      17.259  48.263  48.295  1.00  0.00     0.062 C 
HETATM    4  C   UNL     1      17.654  49.722  48.599  1.00  0.00     0.173 C 
HETATM    5  C   UNL     1      16.379  50.541  48.725  1.00  0.00     0.012 C 
HETATM    6  N   UNL     1      15.322  51.220  48.829  1.00  0.00    -0.099 N 
HETATM    7  C   UNL     1      18.382  49.835  49.886  1.00  0.00     0.090 C 
HETATM    8  N   UNL     1      19.022  49.976  50.845  1.00  0.00    -0.195 NA
HETATM    9  C   UNL     1      18.544  50.300  47.437  1.00  0.00     0.070 C 
HETATM   10  C   UNL     1      17.902  50.052  46.033  1.00  0.00     0.053 C 
HETATM   11  C   UNL     1      17.525  48.593  45.822  1.00  0.00    -0.052 C 
HETATM   12  C   UNL     1      17.809  47.971  44.658  1.00  0.00     0.005 C 
HETATM   13  C   UNL     1      16.708  47.914  46.913  1.00  0.00     0.171 C 
HETATM   14  C   UNL     1      15.293  48.286  46.772  1.00  0.00     0.074 C 
HETATM   15  N   UNL     1      14.204  48.626  46.573  1.00  0.00    -0.196 NA
HETATM   16  C   UNL     1      18.755  50.648  44.880  1.00  0.00     0.244 C 
HETATM   17  N   UNL     1      18.292  50.147  43.534  1.00  0.00    -0.071 N 
HETATM   18  H   UNL     1      18.951  50.513  42.834  1.00  0.00     0.279 HD
HETATM   19  C   UNL     1      16.944  50.674  43.104  1.00  0.00     0.270 C 
HETATM   20  C   UNL     1      18.401  48.646  43.457  1.00  0.00     0.262 C 
ENDROOT
BRANCH   9  21
HETATM   21  C   UNL     1      20.027  49.895  47.530  1.00  0.00    -0.047 A 
HETATM   22  C   UNL     1      20.483  48.589  47.294  1.00  0.00     0.047 A 
HETATM   23  C   UNL     1      21.798  48.218  47.622  1.00  0.00     0.102 A 
HETATM   24  C   UNL     1      22.714  49.161  48.103  1.00  0.00     0.102 A 
HETATM   25  C   UNL     1      22.297  50.484  48.241  1.00  0.00     0.040 A 
HETATM   26  C   UNL     1      20.965  50.841  47.982  1.00  0.00     0.010 A 
BRANCH  23  27
HETATM   27  O   UNL     1      22.222  46.919  47.472  1.00  0.00    -0.353 OA
HETATM   28  C   UNL     1      21.438  46.006  48.248  1.00  0.00     0.210 C 
ENDBRANCH  23  27
BRANCH  24  29
HETATM   29  O   UNL     1      23.966  48.696  48.420  1.00  0.00    -0.347 OA
BRANCH  29  30
HETATM   30  C   UNL     1      24.170  48.282  49.775  1.00  0.00     0.203 C 
BRANCH  30  31
HETATM   31  C   UNL     1      25.584  47.694  49.900  1.00  0.00     0.261 C 
BRANCH  31  32
HETATM   32  N   UNL     1      25.608  46.425  50.733  1.00  0.00    -0.065 N 
HETATM   33  H   UNL     1      26.517  45.977  50.539  1.00  0.00     0.280 HD
HETATM   34  C   UNL     1      25.523  46.667  52.234  1.00  0.00     0.261 C 
HETATM   35  C   UNL     1      25.515  45.327  52.978  1.00  0.00     0.195 C 
HETATM   36  O   UNL     1      24.431  44.504  52.538  1.00  0.00    -0.388 OA
HETATM   37  C   UNL     1      24.537  44.191  51.146  1.00  0.00     0.195 C 
HETATM   38  C   UNL     1      24.500  45.464  50.296  1.00  0.00     0.261 C 
ENDBRANCH  31  32
ENDBRANCH  30  31
ENDBRANCH  29  30
ENDBRANCH  24  29
ENDBRANCH   9  21
TORSDOF 6
ENDMDL
MODEL 5
REMARK VINA RESULT:      -7.5     10.121     12.712
REMARK  6 active torsions:
REMARK  status: ('A' for Active; 'I' for Inactive)
REMARK    1  A    between atoms: C_9  and  C_10 
REMARK    2  A    between atoms: C_12  and  O_13 
REMARK    3  A    between atoms: C_15  and  O_16 
REMARK    4  A    between atoms: O_16  and  C_17 
REMARK    5  A    between atoms: C_17  and  C_18 
REMARK    6  A    between atoms: C_18  and  N_19 
ROOT
HETATM    1  H   UNL     1      24.392  43.869  54.932  1.00  0.00     0.186 HD
HETATM    2  N   UNL     1      25.272  43.463  54.581  1.00  0.00    -0.304 NA
HETATM    3  C   UNL     1      25.967  44.251  53.819  1.00  0.00     0.062 C 
HETATM    4  C   UNL     1      27.329  43.794  53.262  1.00  0.00     0.173 C 
HETATM    5  C   UNL     1      28.418  44.587  53.966  1.00  0.00     0.012 C 
HETATM    6  N   UNL     1      29.322  45.245  54.549  1.00  0.00    -0.099 N 
HETATM    7  C   UNL     1      27.580  42.358  53.536  1.00  0.00     0.090 C 
HETATM    8  N   UNL     1      27.798  41.224  53.654  1.00  0.00    -0.195 NA
HETATM    9  C   UNL     1      27.400  44.055  51.711  1.00  0.00     0.070 C 
HETATM   10  C   UNL     1      26.975  45.514  51.346  1.00  0.00     0.053 C 
HETATM   11  C   UNL     1      25.630  45.891  51.951  1.00  0.00    -0.052 C 
HETATM   12  C   UNL     1      24.701  46.537  51.213  1.00  0.00     0.005 C 
HETATM   13  C   UNL     1      25.431  45.630  53.438  1.00  0.00     0.171 C 
HETATM   14  C   UNL     1      26.066  46.704  54.215  1.00  0.00     0.074 C 
HETATM   15  N   UNL     1      26.583  47.598  54.739  1.00  0.00    -0.196 NA
HETATM   16  C   UNL     1      27.073  45.795  49.822  1.00  0.00     0.244 C 
HETATM   17  N   UNL     1      26.383  47.085  49.452  1.00  0.00    -0.071 N 
HETATM   18  H   UNL     1      26.415  47.159  48.426  1.00  0.00     0.279 HD
HETATM   19  C   UNL     1      27.080  48.328  49.948  1.00  0.00     0.270 C 
HETATM   20  C   UNL     1      24.921  47.031  49.815  1.00  0.00     0.262 C 
ENDROOT
BRANCH   9  21
HETATM   21  C   UNL     1      26.707  42.969  50.866  1.00  0.00    -0.047 A 
HETATM   22  C   UNL     1      27.389  42.161  49.944  1.00  0.00     0.047 A 
HETATM   23  C   UNL     1      26.682  41.359  49.033  1.00  0.00     0.102 A 
HETATM   24  C   UNL     1      25.286  41.271  49.082  1.00  0.00     0.102 A 
HETATM   25  C   UNL     1      24.608  41.990  50.066  1.00  0.00     0.040 A 
HETATM   26  C   UNL     1      25.306  42.848  50.929  1.00  0.00     0.010 A 
BRANCH  23  27
HETATM   27  O   UNL     1      27.345  40.632  48.072  1.00  0.00    -0.353 OA
HETATM   28  C   UNL     1      28.609  40.151  48.543  1.00  0.00     0.210 C 
ENDBRANCH  23  27
BRANCH  24  29
HETATM   29  O   UNL     1      24.685  40.481  48.134  1.00  0.00    -0.347 OA
BRANCH  29  30
HETATM   30  C   UNL     1      23.487  40.994  47.540  1.00  0.00     0.203 C 
BRANCH  30  31
HETATM   31  C   UNL     1      23.874  42.008  46.454  1.00  0.00     0.261 C 
BRANCH  31  32
HETATM   32  N   UNL     1      22.915  43.183  46.397  1.00  0.00    -0.065 N 
HETATM   33  H   UNL     1      21.973  42.788  46.545  1.00  0.00     0.280 HD
HETATM   34  C   UNL     1      23.151  44.230  47.479  1.00  0.00     0.261 C 
HETATM   35  C   UNL     1      22.161  45.387  47.309  1.00  0.00     0.195 C 
HETATM   36  O   UNL     1      22.276  45.972  46.008  1.00  0.00    -0.388 OA
HETATM   37  C   UNL     1      21.972  45.028  44.978  1.00  0.00     0.195 C 
HETATM   38  C   UNL     1      22.942  43.844  45.017  1.00  0.00     0.261 C 
ENDBRANCH  31  32
ENDBRANCH  30  31
ENDBRANCH  29  30
ENDBRANCH  24  29
ENDBRANCH   9  21
TORSDOF 6
ENDMDL
MODEL 6
REMARK VINA RESULT:      -7.4     10.947     13.866
REMARK  6 active torsions:
REMARK  status: ('A' for Active; 'I' for Inactive)
REMARK    1  A    between atoms: C_9  and  C_10 
REMARK    2  A    between atoms: C_12  and  O_13 
REMARK    3  A    between atoms: C_15  and  O_16 
REMARK    4  A    between atoms: O_16  and  C_17 
REMARK    5  A    between atoms: C_17  and  C_18 
REMARK    6  A    between atoms: C_18  and  N_19 
ROOT
HETATM    1  H   UNL     1      18.174  47.616  51.630  1.00  0.00     0.186 HD
HETATM    2  N   UNL     1      18.730  48.353  51.172  1.00  0.00    -0.304 NA
HETATM    3  C   UNL     1      18.777  48.272  49.878  1.00  0.00     0.062 C 
HETATM    4  C   UNL     1      19.531  49.336  49.056  1.00  0.00     0.173 C 
HETATM    5  C   UNL     1      18.504  50.174  48.312  1.00  0.00     0.012 C 
HETATM    6  N   UNL     1      17.653  50.870  47.695  1.00  0.00    -0.099 N 
HETATM    7  C   UNL     1      20.305  50.253  49.927  1.00  0.00     0.090 C 
HETATM    8  N   UNL     1      20.990  50.954  50.550  1.00  0.00    -0.195 NA
HETATM    9  C   UNL     1      20.499  48.644  48.025  1.00  0.00     0.070 C 
HETATM   10  C   UNL     1      19.772  47.539  47.194  1.00  0.00     0.053 C 
HETATM   11  C   UNL     1      19.037  46.542  48.079  1.00  0.00    -0.052 C 
HETATM   12  C   UNL     1      19.121  45.216  47.838  1.00  0.00     0.005 C 
HETATM   13  C   UNL     1      18.112  47.103  49.151  1.00  0.00     0.171 C 
HETATM   14  C   UNL     1      16.831  47.487  48.543  1.00  0.00     0.074 C 
HETATM   15  N   UNL     1      15.854  47.746  47.977  1.00  0.00    -0.196 NA
HETATM   16  C   UNL     1      20.709  46.872  46.150  1.00  0.00     0.244 C 
HETATM   17  N   UNL     1      20.092  45.620  45.574  1.00  0.00    -0.071 N 
HETATM   18  H   UNL     1      20.799  45.192  44.960  1.00  0.00     0.279 HD
HETATM   19  C   UNL     1      18.905  45.868  44.676  1.00  0.00     0.270 C 
HETATM   20  C   UNL     1      19.823  44.610  46.660  1.00  0.00     0.262 C 
ENDROOT
BRANCH   9  21
HETATM   21  C   UNL     1      21.838  48.191  48.638  1.00  0.00    -0.047 A 
HETATM   22  C   UNL     1      22.948  49.038  48.772  1.00  0.00     0.047 A 
HETATM   23  C   UNL     1      24.208  48.520  49.112  1.00  0.00     0.102 A 
HETATM   24  C   UNL     1      24.372  47.164  49.418  1.00  0.00     0.102 A 
HETATM   25  C   UNL     1      23.251  46.335  49.389  1.00  0.00     0.040 A 
HETATM   26  C   UNL     1      22.006  46.836  48.980  1.00  0.00     0.010 A 
BRANCH  23  27
HETATM   27  O   UNL     1      25.315  49.334  49.161  1.00  0.00    -0.353 OA
HETATM   28  C   UNL     1      25.542  50.005  47.916  1.00  0.00     0.210 C 
ENDBRANCH  23  27
BRANCH  24  29
HETATM   29  O   UNL     1      25.647  46.748  49.713  1.00  0.00    -0.347 OA
BRANCH  29  30
HETATM   30  C   UNL     1      25.804  45.957  50.895  1.00  0.00     0.203 C 
BRANCH  30  31
HETATM   31  C   UNL     1      25.593  46.858  52.120  1.00  0.00     0.261 C 
BRANCH  31  32
HETATM   32  N   UNL     1      26.213  46.276  53.377  1.00  0.00    -0.065 N 
HETATM   33  H   UNL     1      25.423  45.998  53.980  1.00  0.00     0.280 HD
HETATM   34  C   UNL     1      27.065  45.037  53.132  1.00  0.00     0.261 C 
HETATM   35  C   UNL     1      27.674  44.554  54.453  1.00  0.00     0.195 C 
HETATM   36  O   UNL     1      28.451  45.587  55.066  1.00  0.00    -0.388 OA
HETATM   37  C   UNL     1      27.651  46.728  55.386  1.00  0.00     0.195 C 
HETATM   38  C   UNL     1      27.031  47.333  54.123  1.00  0.00     0.261 C 
ENDBRANCH  31  32
ENDBRANCH  30  31
ENDBRANCH  29  30
ENDBRANCH  24  29
ENDBRANCH   9  21
TORSDOF 6
ENDMDL
MODEL 7
REMARK VINA RESULT:      -7.3     14.483     17.633
REMARK  6 active torsions:
REMARK  status: ('A' for Active; 'I' for Inactive)
REMARK    1  A    between atoms: C_9  and  C_10 
REMARK    2  A    between atoms: C_12  and  O_13 
REMARK    3  A    between atoms: C_15  and  O_16 
REMARK    4  A    between atoms: O_16  and  C_17 
REMARK    5  A    between atoms: C_17  and  C_18 
REMARK    6  A    between atoms: C_18  and  N_19 
ROOT
HETATM    1  H   UNL     1      16.160  46.751  49.832  1.00  0.00     0.186 HD
HETATM    2  N   UNL     1      16.018  47.180  48.906  1.00  0.00    -0.304 NA
HETATM    3  C   UNL     1      17.056  47.795  48.428  1.00  0.00     0.062 C 
HETATM    4  C   UNL     1      17.004  48.440  47.028  1.00  0.00     0.173 C 
HETATM    5  C   UNL     1      17.878  47.617  46.096  1.00  0.00     0.012 C 
HETATM    6  N   UNL     1      18.602  46.935  45.322  1.00  0.00    -0.099 N 
HETATM    7  C   UNL     1      15.629  48.431  46.472  1.00  0.00     0.090 C 
HETATM    8  N   UNL     1      14.565  48.520  46.017  1.00  0.00    -0.195 NA
HETATM    9  C   UNL     1      17.538  49.919  47.089  1.00  0.00     0.070 C 
HETATM   10  C   UNL     1      18.913  50.012  47.826  1.00  0.00     0.053 C 
HETATM   11  C   UNL     1      18.884  49.336  49.189  1.00  0.00    -0.052 C 
HETATM   12  C   UNL     1      19.434  49.936  50.267  1.00  0.00     0.005 C 
HETATM   13  C   UNL     1      18.334  47.917  49.257  1.00  0.00     0.171 C 
HETATM   14  C   UNL     1      19.367  46.967  48.823  1.00  0.00     0.074 C 
HETATM   15  N   UNL     1      20.247  46.297  48.478  1.00  0.00    -0.196 NA
HETATM   16  C   UNL     1      19.467  51.463  47.863  1.00  0.00     0.244 C 
HETATM   17  N   UNL     1      20.624  51.589  48.824  1.00  0.00    -0.071 N 
HETATM   18  H   UNL     1      20.880  52.585  48.858  1.00  0.00     0.279 HD
HETATM   19  C   UNL     1      21.883  50.885  48.378  1.00  0.00     0.270 C 
HETATM   20  C   UNL     1      20.197  51.225  50.223  1.00  0.00     0.262 C 
ENDROOT
BRANCH   9  21
HETATM   21  C   UNL     1      16.492  50.938  47.581  1.00  0.00    -0.047 A 
HETATM   22  C   UNL     1      15.853  51.854  46.732  1.00  0.00     0.047 A 
HETATM   23  C   UNL     1      15.094  52.911  47.260  1.00  0.00     0.102 A 
HETATM   24  C   UNL     1      14.875  53.025  48.638  1.00  0.00     0.102 A 
HETATM   25  C   UNL     1      15.420  52.057  49.480  1.00  0.00     0.040 A 
HETATM   26  C   UNL     1      16.239  51.042  48.961  1.00  0.00     0.010 A 
BRANCH  23  27
HETATM   27  O   UNL     1      14.536  53.859  46.434  1.00  0.00    -0.353 OA
HETATM   28  C   UNL     1      15.019  53.749  45.091  1.00  0.00     0.210 C 
ENDBRANCH  23  27
BRANCH  24  29
HETATM   29  O   UNL     1      14.142  54.107  49.058  1.00  0.00    -0.347 OA
BRANCH  29  30
HETATM   30  C   UNL     1      14.241  54.447  50.444  1.00  0.00     0.203 C 
BRANCH  30  31
HETATM   31  C   UNL     1      15.224  55.617  50.593  1.00  0.00     0.261 C 
BRANCH  31  32
HETATM   32  N   UNL     1      14.802  56.589  51.680  1.00  0.00    -0.065 N 
HETATM   33  H   UNL     1      13.770  56.582  51.681  1.00  0.00     0.280 HD
HETATM   34  C   UNL     1      15.268  56.198  53.077  1.00  0.00     0.261 C 
HETATM   35  C   UNL     1      14.826  57.260  54.089  1.00  0.00     0.195 C 
HETATM   36  O   UNL     1      15.332  58.549  53.732  1.00  0.00    -0.388 OA
HETATM   37  C   UNL     1      14.836  58.976  52.460  1.00  0.00     0.195 C 
HETATM   38  C   UNL     1      15.268  58.010  51.353  1.00  0.00     0.261 C 
ENDBRANCH  31  32
ENDBRANCH  30  31
ENDBRANCH  29  30
ENDBRANCH  24  29
ENDBRANCH   9  21
TORSDOF 6
ENDMDL
MODEL 8
REMARK VINA RESULT:      -7.1     10.242     12.858
REMARK  6 active torsions:
REMARK  status: ('A' for Active; 'I' for Inactive)
REMARK    1  A    between atoms: C_9  and  C_10 
REMARK    2  A    between atoms: C_12  and  O_13 
REMARK    3  A    between atoms: C_15  and  O_16 
REMARK    4  A    between atoms: O_16  and  C_17 
REMARK    5  A    between atoms: C_17  and  C_18 
REMARK    6  A    between atoms: C_18  and  N_19 
ROOT
HETATM    1  H   UNL     1      24.746  43.367  55.278  1.00  0.00     0.186 HD
HETATM    2  N   UNL     1      25.700  43.125  54.970  1.00  0.00    -0.304 NA
HETATM    3  C   UNL     1      26.237  43.973  54.149  1.00  0.00     0.062 C 
HETATM    4  C   UNL     1      27.679  43.764  53.645  1.00  0.00     0.173 C 
HETATM    5  C   UNL     1      28.563  44.822  54.286  1.00  0.00     0.012 C 
HETATM    6  N   UNL     1      29.296  45.699  54.818  1.00  0.00    -0.099 N 
HETATM    7  C   UNL     1      28.212  42.439  54.044  1.00  0.00     0.090 C 
HETATM    8  N   UNL     1      28.656  41.389  54.262  1.00  0.00    -0.195 NA
HETATM    9  C   UNL     1      27.734  43.905  52.078  1.00  0.00     0.070 C 
HETATM   10  C   UNL     1      27.028  45.209  51.584  1.00  0.00     0.053 C 
HETATM   11  C   UNL     1      25.619  45.348  52.143  1.00  0.00    -0.052 C 
HETATM   12  C   UNL     1      24.597  45.723  51.345  1.00  0.00     0.005 C 
HETATM   13  C   UNL     1      25.439  45.176  53.645  1.00  0.00     0.171 C 
HETATM   14  C   UNL     1      25.819  46.418  54.332  1.00  0.00     0.074 C 
HETATM   15  N   UNL     1      26.128  47.440  54.781  1.00  0.00    -0.196 NA
HETATM   16  C   UNL     1      27.106  45.376  50.042  1.00  0.00     0.244 C 
HETATM   17  N   UNL     1      26.175  46.460  49.556  1.00  0.00    -0.071 N 
HETATM   18  H   UNL     1      26.217  46.453  48.528  1.00  0.00     0.279 HD
HETATM   19  C   UNL     1      26.588  47.857  49.949  1.00  0.00     0.270 C 
HETATM   20  C   UNL     1      24.746  46.134  49.911  1.00  0.00     0.262 C 
ENDROOT
BRANCH   9  21
HETATM   21  C   UNL     1      27.302  42.633  51.324  1.00  0.00    -0.047 A 
HETATM   22  C   UNL     1      28.213  41.718  50.774  1.00  0.00     0.047 A 
HETATM   23  C   UNL     1      27.776  40.711  49.898  1.00  0.00     0.102 A 
HETATM   24  C   UNL     1      26.415  40.532  49.626  1.00  0.00     0.102 A 
HETATM   25  C   UNL     1      25.495  41.371  50.252  1.00  0.00     0.040 A 
HETATM   26  C   UNL     1      25.934  42.423  51.070  1.00  0.00     0.010 A 
BRANCH  23  27
HETATM   27  O   UNL     1      28.676  39.866  49.291  1.00  0.00    -0.353 OA
HETATM   28  C   UNL     1      29.074  38.796  50.156  1.00  0.00     0.210 C 
ENDBRANCH  23  27
BRANCH  24  29
HETATM   29  O   UNL     1      26.091  39.537  48.737  1.00  0.00    -0.347 OA
BRANCH  29  30
HETATM   30  C   UNL     1      25.332  39.928  47.588  1.00  0.00     0.203 C 
BRANCH  30  31
HETATM   31  C   UNL     1      26.260  40.674  46.618  1.00  0.00     0.261 C 
BRANCH  31  32
HETATM   32  N   UNL     1      26.782  39.774  45.513  1.00  0.00    -0.065 N 
HETATM   33  H   UNL     1      27.017  40.399  44.726  1.00  0.00     0.280 HD
HETATM   34  C   UNL     1      28.042  39.004  45.884  1.00  0.00     0.261 C 
HETATM   35  C   UNL     1      28.462  38.099  44.720  1.00  0.00     0.195 C 
HETATM   36  O   UNL     1      27.408  37.200  44.366  1.00  0.00    -0.388 OA
HETATM   37  C   UNL     1      26.241  37.902  43.929  1.00  0.00     0.195 C 
HETATM   38  C   UNL     1      25.697  38.803  45.041  1.00  0.00     0.261 C 
ENDBRANCH  31  32
ENDBRANCH  30  31
ENDBRANCH  29  30
ENDBRANCH  24  29
ENDBRANCH   9  21
TORSDOF 6
ENDMDL
MODEL 9
REMARK VINA RESULT:      -7.0     13.490     16.482
REMARK  6 active torsions:
REMARK  status: ('A' for Active; 'I' for Inactive)
REMARK    1  A    between atoms: C_9  and  C_10 
REMARK    2  A    between atoms: C_12  and  O_13 
REMARK    3  A    between atoms: C_15  and  O_16 
REMARK    4  A    between atoms: O_16  and  C_17 
REMARK    5  A    between atoms: C_17  and  C_18 
REMARK    6  A    between atoms: C_18  and  N_19 
ROOT
HETATM    1  H   UNL     1      15.311  47.228  48.165  1.00  0.00     0.186 HD
HETATM    2  N   UNL     1      15.669  47.514  47.242  1.00  0.00    -0.304 NA
HETATM    3  C   UNL     1      16.866  48.014  47.256  1.00  0.00     0.062 C 
HETATM    4  C   UNL     1      17.548  48.440  45.940  1.00  0.00     0.173 C 
HETATM    5  C   UNL     1      18.670  47.456  45.649  1.00  0.00     0.012 C 
HETATM    6  N   UNL     1      19.600  46.640  45.408  1.00  0.00    -0.099 N 
HETATM    7  C   UNL     1      16.608  48.392  44.795  1.00  0.00     0.090 C 
HETATM    8  N   UNL     1      15.900  48.446  43.876  1.00  0.00    -0.195 NA
HETATM    9  C   UNL     1      18.139  49.892  46.077  1.00  0.00     0.070 C 
HETATM   10  C   UNL     1      19.004  50.050  47.369  1.00  0.00     0.053 C 
HETATM   11  C   UNL     1      18.264  49.591  48.618  1.00  0.00    -0.052 C 
HETATM   12  C   UNL     1      18.298  50.329  49.748  1.00  0.00     0.005 C 
HETATM   13  C   UNL     1      17.605  48.219  48.578  1.00  0.00     0.171 C 
HETATM   14  C   UNL     1      18.617  47.179  48.811  1.00  0.00     0.074 C 
HETATM   15  N   UNL     1      19.482  46.436  49.015  1.00  0.00    -0.196 NA
HETATM   16  C   UNL     1      19.620  51.470  47.498  1.00  0.00     0.244 C 
HETATM   17  N   UNL     1      20.191  51.702  48.876  1.00  0.00    -0.071 N 
HETATM   18  H   UNL     1      20.501  52.683  48.911  1.00  0.00     0.279 HD
HETATM   19  C   UNL     1      21.431  50.897  49.178  1.00  0.00     0.270 C 
HETATM   20  C   UNL     1      19.119  51.570  49.927  1.00  0.00     0.262 C 
ENDROOT
BRANCH   9  21
HETATM   21  C   UNL     1      17.095  51.008  45.880  1.00  0.00    -0.047 A 
HETATM   22  C   UNL     1      17.150  51.934  44.826  1.00  0.00     0.047 A 
HETATM   23  C   UNL     1      16.321  53.067  44.825  1.00  0.00     0.102 A 
HETATM   24  C   UNL     1      15.356  53.257  45.821  1.00  0.00     0.102 A 
HETATM   25  C   UNL     1      15.225  52.287  46.813  1.00  0.00     0.040 A 
HETATM   26  C   UNL     1      16.100  51.191  46.857  1.00  0.00     0.010 A 
BRANCH  23  27
HETATM   27  O   UNL     1      16.431  54.019  43.838  1.00  0.00    -0.353 OA
HETATM   28  C   UNL     1      16.602  53.431  42.544  1.00  0.00     0.210 C 
ENDBRANCH  23  27
BRANCH  24  29
HETATM   29  O   UNL     1      14.613  54.409  45.747  1.00  0.00    -0.347 OA
BRANCH  29  30
HETATM   30  C   UNL     1      13.518  54.523  46.662  1.00  0.00     0.203 C 
BRANCH  30  31
HETATM   31  C   UNL     1      13.802  55.688  47.622  1.00  0.00     0.261 C 
BRANCH  31  32
HETATM   32  N   UNL     1      14.411  55.219  48.931  1.00  0.00    -0.065 N 
HETATM   33  H   UNL     1      15.355  54.873  48.696  1.00  0.00     0.280 HD
HETATM   34  C   UNL     1      14.569  56.320  49.972  1.00  0.00     0.261 C 
HETATM   35  C   UNL     1      15.153  55.737  51.263  1.00  0.00     0.195 C 
HETATM   36  O   UNL     1      14.329  54.681  51.766  1.00  0.00    -0.388 OA
HETATM   37  C   UNL     1      14.239  53.596  50.840  1.00  0.00     0.195 C 
HETATM   38  C   UNL     1      13.612  54.054  49.520  1.00  0.00     0.261 C 
ENDBRANCH  31  32
ENDBRANCH  30  31
ENDBRANCH  29  30
ENDBRANCH  24  29
ENDBRANCH   9  21
TORSDOF 6
ENDMDL
MODEL 10
REMARK VINA RESULT:      -6.9     11.003     13.641
REMARK  6 active torsions:
REMARK  status: ('A' for Active; 'I' for Inactive)
REMARK    1  A    between atoms: C_9  and  C_10 
REMARK    2  A    between atoms: C_12  and  O_13 
REMARK    3  A    between atoms: C_15  and  O_16 
REMARK    4  A    between atoms: O_16  and  C_17 
REMARK    5  A    between atoms: C_17  and  C_18 
REMARK    6  A    between atoms: C_18  and  N_19 
ROOT
HETATM    1  H   UNL     1      15.323  47.557  48.505  1.00  0.00     0.186 HD
HETATM    2  N   UNL     1      15.845  48.425  48.700  1.00  0.00    -0.304 NA
HETATM    3  C   UNL     1      16.076  49.165  47.660  1.00  0.00     0.062 C 
HETATM    4  C   UNL     1      16.803  50.516  47.811  1.00  0.00     0.173 C 
HETATM    5  C   UNL     1      15.794  51.626  47.563  1.00  0.00     0.012 C 
HETATM    6  N   UNL     1      14.958  52.547  47.357  1.00  0.00    -0.099 N 
HETATM    7  C   UNL     1      17.338  50.701  49.182  1.00  0.00     0.090 C 
HETATM    8  N   UNL     1      17.843  50.869  50.213  1.00  0.00    -0.195 NA
HETATM    9  C   UNL     1      17.977  50.623  46.767  1.00  0.00     0.070 C 
HETATM   10  C   UNL     1      17.506  50.267  45.321  1.00  0.00     0.053 C 
HETATM   11  C   UNL     1      16.782  48.929  45.264  1.00  0.00    -0.052 C 
HETATM   12  C   UNL     1      17.054  48.041  44.284  1.00  0.00     0.005 C 
HETATM   13  C   UNL     1      15.660  48.695  46.267  1.00  0.00     0.171 C 
HETATM   14  C   UNL     1      14.436  49.361  45.801  1.00  0.00     0.074 C 
HETATM   15  N   UNL     1      13.521  49.907  45.347  1.00  0.00    -0.196 NA
HETATM   16  C   UNL     1      18.648  50.402  44.277  1.00  0.00     0.244 C 
HETATM   17  N   UNL     1      18.268  49.773  42.958  1.00  0.00    -0.071 N 
HETATM   18  H   UNL     1      19.098  49.825  42.351  1.00  0.00     0.279 HD
HETATM   19  C   UNL     1      17.193  50.514  42.203  1.00  0.00     0.270 C 
HETATM   20  C   UNL     1      17.977  48.304  43.132  1.00  0.00     0.262 C 
ENDROOT
BRANCH   9  21
HETATM   21  C   UNL     1      19.264  49.899  47.205  1.00  0.00    -0.047 A 
HETATM   22  C   UNL     1      20.480  50.562  47.432  1.00  0.00     0.047 A 
HETATM   23  C   UNL     1      21.672  49.838  47.594  1.00  0.00     0.102 A 
HETATM   24  C   UNL     1      21.667  48.438  47.628  1.00  0.00     0.102 A 
HETATM   25  C   UNL     1      20.447  47.774  47.509  1.00  0.00     0.040 A 
HETATM   26  C   UNL     1      19.266  48.494  47.275  1.00  0.00     0.010 A 
BRANCH  23  27
HETATM   27  O   UNL     1      22.877  50.486  47.731  1.00  0.00    -0.353 OA
HETATM   28  C   UNL     1      23.104  50.914  49.079  1.00  0.00     0.210 C 
ENDBRANCH  23  27
BRANCH  24  29
HETATM   29  O   UNL     1      22.886  47.821  47.764  1.00  0.00    -0.347 OA
BRANCH  29  30
HETATM   30  C   UNL     1      22.974  46.792  48.755  1.00  0.00     0.203 C 
BRANCH  30  31
HETATM   31  C   UNL     1      24.152  47.108  49.688  1.00  0.00     0.261 C 
BRANCH  31  32
HETATM   32  N   UNL     1      24.978  45.876  50.010  1.00  0.00    -0.065 N 
HETATM   33  H   UNL     1      24.770  45.646  50.995  1.00  0.00     0.280 HD
HETATM   34  C   UNL     1      24.627  44.656  49.168  1.00  0.00     0.261 C 
HETATM   35  C   UNL     1      25.540  43.484  49.544  1.00  0.00     0.195 C 
HETATM   36  O   UNL     1      26.917  43.834  49.375  1.00  0.00    -0.388 OA
HETATM   37  C   UNL     1      27.291  44.923  50.224  1.00  0.00     0.195 C 
HETATM   38  C   UNL     1      26.474  46.176  49.897  1.00  0.00     0.261 C 
ENDBRANCH  31  32
ENDBRANCH  30  31
ENDBRANCH  29  30
ENDBRANCH  24  29
ENDBRANCH   9  21
TORSDOF 6
ENDMDL
