MODEL 1
REMARK VINA RESULT:      -7.2      0.000      0.000
REMARK  3 active torsions:
REMARK  status: ('A' for Active; 'I' for Inactive)
REMARK    1  A    between atoms: C_2  and  C_3 
REMARK    2  A    between atoms: C_9  and  C_10 
REMARK    3  A    between atoms: C_21  and  N_22 
ROOT
HETATM    1  C   UNL     1      30.091  48.283  40.763  1.00  0.00     0.066 A 
HETATM    2  N   UNL     1      29.173  47.471  41.314  1.00  0.00    -0.177 NA
HETATM    3  N   UNL     1      28.164  48.288  41.662  1.00  0.00    -0.256 N 
HETATM    4  H   UNL     1      27.338  47.891  42.099  1.00  0.00     0.191 HD
HETATM    5  C   UNL     1      28.415  49.586  41.361  1.00  0.00     0.175 A 
HETATM    6  C   UNL     1      29.657  49.634  40.778  1.00  0.00     0.035 A 
HETATM    7  C   UNL     1      30.195  50.941  40.301  1.00  0.00     0.104 A 
HETATM    8  C   UNL     1      29.239  52.075  40.671  1.00  0.00     0.067 A 
HETATM    9  C   UNL     1      29.721  53.491  40.403  1.00  0.00     0.020 C 
HETATM   10  N   UNL     1      30.121  54.666  40.181  1.00  0.00    -0.096 N 
HETATM   11  C   UNL     1      28.032  51.876  41.267  1.00  0.00     0.139 A 
HETATM   12  O   UNL     1      27.578  50.590  41.604  1.00  0.00    -0.279 OA
ENDROOT
BRANCH   7  13
HETATM   13  C   UNL     1      31.581  51.099  40.910  1.00  0.00    -0.043 A 
HETATM   14  C   UNL     1      31.702  51.324  42.294  1.00  0.00     0.033 A 
HETATM   15  C   UNL     1      32.959  51.455  42.899  1.00  0.00     0.056 A 
HETATM   16 CL   UNL     1      33.002  51.745  44.601  1.00  0.00    -0.083 Cl
HETATM   17  C   UNL     1      34.117  51.350  42.125  1.00  0.00     0.055 A 
HETATM   18 CL   UNL     1      35.700  51.502  42.798  1.00  0.00    -0.083 Cl
HETATM   19  C   UNL     1      34.013  51.117  40.751  1.00  0.00     0.026 A 
HETATM   20  C   UNL     1      32.757  50.990  40.149  1.00  0.00     0.010 A 
ENDBRANCH   7  13
BRANCH  11  21
HETATM   21  N   UNL     1      27.144  52.864  41.622  1.00  0.00    -0.282 NA
HETATM   22  H   UNL     1      27.455  53.511  42.343  1.00  0.00     0.126 HD
HETATM   23  H   UNL     1      26.207  52.502  41.787  1.00  0.00     0.126 HD
ENDBRANCH  11  21
BRANCH   1  24
HETATM   24  C   UNL     1      31.364  47.700  40.242  1.00  0.00     0.057 C 
HETATM   25  C   UNL     1      32.446  47.624  41.306  1.00  0.00     0.011 C 
ENDBRANCH   1  24
TORSDOF 3
ENDMDL
MODEL 2
REMARK VINA RESULT:      -7.1      3.637      5.809
REMARK  3 active torsions:
REMARK  status: ('A' for Active; 'I' for Inactive)
REMARK    1  A    between atoms: C_2  and  C_3 
REMARK    2  A    between atoms: C_9  and  C_10 
REMARK    3  A    between atoms: C_21  and  N_22 
ROOT
HETATM    1  C   UNL     1      29.395  52.448  39.221  1.00  0.00     0.066 A 
HETATM    2  N   UNL     1      29.092  53.696  39.615  1.00  0.00    -0.177 NA
HETATM    3  N   UNL     1      29.995  53.977  40.572  1.00  0.00    -0.256 N 
HETATM    4  H   UNL     1      29.968  54.886  41.021  1.00  0.00     0.191 HD
HETATM    5  C   UNL     1      30.848  52.949  40.803  1.00  0.00     0.175 A 
HETATM    6  C   UNL     1      30.496  51.931  39.952  1.00  0.00     0.035 A 
HETATM    7  C   UNL     1      31.289  50.667  39.950  1.00  0.00     0.104 A 
HETATM    8  C   UNL     1      32.353  50.708  41.046  1.00  0.00     0.067 A 
HETATM    9  C   UNL     1      33.137  49.427  41.286  1.00  0.00     0.020 C 
HETATM   10  N   UNL     1      33.787  48.365  41.486  1.00  0.00    -0.096 N 
HETATM   11  C   UNL     1      32.582  51.794  41.832  1.00  0.00     0.139 A 
HETATM   12  O   UNL     1      31.830  52.973  41.698  1.00  0.00    -0.279 OA
ENDROOT
BRANCH   7  13
HETATM   13  C   UNL     1      30.299  49.523  40.113  1.00  0.00    -0.043 A 
HETATM   14  C   UNL     1      30.185  48.560  39.092  1.00  0.00     0.033 A 
HETATM   15  C   UNL     1      29.302  47.480  39.212  1.00  0.00     0.056 A 
HETATM   16 CL   UNL     1      29.223  46.361  37.898  1.00  0.00    -0.083 Cl
HETATM   17  C   UNL     1      28.524  47.341  40.364  1.00  0.00     0.055 A 
HETATM   18 CL   UNL     1      27.413  46.038  40.582  1.00  0.00    -0.083 Cl
HETATM   19  C   UNL     1      28.634  48.283  41.390  1.00  0.00     0.026 A 
HETATM   20  C   UNL     1      29.513  49.363  41.268  1.00  0.00     0.010 A 
ENDBRANCH   7  13
BRANCH  11  21
HETATM   21  N   UNL     1      33.523  51.874  42.832  1.00  0.00    -0.282 NA
HETATM   22  H   UNL     1      34.495  51.889  42.535  1.00  0.00     0.126 HD
HETATM   23  H   UNL     1      33.345  51.214  43.585  1.00  0.00     0.126 HD
ENDBRANCH  11  21
BRANCH   1  24
HETATM   24  C   UNL     1      28.588  51.808  38.139  1.00  0.00     0.057 C 
HETATM   25  C   UNL     1      27.397  51.036  38.683  1.00  0.00     0.011 C 
ENDBRANCH   1  24
TORSDOF 3
ENDMDL
MODEL 3
REMARK VINA RESULT:      -7.0      3.807      5.013
REMARK  3 active torsions:
REMARK  status: ('A' for Active; 'I' for Inactive)
REMARK    1  A    between atoms: C_2  and  C_3 
REMARK    2  A    between atoms: C_9  and  C_10 
REMARK    3  A    between atoms: C_21  and  N_22 
ROOT
HETATM    1  C   UNL     1      31.330  50.609  41.919  1.00  0.00     0.066 A 
HETATM    2  N   UNL     1      32.361  51.468  41.990  1.00  0.00    -0.177 NA
HETATM    3  N   UNL     1      32.067  52.425  41.091  1.00  0.00    -0.256 N 
HETATM    4  H   UNL     1      32.710  53.201  40.971  1.00  0.00     0.191 HD
HETATM    5  C   UNL     1      30.895  52.195  40.449  1.00  0.00     0.175 A 
HETATM    6  C   UNL     1      30.381  51.025  40.949  1.00  0.00     0.035 A 
HETATM    7  C   UNL     1      29.063  50.530  40.455  1.00  0.00     0.104 A 
HETATM    8  C   UNL     1      28.549  51.428  39.329  1.00  0.00     0.067 A 
HETATM    9  C   UNL     1      27.297  50.964  38.603  1.00  0.00     0.020 C 
HETATM   10  N   UNL     1      26.259  50.579  38.000  1.00  0.00    -0.096 N 
HETATM   11  C   UNL     1      29.180  52.563  38.925  1.00  0.00     0.139 A 
HETATM   12  O   UNL     1      30.381  52.990  39.516  1.00  0.00    -0.279 OA
ENDROOT
BRANCH   7  13
HETATM   13  C   UNL     1      29.266  49.083  40.026  1.00  0.00    -0.043 A 
HETATM   14  C   UNL     1      28.434  48.084  40.565  1.00  0.00     0.033 A 
HETATM   15  C   UNL     1      28.572  46.744  40.182  1.00  0.00     0.056 A 
HETATM   16 CL   UNL     1      27.515  45.589  40.911  1.00  0.00    -0.083 Cl
HETATM   17  C   UNL     1      29.543  46.386  39.244  1.00  0.00     0.055 A 
HETATM   18 CL   UNL     1      29.775  44.755  38.724  1.00  0.00    -0.083 Cl
HETATM   19  C   UNL     1      30.369  47.368  38.693  1.00  0.00     0.026 A 
HETATM   20  C   UNL     1      30.232  48.705  39.078  1.00  0.00     0.010 A 
ENDBRANCH   7  13
BRANCH  11  21
HETATM   21  N   UNL     1      28.757  53.397  37.916  1.00  0.00    -0.282 NA
HETATM   22  H   UNL     1      29.467  53.693  37.251  1.00  0.00     0.126 HD
HETATM   23  H   UNL     1      28.187  54.165  38.262  1.00  0.00     0.126 HD
ENDBRANCH  11  21
BRANCH   1  24
HETATM   24  C   UNL     1      31.318  49.408  42.807  1.00  0.00     0.057 C 
HETATM   25  C   UNL     1      32.088  48.240  42.213  1.00  0.00     0.011 C 
ENDBRANCH   1  24
TORSDOF 3
ENDMDL
MODEL 4
REMARK VINA RESULT:      -7.0     11.370     13.470
REMARK  3 active torsions:
REMARK  status: ('A' for Active; 'I' for Inactive)
REMARK    1  A    between atoms: C_2  and  C_3 
REMARK    2  A    between atoms: C_9  and  C_10 
REMARK    3  A    between atoms: C_21  and  N_22 
ROOT
HETATM    1  C   UNL     1      23.692  49.007  48.630  1.00  0.00     0.066 A 
HETATM    2  N   UNL     1      24.786  48.829  49.390  1.00  0.00    -0.177 NA
HETATM    3  N   UNL     1      24.762  47.524  49.716  1.00  0.00    -0.256 N 
HETATM    4  H   UNL     1      25.509  47.148  50.291  1.00  0.00     0.191 HD
HETATM    5  C   UNL     1      23.689  46.876  49.199  1.00  0.00     0.175 A 
HETATM    6  C   UNL     1      22.962  47.798  48.489  1.00  0.00     0.035 A 
HETATM    7  C   UNL     1      21.730  47.366  47.767  1.00  0.00     0.104 A 
HETATM    8  C   UNL     1      21.433  45.895  48.062  1.00  0.00     0.067 A 
HETATM    9  C   UNL     1      20.117  45.345  47.536  1.00  0.00     0.020 C 
HETATM   10  N   UNL     1      19.025  44.888  47.100  1.00  0.00    -0.096 N 
HETATM   11  C   UNL     1      22.247  45.098  48.803  1.00  0.00     0.139 A 
HETATM   12  O   UNL     1      23.435  45.583  49.375  1.00  0.00    -0.279 OA
ENDROOT
BRANCH   7  13
HETATM   13  C   UNL     1      20.611  48.304  48.198  1.00  0.00    -0.043 A 
HETATM   14  C   UNL     1      20.156  48.266  49.529  1.00  0.00     0.033 A 
HETATM   15  C   UNL     1      19.144  49.126  49.972  1.00  0.00     0.056 A 
HETATM   16 CL   UNL     1      18.643  48.992  51.620  1.00  0.00    -0.083 Cl
HETATM   17  C   UNL     1      18.577  50.047  49.088  1.00  0.00     0.055 A 
HETATM   18 CL   UNL     1      17.324  51.138  49.560  1.00  0.00    -0.083 Cl
HETATM   19  C   UNL     1      19.026  50.103  47.766  1.00  0.00     0.026 A 
HETATM   20  C   UNL     1      20.035  49.242  47.324  1.00  0.00     0.010 A 
ENDBRANCH   7  13
BRANCH  11  21
HETATM   21  N   UNL     1      22.018  43.774  49.098  1.00  0.00    -0.282 NA
HETATM   22  H   UNL     1      21.264  43.583  49.754  1.00  0.00     0.126 HD
HETATM   23  H   UNL     1      22.875  43.271  49.316  1.00  0.00     0.126 HD
ENDBRANCH  11  21
BRANCH   1  24
HETATM   24  C   UNL     1      23.403  50.362  48.072  1.00  0.00     0.057 C 
HETATM   25  C   UNL     1      22.685  51.259  49.067  1.00  0.00     0.011 C 
ENDBRANCH   1  24
TORSDOF 3
ENDMDL
MODEL 5
REMARK VINA RESULT:      -6.7     13.471     15.211
REMARK  3 active torsions:
REMARK  status: ('A' for Active; 'I' for Inactive)
REMARK    1  A    between atoms: C_2  and  C_3 
REMARK    2  A    between atoms: C_9  and  C_10 
REMARK    3  A    between atoms: C_21  and  N_22 
ROOT
HETATM    1  C   UNL     1      19.974  49.953  48.633  1.00  0.00     0.066 A 
HETATM    2  N   UNL     1      20.466  49.491  49.795  1.00  0.00    -0.177 NA
HETATM    3  N   UNL     1      20.016  48.225  49.873  1.00  0.00    -0.256 N 
HETATM    4  H   UNL     1      20.272  47.662  50.677  1.00  0.00     0.191 HD
HETATM    5  C   UNL     1      19.250  47.877  48.810  1.00  0.00     0.175 A 
HETATM    6  C   UNL     1      19.190  48.967  47.978  1.00  0.00     0.035 A 
HETATM    7  C   UNL     1      18.439  48.872  46.693  1.00  0.00     0.104 A 
HETATM    8  C   UNL     1      17.742  47.515  46.587  1.00  0.00     0.067 A 
HETATM    9  C   UNL     1      16.798  47.321  45.411  1.00  0.00     0.020 C 
HETATM   10  N   UNL     1      16.014  47.161  44.437  1.00  0.00    -0.096 N 
HETATM   11  C   UNL     1      17.885  46.523  47.506  1.00  0.00     0.139 A 
HETATM   12  O   UNL     1      18.686  46.684  48.648  1.00  0.00    -0.279 OA
ENDROOT
BRANCH   7  13
HETATM   13  C   UNL     1      17.475  50.049  46.654  1.00  0.00    -0.043 A 
HETATM   14  C   UNL     1      17.609  51.014  45.639  1.00  0.00     0.033 A 
HETATM   15  C   UNL     1      16.730  52.101  45.554  1.00  0.00     0.056 A 
HETATM   16 CL   UNL     1      16.987  53.241  44.282  1.00  0.00    -0.083 Cl
HETATM   17  C   UNL     1      15.694  52.232  46.482  1.00  0.00     0.055 A 
HETATM   18 CL   UNL     1      14.573  53.546  46.443  1.00  0.00    -0.083 Cl
HETATM   19  C   UNL     1      15.543  51.276  47.489  1.00  0.00     0.026 A 
HETATM   20  C   UNL     1      16.423  50.193  47.575  1.00  0.00     0.010 A 
ENDBRANCH   7  13
BRANCH  11  21
HETATM   21  N   UNL     1      17.275  45.291  47.454  1.00  0.00    -0.282 NA
HETATM   22  H   UNL     1      16.774  45.002  48.291  1.00  0.00     0.126 HD
HETATM   23  H   UNL     1      17.890  44.569  47.087  1.00  0.00     0.126 HD
ENDBRANCH  11  21
BRANCH   1  24
HETATM   24  C   UNL     1      20.291  51.350  48.210  1.00  0.00     0.057 C 
HETATM   25  C   UNL     1      19.249  52.350  48.681  1.00  0.00     0.011 C 
ENDBRANCH   1  24
TORSDOF 3
ENDMDL
MODEL 6
REMARK VINA RESULT:      -6.6     24.383     25.873
REMARK  3 active torsions:
REMARK  status: ('A' for Active; 'I' for Inactive)
REMARK    1  A    between atoms: C_2  and  C_3 
REMARK    2  A    between atoms: C_9  and  C_10 
REMARK    3  A    between atoms: C_21  and  N_22 
ROOT
HETATM    1  C   UNL     1      37.904  43.285  63.710  1.00  0.00     0.066 A 
HETATM    2  N   UNL     1      37.794  41.945  63.696  1.00  0.00    -0.177 NA
HETATM    3  N   UNL     1      36.906  41.670  64.669  1.00  0.00    -0.256 N 
HETATM    4  H   UNL     1      36.652  40.703  64.843  1.00  0.00     0.191 HD
HETATM    5  C   UNL     1      36.462  42.784  65.302  1.00  0.00     0.175 A 
HETATM    6  C   UNL     1      37.084  43.858  64.717  1.00  0.00     0.035 A 
HETATM    7  C   UNL     1      36.763  45.238  65.183  1.00  0.00     0.104 A 
HETATM    8  C   UNL     1      35.811  45.184  66.379  1.00  0.00     0.067 A 
HETATM    9  C   UNL     1      35.518  46.501  67.078  1.00  0.00     0.020 C 
HETATM   10  N   UNL     1      35.274  47.594  67.659  1.00  0.00    -0.096 N 
HETATM   11  C   UNL     1      35.278  44.031  66.864  1.00  0.00     0.139 A 
HETATM   12  O   UNL     1      35.582  42.782  66.298  1.00  0.00    -0.279 OA
ENDROOT
BRANCH   7  13
HETATM   13  C   UNL     1      38.087  45.920  65.497  1.00  0.00    -0.043 A 
HETATM   14  C   UNL     1      38.357  47.185  64.941  1.00  0.00     0.033 A 
HETATM   15  C   UNL     1      39.554  47.856  65.221  1.00  0.00     0.056 A 
HETATM   16 CL   UNL     1      39.801  49.396  64.478  1.00  0.00    -0.083 Cl
HETATM   17  C   UNL     1      40.496  47.274  66.072  1.00  0.00     0.055 A 
HETATM   18 CL   UNL     1      41.994  48.040  66.462  1.00  0.00    -0.083 Cl
HETATM   19  C   UNL     1      40.237  46.023  66.639  1.00  0.00     0.026 A 
HETATM   20  C   UNL     1      39.043  45.353  66.357  1.00  0.00     0.010 A 
ENDBRANCH   7  13
BRANCH  11  21
HETATM   21  N   UNL     1      34.424  43.935  67.938  1.00  0.00    -0.282 NA
HETATM   22  H   UNL     1      34.741  44.363  68.804  1.00  0.00     0.126 HD
HETATM   23  H   UNL     1      34.067  42.991  68.065  1.00  0.00     0.126 HD
ENDBRANCH  11  21
BRANCH   1  24
HETATM   24  C   UNL     1      38.815  43.952  62.732  1.00  0.00     0.057 C 
HETATM   25  C   UNL     1      40.278  43.836  63.128  1.00  0.00     0.011 C 
ENDBRANCH   1  24
TORSDOF 3
ENDMDL
MODEL 7
REMARK VINA RESULT:      -6.5     24.575     26.133
REMARK  3 active torsions:
REMARK  status: ('A' for Active; 'I' for Inactive)
REMARK    1  A    between atoms: C_2  and  C_3 
REMARK    2  A    between atoms: C_9  and  C_10 
REMARK    3  A    between atoms: C_21  and  N_22 
ROOT
HETATM    1  C   UNL     1      38.113  45.132  64.301  1.00  0.00     0.066 A 
HETATM    2  N   UNL     1      37.973  44.422  63.168  1.00  0.00    -0.177 NA
HETATM    3  N   UNL     1      39.230  44.245  62.723  1.00  0.00    -0.256 N 
HETATM    4  H   UNL     1      39.379  43.719  61.868  1.00  0.00     0.191 HD
HETATM    5  C   UNL     1      40.156  44.825  63.526  1.00  0.00     0.175 A 
HETATM    6  C   UNL     1      39.479  45.417  64.563  1.00  0.00     0.035 A 
HETATM    7  C   UNL     1      40.243  46.110  65.640  1.00  0.00     0.104 A 
HETATM    8  C   UNL     1      41.736  46.121  65.307  1.00  0.00     0.067 A 
HETATM    9  C   UNL     1      42.635  46.936  66.222  1.00  0.00     0.020 C 
HETATM   10  N   UNL     1      43.381  47.613  66.981  1.00  0.00    -0.096 N 
HETATM   11  C   UNL     1      42.268  45.495  64.223  1.00  0.00     0.139 A 
HETATM   12  O   UNL     1      41.466  44.794  63.307  1.00  0.00    -0.279 OA
ENDROOT
BRANCH   7  13
HETATM   13  C   UNL     1      39.648  47.504  65.780  1.00  0.00    -0.043 A 
HETATM   14  C   UNL     1      38.995  47.856  66.976  1.00  0.00     0.033 A 
HETATM   15  C   UNL     1      38.451  49.135  67.155  1.00  0.00     0.056 A 
HETATM   16 CL   UNL     1      37.656  49.465  68.652  1.00  0.00    -0.083 Cl
HETATM   17  C   UNL     1      38.563  50.086  66.138  1.00  0.00     0.055 A 
HETATM   18 CL   UNL     1      37.917  51.681  66.283  1.00  0.00    -0.083 Cl
HETATM   19  C   UNL     1      39.217  49.754  64.948  1.00  0.00     0.026 A 
HETATM   20  C   UNL     1      39.757  48.476  64.771  1.00  0.00     0.010 A 
ENDBRANCH   7  13
BRANCH  11  21
HETATM   21  N   UNL     1      43.601  45.482  63.882  1.00  0.00    -0.282 NA
HETATM   22  H   UNL     1      44.247  45.849  64.577  1.00  0.00     0.126 HD
HETATM   23  H   UNL     1      43.765  45.851  62.948  1.00  0.00     0.126 HD
ENDBRANCH  11  21
BRANCH   1  24
HETATM   24  C   UNL     1      36.897  45.505  65.083  1.00  0.00     0.057 C 
HETATM   25  C   UNL     1      36.316  46.841  64.650  1.00  0.00     0.011 C 
ENDBRANCH   1  24
TORSDOF 3
ENDMDL
MODEL 8
REMARK VINA RESULT:      -6.3      4.192      6.786
REMARK  3 active torsions:
REMARK  status: ('A' for Active; 'I' for Inactive)
REMARK    1  A    between atoms: C_2  and  C_3 
REMARK    2  A    between atoms: C_9  and  C_10 
REMARK    3  A    between atoms: C_21  and  N_22 
ROOT
HETATM    1  C   UNL     1      29.585  51.778  40.404  1.00  0.00     0.066 A 
HETATM    2  N   UNL     1      30.310  52.439  41.323  1.00  0.00    -0.177 NA
HETATM    3  N   UNL     1      31.273  51.572  41.682  1.00  0.00    -0.256 N 
HETATM    4  H   UNL     1      31.960  51.858  42.372  1.00  0.00     0.191 HD
HETATM    5  C   UNL     1      31.177  50.386  41.031  1.00  0.00     0.175 A 
HETATM    6  C   UNL     1      30.093  50.470  40.193  1.00  0.00     0.035 A 
HETATM    7  C   UNL     1      29.755  49.316  39.311  1.00  0.00     0.104 A 
HETATM    8  C   UNL     1      30.682  48.136  39.603  1.00  0.00     0.067 A 
HETATM    9  C   UNL     1      30.361  46.825  38.905  1.00  0.00     0.020 C 
HETATM   10  N   UNL     1      30.095  45.736  38.326  1.00  0.00    -0.096 N 
HETATM   11  C   UNL     1      31.719  48.195  40.481  1.00  0.00     0.139 A 
HETATM   12  O   UNL     1      32.006  49.363  41.207  1.00  0.00    -0.279 OA
ENDROOT
BRANCH   7  13
HETATM   13  C   UNL     1      28.284  48.997  39.541  1.00  0.00    -0.043 A 
HETATM   14  C   UNL     1      27.393  49.038  38.452  1.00  0.00     0.033 A 
HETATM   15  C   UNL     1      26.036  48.731  38.617  1.00  0.00     0.056 A 
HETATM   16 CL   UNL     1      25.020  48.824  37.223  1.00  0.00    -0.083 Cl
HETATM   17  C   UNL     1      25.553  48.369  39.876  1.00  0.00     0.055 A 
HETATM   18 CL   UNL     1      23.893  47.979  40.156  1.00  0.00    -0.083 Cl
HETATM   19  C   UNL     1      26.427  48.315  40.964  1.00  0.00     0.026 A 
HETATM   20  C   UNL     1      27.781  48.624  40.799  1.00  0.00     0.010 A 
ENDBRANCH   7  13
BRANCH  11  21
HETATM   21  N   UNL     1      32.574  47.160  40.779  1.00  0.00    -0.282 NA
HETATM   22  H   UNL     1      32.161  46.354  41.242  1.00  0.00     0.126 HD
HETATM   23  H   UNL     1      33.431  47.481  41.224  1.00  0.00     0.126 HD
ENDBRANCH  11  21
BRANCH   1  24
HETATM   24  C   UNL     1      28.417  52.458  39.768  1.00  0.00     0.057 C 
HETATM   25  C   UNL     1      28.663  52.787  38.305  1.00  0.00     0.011 C 
ENDBRANCH   1  24
TORSDOF 3
ENDMDL
MODEL 9
REMARK VINA RESULT:      -6.3     12.387     14.346
REMARK  3 active torsions:
REMARK  status: ('A' for Active; 'I' for Inactive)
REMARK    1  A    between atoms: C_2  and  C_3 
REMARK    2  A    between atoms: C_9  and  C_10 
REMARK    3  A    between atoms: C_21  and  N_22 
ROOT
HETATM    1  C   UNL     1      26.809  44.569  53.314  1.00  0.00     0.066 A 
HETATM    2  N   UNL     1      27.129  44.202  54.566  1.00  0.00    -0.177 NA
HETATM    3  N   UNL     1      27.672  42.978  54.432  1.00  0.00    -0.256 N 
HETATM    4  H   UNL     1      28.003  42.494  55.259  1.00  0.00     0.191 HD
HETATM    5  C   UNL     1      27.696  42.556  53.143  1.00  0.00     0.175 A 
HETATM    6  C   UNL     1      27.143  43.554  52.379  1.00  0.00     0.035 A 
HETATM    7  C   UNL     1      27.067  43.390  50.899  1.00  0.00     0.104 A 
HETATM    8  C   UNL     1      27.558  42.000  50.494  1.00  0.00     0.067 A 
HETATM    9  C   UNL     1      27.388  41.613  49.034  1.00  0.00     0.020 C 
HETATM   10  N   UNL     1      27.246  41.292  47.823  1.00  0.00    -0.096 N 
HETATM   11  C   UNL     1      28.074  41.100  51.373  1.00  0.00     0.139 A 
HETATM   12  O   UNL     1      28.180  41.385  52.745  1.00  0.00    -0.279 OA
ENDROOT
BRANCH   7  13
HETATM   13  C   UNL     1      25.623  43.659  50.497  1.00  0.00    -0.043 A 
HETATM   14  C   UNL     1      25.286  44.908  49.940  1.00  0.00     0.033 A 
HETATM   15  C   UNL     1      23.974  45.189  49.538  1.00  0.00     0.056 A 
HETATM   16 CL   UNL     1      23.657  46.755  48.881  1.00  0.00    -0.083 Cl
HETATM   17  C   UNL     1      22.980  44.218  49.678  1.00  0.00     0.055 A 
HETATM   18 CL   UNL     1      21.342  44.492  49.206  1.00  0.00    -0.083 Cl
HETATM   19  C   UNL     1      23.302  42.971  50.219  1.00  0.00     0.026 A 
HETATM   20  C   UNL     1      24.611  42.692  50.623  1.00  0.00     0.010 A 
ENDBRANCH   7  13
BRANCH  11  21
HETATM   21  N   UNL     1      28.523  39.839  51.055  1.00  0.00    -0.282 NA
HETATM   22  H   UNL     1      29.522  39.677  51.160  1.00  0.00     0.126 HD
HETATM   23  H   UNL     1      28.155  39.509  50.166  1.00  0.00     0.126 HD
ENDBRANCH  11  21
BRANCH   1  24
HETATM   24  C   UNL     1      26.185  45.906  53.082  1.00  0.00     0.057 C 
HETATM   25  C   UNL     1      26.373  46.846  54.261  1.00  0.00     0.011 C 
ENDBRANCH   1  24
TORSDOF 3
ENDMDL
MODEL 10
REMARK VINA RESULT:      -6.1     12.411     14.771
REMARK  3 active torsions:
REMARK  status: ('A' for Active; 'I' for Inactive)
REMARK    1  A    between atoms: C_2  and  C_3 
REMARK    2  A    between atoms: C_9  and  C_10 
REMARK    3  A    between atoms: C_21  and  N_22 
ROOT
HETATM    1  C   UNL     1      16.920  52.047  47.793  1.00  0.00     0.066 A 
HETATM    2  N   UNL     1      16.293  52.688  48.794  1.00  0.00    -0.177 NA
HETATM    3  N   UNL     1      17.170  52.662  49.814  1.00  0.00    -0.256 N 
HETATM    4  H   UNL     1      16.915  53.102  50.692  1.00  0.00     0.191 HD
HETATM    5  C   UNL     1      18.321  52.019  49.496  1.00  0.00     0.175 A 
HETATM    6  C   UNL     1      18.205  51.598  48.195  1.00  0.00     0.035 A 
HETATM    7  C   UNL     1      19.344  50.884  47.549  1.00  0.00     0.104 A 
HETATM    8  C   UNL     1      20.465  50.648  48.562  1.00  0.00     0.067 A 
HETATM    9  C   UNL     1      21.629  49.784  48.105  1.00  0.00     0.020 C 
HETATM   10  N   UNL     1      22.595  49.067  47.727  1.00  0.00    -0.096 N 
HETATM   11  C   UNL     1      20.435  51.119  49.838  1.00  0.00     0.139 A 
HETATM   12  O   UNL     1      19.345  51.856  50.328  1.00  0.00    -0.279 OA
ENDROOT
BRANCH   7  13
HETATM   13  C   UNL     1      18.784  49.597  46.959  1.00  0.00    -0.043 A 
HETATM   14  C   UNL     1      18.245  48.624  47.822  1.00  0.00     0.033 A 
HETATM   15  C   UNL     1      17.701  47.435  47.320  1.00  0.00     0.056 A 
HETATM   16 CL   UNL     1      17.079  46.296  48.460  1.00  0.00    -0.083 Cl
HETATM   17  C   UNL     1      17.679  47.207  45.943  1.00  0.00     0.055 A 
HETATM   18 CL   UNL     1      17.027  45.765  45.250  1.00  0.00    -0.083 Cl
HETATM   19  C   UNL     1      18.201  48.168  45.074  1.00  0.00     0.026 A 
HETATM   20  C   UNL     1      18.747  49.354  45.576  1.00  0.00     0.010 A 
ENDBRANCH   7  13
BRANCH  11  21
HETATM   21  N   UNL     1      21.416  50.927  50.783  1.00  0.00    -0.282 NA
HETATM   22  H   UNL     1      21.100  50.830  51.745  1.00  0.00     0.126 HD
HETATM   23  H   UNL     1      22.187  51.582  50.680  1.00  0.00     0.126 HD
ENDBRANCH  11  21
BRANCH   1  24
HETATM   24  C   UNL     1      16.230  51.897  46.476  1.00  0.00     0.057 C 
HETATM   25  C   UNL     1      16.952  52.628  45.357  1.00  0.00     0.011 C 
ENDBRANCH   1  24
TORSDOF 3
ENDMDL
