MODEL 1
REMARK VINA RESULT:     -10.6      0.000      0.000
REMARK  4 active torsions:
REMARK  status: ('A' for Active; 'I' for Inactive)
REMARK    1  A    between atoms: C_3  and  C_4 
REMARK    2  A    between atoms: C_14  and  N_15 
REMARK       I    between atoms: N_15  and  C_16 
REMARK    3  A    between atoms: C_16  and  C_17 
REMARK    4  A    between atoms: C_19  and  N_20 
ROOT
HETATM    1  N   UNL     1      27.161  44.530  52.549  1.00  0.00    -0.322 N 
HETATM    2  C   UNL     1      25.809  44.722  52.740  1.00  0.00     0.256 C 
HETATM    3  O   UNL     1      25.141  44.494  53.737  1.00  0.00    -0.267 OA
HETATM    4  H   UNL     1      27.525  44.735  51.624  1.00  0.00     0.169 HD
ENDROOT
BRANCH   1   5
HETATM    5  C   UNL     1      28.126  44.203  53.537  1.00  0.00     0.049 A 
HETATM    6  C   UNL     1      28.828  42.978  53.446  1.00  0.00     0.037 A 
HETATM    7  C   UNL     1      29.886  42.719  54.334  1.00  0.00     0.017 A 
HETATM    8  C   UNL     1      30.222  43.631  55.330  1.00  0.00     0.001 A 
HETATM    9  C   UNL     1      29.500  44.814  55.452  1.00  0.00     0.002 A 
HETATM   10  C   UNL     1      28.460  45.098  54.561  1.00  0.00     0.030 A 
BRANCH   6  11
HETATM   11  C   UNL     1      28.453  41.915  52.511  1.00  0.00     0.141 A 
HETATM   12  N   UNL     1      27.295  41.770  51.896  1.00  0.00    -0.228 NA
HETATM   13  C   UNL     1      27.431  40.666  51.091  1.00  0.00     0.086 A 
HETATM   14  C   UNL     1      28.706  40.125  51.200  1.00  0.00     0.062 A 
HETATM   15  C   UNL     1      26.503  40.065  50.228  1.00  0.00     0.034 A 
HETATM   16  N   UNL     1      29.343  40.954  52.084  1.00  0.00    -0.338 N 
HETATM   17  C   UNL     1      29.124  38.995  50.496  1.00  0.00     0.032 A 
HETATM   18  H   UNL     1      30.309  40.892  52.372  1.00  0.00     0.167 HD
HETATM   19  C   UNL     1      28.184  38.405  49.644  1.00  0.00     0.002 A 
HETATM   20  C   UNL     1      26.897  38.929  49.507  1.00  0.00     0.002 A 
ENDBRANCH   6  11
ENDBRANCH   1   5
BRANCH   2  21
HETATM   21  C   UNL     1      25.125  45.238  51.541  1.00  0.00     0.034 A 
HETATM   22  C   UNL     1      25.553  46.451  50.987  1.00  0.00     0.047 A 
HETATM   23  C   UNL     1      24.935  46.981  49.844  1.00  0.00     0.046 A 
HETATM   24  C   UNL     1      23.873  46.238  49.295  1.00  0.00     0.030 A 
HETATM   25  C   UNL     1      23.443  45.026  49.857  1.00  0.00     0.003 A 
HETATM   26  C   UNL     1      24.069  44.519  50.988  1.00  0.00     0.017 A 
BRANCH  23  27
HETATM   27  N   UNL     1      25.361  48.225  49.272  1.00  0.00    -0.252 N 
HETATM   28  C   UNL     1      24.534  49.306  49.048  1.00  0.00     0.231 C 
HETATM   29  O   UNL     1      23.368  49.475  49.377  1.00  0.00    -0.273 OA
HETATM   30  C   UNL     1      25.290  50.351  48.285  1.00  0.00     0.113 C 
HETATM   31  C   UNL     1      26.728  49.946  48.453  1.00  0.00     0.113 C 
HETATM   32  C   UNL     1      26.653  48.512  48.883  1.00  0.00     0.231 C 
HETATM   33  O   UNL     1      27.643  47.792  48.871  1.00  0.00    -0.273 OA
ENDBRANCH  23  27
ENDBRANCH   2  21
TORSDOF 4
ENDMDL
MODEL 2
REMARK VINA RESULT:     -10.3      1.238      1.419
REMARK  4 active torsions:
REMARK  status: ('A' for Active; 'I' for Inactive)
REMARK    1  A    between atoms: C_3  and  C_4 
REMARK    2  A    between atoms: C_14  and  N_15 
REMARK       I    between atoms: N_15  and  C_16 
REMARK    3  A    between atoms: C_16  and  C_17 
REMARK    4  A    between atoms: C_19  and  N_20 
ROOT
HETATM    1  N   UNL     1      26.721  44.824  52.726  1.00  0.00    -0.322 N 
HETATM    2  C   UNL     1      26.215  46.074  52.441  1.00  0.00     0.256 C 
HETATM    3  O   UNL     1      26.441  47.134  53.006  1.00  0.00    -0.267 OA
HETATM    4  H   UNL     1      26.369  44.052  52.168  1.00  0.00     0.169 HD
ENDROOT
BRANCH   1   5
HETATM    5  C   UNL     1      27.775  44.511  53.624  1.00  0.00     0.049 A 
HETATM    6  C   UNL     1      28.527  43.329  53.430  1.00  0.00     0.037 A 
HETATM    7  C   UNL     1      29.662  43.093  54.224  1.00  0.00     0.017 A 
HETATM    8  C   UNL     1      30.027  43.984  55.230  1.00  0.00     0.001 A 
HETATM    9  C   UNL     1      29.258  45.121  55.455  1.00  0.00     0.002 A 
HETATM   10  C   UNL     1      28.140  45.383  54.657  1.00  0.00     0.030 A 
BRANCH   6  11
HETATM   11  C   UNL     1      28.136  42.285  52.481  1.00  0.00     0.141 A 
HETATM   12  N   UNL     1      26.950  42.118  51.929  1.00  0.00    -0.228 NA
HETATM   13  C   UNL     1      27.077  41.046  51.079  1.00  0.00     0.086 A 
HETATM   14  C   UNL     1      28.374  40.549  51.096  1.00  0.00     0.062 A 
HETATM   15  C   UNL     1      26.122  40.440  50.249  1.00  0.00     0.034 A 
HETATM   16  N   UNL     1      29.032  41.371  51.971  1.00  0.00    -0.338 N 
HETATM   17  C   UNL     1      28.789  39.458  50.332  1.00  0.00     0.032 A 
HETATM   18  H   UNL     1      30.015  41.335  52.202  1.00  0.00     0.167 HD
HETATM   19  C   UNL     1      27.822  38.862  49.514  1.00  0.00     0.002 A 
HETATM   20  C   UNL     1      26.512  39.343  49.469  1.00  0.00     0.002 A 
ENDBRANCH   6  11
ENDBRANCH   1   5
BRANCH   2  21
HETATM   21  C   UNL     1      25.255  46.068  51.323  1.00  0.00     0.034 A 
HETATM   22  C   UNL     1      24.912  47.285  50.721  1.00  0.00     0.047 A 
HETATM   23  C   UNL     1      24.005  47.330  49.650  1.00  0.00     0.046 A 
HETATM   24  C   UNL     1      23.464  46.102  49.225  1.00  0.00     0.030 A 
HETATM   25  C   UNL     1      23.807  44.886  49.835  1.00  0.00     0.003 A 
HETATM   26  C   UNL     1      24.706  44.864  50.893  1.00  0.00     0.017 A 
BRANCH  23  27
HETATM   27  N   UNL     1      23.642  48.571  49.030  1.00  0.00    -0.252 N 
HETATM   28  C   UNL     1      22.346  49.017  48.874  1.00  0.00     0.231 C 
HETATM   29  O   UNL     1      21.304  48.547  49.310  1.00  0.00    -0.273 OA
HETATM   30  C   UNL     1      22.352  50.258  48.034  1.00  0.00     0.113 C 
HETATM   31  C   UNL     1      23.787  50.707  48.070  1.00  0.00     0.113 C 
HETATM   32  C   UNL     1      24.537  49.488  48.518  1.00  0.00     0.231 C 
HETATM   33  O   UNL     1      25.755  49.419  48.420  1.00  0.00    -0.273 OA
ENDBRANCH  23  27
ENDBRANCH   2  21
TORSDOF 4
ENDMDL
MODEL 3
REMARK VINA RESULT:     -10.3      2.510      7.829
REMARK  4 active torsions:
REMARK  status: ('A' for Active; 'I' for Inactive)
REMARK    1  A    between atoms: C_3  and  C_4 
REMARK    2  A    between atoms: C_14  and  N_15 
REMARK       I    between atoms: N_15  and  C_16 
REMARK    3  A    between atoms: C_16  and  C_17 
REMARK    4  A    between atoms: C_19  and  N_20 
ROOT
HETATM    1  N   UNL     1      26.694  43.835  51.918  1.00  0.00    -0.322 N 
HETATM    2  C   UNL     1      26.087  44.316  53.058  1.00  0.00     0.256 C 
HETATM    3  O   UNL     1      24.944  44.130  53.449  1.00  0.00    -0.267 OA
HETATM    4  H   UNL     1      27.643  44.146  51.740  1.00  0.00     0.169 HD
ENDROOT
BRANCH   1   5
HETATM    5  C   UNL     1      26.187  42.849  51.030  1.00  0.00     0.049 A 
HETATM    6  C   UNL     1      25.448  43.251  49.893  1.00  0.00     0.037 A 
HETATM    7  C   UNL     1      25.075  42.292  48.935  1.00  0.00     0.017 A 
HETATM    8  C   UNL     1      25.385  40.947  49.115  1.00  0.00     0.001 A 
HETATM    9  C   UNL     1      26.068  40.544  50.257  1.00  0.00     0.002 A 
HETATM   10  C   UNL     1      26.468  41.489  51.208  1.00  0.00     0.030 A 
BRANCH   6  11
HETATM   11  C   UNL     1      24.975  44.623  49.696  1.00  0.00     0.141 A 
HETATM   12  N   UNL     1      25.671  45.732  49.854  1.00  0.00    -0.228 NA
HETATM   13  C   UNL     1      24.827  46.760  49.511  1.00  0.00     0.086 A 
HETATM   14  C   UNL     1      23.586  46.273  49.119  1.00  0.00     0.062 A 
HETATM   15  C   UNL     1      25.053  48.144  49.504  1.00  0.00     0.034 A 
HETATM   16  N   UNL     1      23.717  44.914  49.217  1.00  0.00    -0.338 N 
HETATM   17  C   UNL     1      22.530  47.093  48.720  1.00  0.00     0.032 A 
HETATM   18  H   UNL     1      23.020  44.226  48.968  1.00  0.00     0.167 HD
HETATM   19  C   UNL     1      22.771  48.472  48.725  1.00  0.00     0.002 A 
HETATM   20  C   UNL     1      24.011  48.992  49.106  1.00  0.00     0.002 A 
ENDBRANCH   6  11
ENDBRANCH   1   5
BRANCH   2  21
HETATM   21  C   UNL     1      26.965  45.192  53.853  1.00  0.00     0.034 A 
HETATM   22  C   UNL     1      27.989  44.613  54.612  1.00  0.00     0.047 A 
HETATM   23  C   UNL     1      28.853  45.406  55.383  1.00  0.00     0.046 A 
HETATM   24  C   UNL     1      28.634  46.796  55.355  1.00  0.00     0.030 A 
HETATM   25  C   UNL     1      27.602  47.372  54.597  1.00  0.00     0.003 A 
HETATM   26  C   UNL     1      26.758  46.568  53.841  1.00  0.00     0.017 A 
BRANCH  23  27
HETATM   27  N   UNL     1      29.902  44.823  56.169  1.00  0.00    -0.252 N 
HETATM   28  C   UNL     1      30.719  43.797  55.743  1.00  0.00     0.231 C 
HETATM   29  O   UNL     1      30.806  43.279  54.638  1.00  0.00    -0.273 OA
HETATM   30  C   UNL     1      31.570  43.340  56.888  1.00  0.00     0.113 C 
HETATM   31  C   UNL     1      31.461  44.462  57.884  1.00  0.00     0.113 C 
HETATM   32  C   UNL     1      30.243  45.217  57.447  1.00  0.00     0.231 C 
HETATM   33  O   UNL     1      29.714  46.047  58.174  1.00  0.00    -0.273 OA
ENDBRANCH  23  27
ENDBRANCH   2  21
TORSDOF 4
ENDMDL
MODEL 4
REMARK VINA RESULT:     -10.2      3.621      8.710
REMARK  4 active torsions:
REMARK  status: ('A' for Active; 'I' for Inactive)
REMARK    1  A    between atoms: C_3  and  C_4 
REMARK    2  A    between atoms: C_14  and  N_15 
REMARK       I    between atoms: N_15  and  C_16 
REMARK    3  A    between atoms: C_16  and  C_17 
REMARK    4  A    between atoms: C_19  and  N_20 
ROOT
HETATM    1  N   UNL     1      22.336  49.411  49.326  1.00  0.00    -0.322 N 
HETATM    2  C   UNL     1      23.281  49.680  48.360  1.00  0.00     0.256 C 
HETATM    3  O   UNL     1      23.121  50.178  47.255  1.00  0.00    -0.267 OA
HETATM    4  H   UNL     1      22.662  48.944  50.166  1.00  0.00     0.169 HD
ENDROOT
BRANCH   1   5
HETATM    5  C   UNL     1      20.979  49.830  49.336  1.00  0.00     0.049 A 
HETATM    6  C   UNL     1      19.965  48.912  48.974  1.00  0.00     0.037 A 
HETATM    7  C   UNL     1      18.616  49.276  49.127  1.00  0.00     0.017 A 
HETATM    8  C   UNL     1      18.266  50.543  49.585  1.00  0.00     0.001 A 
HETATM    9  C   UNL     1      19.263  51.463  49.893  1.00  0.00     0.002 A 
HETATM   10  C   UNL     1      20.610  51.109  49.771  1.00  0.00     0.030 A 
BRANCH   6  11
HETATM   11  C   UNL     1      20.250  47.610  48.367  1.00  0.00     0.141 A 
HETATM   12  N   UNL     1      21.255  46.805  48.651  1.00  0.00    -0.228 NA
HETATM   13  C   UNL     1      21.080  45.691  47.867  1.00  0.00     0.086 A 
HETATM   14  C   UNL     1      19.934  45.806  47.091  1.00  0.00     0.062 A 
HETATM   15  C   UNL     1      21.862  44.531  47.767  1.00  0.00     0.034 A 
HETATM   16  N   UNL     1      19.410  47.019  47.448  1.00  0.00    -0.338 N 
HETATM   17  C   UNL     1      19.510  44.823  46.195  1.00  0.00     0.032 A 
HETATM   18  H   UNL     1      18.545  47.420  47.115  1.00  0.00     0.167 HD
HETATM   19  C   UNL     1      20.305  43.674  46.104  1.00  0.00     0.002 A 
HETATM   20  C   UNL     1      21.459  43.526  46.877  1.00  0.00     0.002 A 
ENDBRANCH   6  11
ENDBRANCH   1   5
BRANCH   2  21
HETATM   21  C   UNL     1      24.640  49.260  48.748  1.00  0.00     0.034 A 
HETATM   22  C   UNL     1      24.788  48.180  49.627  1.00  0.00     0.047 A 
HETATM   23  C   UNL     1      26.060  47.741  50.023  1.00  0.00     0.046 A 
HETATM   24  C   UNL     1      27.164  48.440  49.499  1.00  0.00     0.030 A 
HETATM   25  C   UNL     1      27.011  49.526  48.624  1.00  0.00     0.003 A 
HETATM   26  C   UNL     1      25.742  49.944  48.244  1.00  0.00     0.017 A 
BRANCH  23  27
HETATM   27  N   UNL     1      26.224  46.640  50.927  1.00  0.00    -0.252 N 
HETATM   28  C   UNL     1      26.684  45.392  50.562  1.00  0.00     0.231 C 
HETATM   29  O   UNL     1      27.139  45.013  49.492  1.00  0.00    -0.273 OA
HETATM   30  C   UNL     1      26.554  44.461  51.729  1.00  0.00     0.113 C 
HETATM   31  C   UNL     1      26.368  45.383  52.903  1.00  0.00     0.113 C 
HETATM   32  C   UNL     1      25.956  46.683  52.280  1.00  0.00     0.231 C 
HETATM   33  O   UNL     1      25.481  47.588  52.953  1.00  0.00    -0.273 OA
ENDBRANCH  23  27
ENDBRANCH   2  21
TORSDOF 4
ENDMDL
MODEL 5
REMARK VINA RESULT:     -10.1      2.248      3.312
REMARK  4 active torsions:
REMARK  status: ('A' for Active; 'I' for Inactive)
REMARK    1  A    between atoms: C_3  and  C_4 
REMARK    2  A    between atoms: C_14  and  N_15 
REMARK       I    between atoms: N_15  and  C_16 
REMARK    3  A    between atoms: C_16  and  C_17 
REMARK    4  A    between atoms: C_19  and  N_20 
ROOT
HETATM    1  N   UNL     1      25.527  46.357  52.334  1.00  0.00    -0.322 N 
HETATM    2  C   UNL     1      25.674  47.092  51.177  1.00  0.00     0.256 C 
HETATM    3  O   UNL     1      26.536  47.912  50.901  1.00  0.00    -0.267 OA
HETATM    4  H   UNL     1      24.709  45.759  52.394  1.00  0.00     0.169 HD
ENDROOT
BRANCH   1   5
HETATM    5  C   UNL     1      26.458  46.243  53.400  1.00  0.00     0.049 A 
HETATM    6  C   UNL     1      27.294  45.104  53.475  1.00  0.00     0.037 A 
HETATM    7  C   UNL     1      28.316  45.058  54.439  1.00  0.00     0.017 A 
HETATM    8  C   UNL     1      28.486  46.098  55.348  1.00  0.00     0.001 A 
HETATM    9  C   UNL     1      27.633  47.195  55.307  1.00  0.00     0.002 A 
HETATM   10  C   UNL     1      26.627  47.268  54.339  1.00  0.00     0.030 A 
BRANCH   6  11
HETATM   11  C   UNL     1      27.098  43.917  52.639  1.00  0.00     0.141 A 
HETATM   12  N   UNL     1      25.990  43.555  52.023  1.00  0.00    -0.228 NA
HETATM   13  C   UNL     1      26.301  42.411  51.328  1.00  0.00     0.086 A 
HETATM   14  C   UNL     1      27.635  42.068  51.509  1.00  0.00     0.062 A 
HETATM   15  C   UNL     1      25.492  41.609  50.511  1.00  0.00     0.034 A 
HETATM   16  N   UNL     1      28.125  43.055  52.321  1.00  0.00    -0.338 N 
HETATM   17  C   UNL     1      28.226  40.947  50.924  1.00  0.00     0.032 A 
HETATM   18  H   UNL     1      29.081  43.157  52.630  1.00  0.00     0.167 HD
HETATM   19  C   UNL     1      27.402  40.155  50.117  1.00  0.00     0.002 A 
HETATM   20  C   UNL     1      26.059  40.478  49.909  1.00  0.00     0.002 A 
ENDBRANCH   6  11
ENDBRANCH   1   5
BRANCH   2  21
HETATM   21  C   UNL     1      24.604  46.841  50.194  1.00  0.00     0.034 A 
HETATM   22  C   UNL     1      23.755  47.895  49.837  1.00  0.00     0.047 A 
HETATM   23  C   UNL     1      22.725  47.707  48.903  1.00  0.00     0.046 A 
HETATM   24  C   UNL     1      22.592  46.416  48.356  1.00  0.00     0.030 A 
HETATM   25  C   UNL     1      23.442  45.361  48.722  1.00  0.00     0.003 A 
HETATM   26  C   UNL     1      24.455  45.570  49.649  1.00  0.00     0.017 A 
BRANCH  23  27
HETATM   27  N   UNL     1      21.845  48.778  48.533  1.00  0.00    -0.252 N 
HETATM   28  C   UNL     1      22.226  49.884  47.802  1.00  0.00     0.231 C 
HETATM   29  O   UNL     1      23.288  50.119  47.242  1.00  0.00    -0.273 OA
HETATM   30  C   UNL     1      21.090  50.861  47.763  1.00  0.00     0.113 C 
HETATM   31  C   UNL     1      19.900  50.041  48.182  1.00  0.00     0.113 C 
HETATM   32  C   UNL     1      20.503  48.840  48.846  1.00  0.00     0.231 C 
HETATM   33  O   UNL     1      19.825  48.082  49.526  1.00  0.00    -0.273 OA
ENDBRANCH  23  27
ENDBRANCH   2  21
TORSDOF 4
ENDMDL
MODEL 6
REMARK VINA RESULT:     -10.0      3.044      8.542
REMARK  4 active torsions:
REMARK  status: ('A' for Active; 'I' for Inactive)
REMARK    1  A    between atoms: C_3  and  C_4 
REMARK    2  A    between atoms: C_14  and  N_15 
REMARK       I    between atoms: N_15  and  C_16 
REMARK    3  A    between atoms: C_16  and  C_17 
REMARK    4  A    between atoms: C_19  and  N_20 
ROOT
HETATM    1  N   UNL     1      21.440  47.021  48.833  1.00  0.00    -0.322 N 
HETATM    2  C   UNL     1      21.997  46.320  47.785  1.00  0.00     0.256 C 
HETATM    3  O   UNL     1      22.031  46.620  46.601  1.00  0.00    -0.267 OA
HETATM    4  H   UNL     1      21.468  46.577  49.746  1.00  0.00     0.169 HD
ENDROOT
BRANCH   1   5
HETATM    5  C   UNL     1      20.946  48.352  48.806  1.00  0.00     0.049 A 
HETATM    6  C   UNL     1      21.858  49.432  48.761  1.00  0.00     0.037 A 
HETATM    7  C   UNL     1      21.374  50.739  48.583  1.00  0.00     0.017 A 
HETATM    8  C   UNL     1      20.007  50.988  48.497  1.00  0.00     0.001 A 
HETATM    9  C   UNL     1      19.108  49.932  48.592  1.00  0.00     0.002 A 
HETATM   10  C   UNL     1      19.574  48.623  48.744  1.00  0.00     0.030 A 
BRANCH   6  11
HETATM   11  C   UNL     1      23.298  49.266  48.970  1.00  0.00     0.141 A 
HETATM   12  N   UNL     1      23.891  48.369  49.733  1.00  0.00    -0.228 NA
HETATM   13  C   UNL     1      25.241  48.571  49.575  1.00  0.00     0.086 A 
HETATM   14  C   UNL     1      25.486  49.607  48.683  1.00  0.00     0.062 A 
HETATM   15  C   UNL     1      26.323  47.899  50.160  1.00  0.00     0.034 A 
HETATM   16  N   UNL     1      24.238  50.011  48.292  1.00  0.00    -0.338 N 
HETATM   17  C   UNL     1      26.768  50.033  48.334  1.00  0.00     0.032 A 
HETATM   18  H   UNL     1      24.027  50.724  47.608  1.00  0.00     0.167 HD
HETATM   19  C   UNL     1      27.837  49.356  48.932  1.00  0.00     0.002 A 
HETATM   20  C   UNL     1      27.623  48.305  49.827  1.00  0.00     0.002 A 
ENDBRANCH   6  11
ENDBRANCH   1   5
BRANCH   2  21
HETATM   21  C   UNL     1      22.581  45.031  48.199  1.00  0.00     0.034 A 
HETATM   22  C   UNL     1      23.659  45.033  49.091  1.00  0.00     0.047 A 
HETATM   23  C   UNL     1      24.247  43.832  49.517  1.00  0.00     0.046 A 
HETATM   24  C   UNL     1      23.702  42.641  49.000  1.00  0.00     0.030 A 
HETATM   25  C   UNL     1      22.625  42.644  48.101  1.00  0.00     0.003 A 
HETATM   26  C   UNL     1      22.058  43.844  47.693  1.00  0.00     0.017 A 
BRANCH  23  27
HETATM   27  N   UNL     1      25.356  43.823  50.427  1.00  0.00    -0.252 N 
HETATM   28  C   UNL     1      26.636  43.431  50.094  1.00  0.00     0.231 C 
HETATM   29  O   UNL     1      27.102  43.144  49.000  1.00  0.00    -0.273 OA
HETATM   30  C   UNL     1      27.474  43.389  51.335  1.00  0.00     0.113 C 
HETATM   31  C   UNL     1      26.675  44.184  52.332  1.00  0.00     0.113 C 
HETATM   32  C   UNL     1      25.295  44.215  51.748  1.00  0.00     0.231 C 
HETATM   33  O   UNL     1      24.331  44.566  52.414  1.00  0.00    -0.273 OA
ENDBRANCH  23  27
ENDBRANCH   2  21
TORSDOF 4
ENDMDL
MODEL 7
REMARK VINA RESULT:      -9.8      2.100      5.044
REMARK  4 active torsions:
REMARK  status: ('A' for Active; 'I' for Inactive)
REMARK    1  A    between atoms: C_3  and  C_4 
REMARK    2  A    between atoms: C_14  and  N_15 
REMARK       I    between atoms: N_15  and  C_16 
REMARK    3  A    between atoms: C_16  and  C_17 
REMARK    4  A    between atoms: C_19  and  N_20 
ROOT
HETATM    1  N   UNL     1      27.282  41.007  49.241  1.00  0.00    -0.322 N 
HETATM    2  C   UNL     1      26.058  40.902  48.618  1.00  0.00     0.256 C 
HETATM    3  O   UNL     1      25.563  39.927  48.072  1.00  0.00    -0.267 OA
HETATM    4  H   UNL     1      27.539  41.924  49.593  1.00  0.00     0.169 HD
ENDROOT
BRANCH   1   5
HETATM    5  C   UNL     1      28.172  39.949  49.564  1.00  0.00     0.049 A 
HETATM    6  C   UNL     1      28.748  39.893  50.855  1.00  0.00     0.037 A 
HETATM    7  C   UNL     1      29.508  38.770  51.226  1.00  0.00     0.017 A 
HETATM    8  C   UNL     1      29.739  37.736  50.323  1.00  0.00     0.001 A 
HETATM    9  C   UNL     1      29.216  37.814  49.038  1.00  0.00     0.002 A 
HETATM   10  C   UNL     1      28.436  38.912  48.661  1.00  0.00     0.030 A 
BRANCH   6  11
HETATM   11  C   UNL     1      28.657  40.995  51.815  1.00  0.00     0.141 A 
HETATM   12  N   UNL     1      27.560  41.604  52.223  1.00  0.00    -0.228 NA
HETATM   13  C   UNL     1      27.966  42.531  53.151  1.00  0.00     0.086 A 
HETATM   14  C   UNL     1      29.342  42.484  53.331  1.00  0.00     0.062 A 
HETATM   15  C   UNL     1      27.209  43.450  53.892  1.00  0.00     0.034 A 
HETATM   16  N   UNL     1      29.752  41.482  52.494  1.00  0.00    -0.338 N 
HETATM   17  C   UNL     1      30.031  43.318  54.213  1.00  0.00     0.032 A 
HETATM   18  H   UNL     1      30.696  41.135  52.392  1.00  0.00     0.167 HD
HETATM   19  C   UNL     1      29.261  44.233  54.940  1.00  0.00     0.002 A 
HETATM   20  C   UNL     1      27.874  44.299  54.787  1.00  0.00     0.002 A 
ENDBRANCH   6  11
ENDBRANCH   1   5
BRANCH   2  21
HETATM   21  C   UNL     1      25.306  42.169  48.605  1.00  0.00     0.034 A 
HETATM   22  C   UNL     1      25.662  43.176  49.511  1.00  0.00     0.047 A 
HETATM   23  C   UNL     1      24.978  44.401  49.535  1.00  0.00     0.046 A 
HETATM   24  C   UNL     1      23.925  44.558  48.613  1.00  0.00     0.030 A 
HETATM   25  C   UNL     1      23.568  43.544  47.711  1.00  0.00     0.003 A 
HETATM   26  C   UNL     1      24.258  42.339  47.704  1.00  0.00     0.017 A 
BRANCH  23  27
HETATM   27  N   UNL     1      25.330  45.437  50.462  1.00  0.00    -0.252 N 
HETATM   28  C   UNL     1      24.914  45.483  51.777  1.00  0.00     0.231 C 
HETATM   29  O   UNL     1      24.299  44.650  52.428  1.00  0.00    -0.273 OA
HETATM   30  C   UNL     1      25.334  46.790  52.378  1.00  0.00     0.113 C 
HETATM   31  C   UNL     1      26.377  47.304  51.423  1.00  0.00     0.113 C 
HETATM   32  C   UNL     1      26.141  46.514  50.170  1.00  0.00     0.231 C 
HETATM   33  O   UNL     1      26.647  46.844  49.106  1.00  0.00    -0.273 OA
ENDBRANCH  23  27
ENDBRANCH   2  21
TORSDOF 4
ENDMDL
MODEL 8
REMARK VINA RESULT:      -9.5      2.711      4.606
REMARK  4 active torsions:
REMARK  status: ('A' for Active; 'I' for Inactive)
REMARK    1  A    between atoms: C_3  and  C_4 
REMARK    2  A    between atoms: C_14  and  N_15 
REMARK       I    between atoms: N_15  and  C_16 
REMARK    3  A    between atoms: C_16  and  C_17 
REMARK    4  A    between atoms: C_19  and  N_20 
ROOT
HETATM    1  N   UNL     1      25.152  47.131  51.686  1.00  0.00    -0.322 N 
HETATM    2  C   UNL     1      25.582  47.521  50.436  1.00  0.00     0.256 C 
HETATM    3  O   UNL     1      26.726  47.581  50.009  1.00  0.00    -0.267 OA
HETATM    4  H   UNL     1      24.155  47.199  51.867  1.00  0.00     0.169 HD
ENDROOT
BRANCH   1   5
HETATM    5  C   UNL     1      25.928  46.524  52.708  1.00  0.00     0.049 A 
HETATM    6  C   UNL     1      26.187  45.134  52.653  1.00  0.00     0.037 A 
HETATM    7  C   UNL     1      27.076  44.559  53.577  1.00  0.00     0.017 A 
HETATM    8  C   UNL     1      27.668  45.330  54.573  1.00  0.00     0.001 A 
HETATM    9  C   UNL     1      27.374  46.687  54.659  1.00  0.00     0.002 A 
HETATM   10  C   UNL     1      26.511  47.280  53.733  1.00  0.00     0.030 A 
BRANCH   6  11
HETATM   11  C   UNL     1      25.508  44.236  51.717  1.00  0.00     0.141 A 
HETATM   12  N   UNL     1      24.227  44.235  51.405  1.00  0.00    -0.228 NA
HETATM   13  C   UNL     1      24.069  43.252  50.458  1.00  0.00     0.086 A 
HETATM   14  C   UNL     1      25.283  42.642  50.169  1.00  0.00     0.062 A 
HETATM   15  C   UNL     1      22.911  42.826  49.792  1.00  0.00     0.034 A 
HETATM   16  N   UNL     1      26.184  43.305  50.958  1.00  0.00    -0.338 N 
HETATM   17  C   UNL     1      25.421  41.606  49.244  1.00  0.00     0.032 A 
HETATM   18  H   UNL     1      27.183  43.157  50.980  1.00  0.00     0.167 HD
HETATM   19  C   UNL     1      24.255  41.189  48.593  1.00  0.00     0.002 A 
HETATM   20  C   UNL     1      23.021  41.788  48.857  1.00  0.00     0.002 A 
ENDBRANCH   6  11
ENDBRANCH   1   5
BRANCH   2  21
HETATM   21  C   UNL     1      24.481  47.942  49.551  1.00  0.00     0.034 A 
HETATM   22  C   UNL     1      23.455  47.033  49.271  1.00  0.00     0.047 A 
HETATM   23  C   UNL     1      22.383  47.389  48.437  1.00  0.00     0.046 A 
HETATM   24  C   UNL     1      22.400  48.691  47.903  1.00  0.00     0.030 A 
HETATM   25  C   UNL     1      23.435  49.597  48.182  1.00  0.00     0.003 A 
HETATM   26  C   UNL     1      24.486  49.224  49.010  1.00  0.00     0.017 A 
BRANCH  23  27
HETATM   27  N   UNL     1      21.329  46.463  48.137  1.00  0.00    -0.252 N 
HETATM   28  C   UNL     1      20.043  46.559  48.627  1.00  0.00     0.231 C 
HETATM   29  O   UNL     1      19.523  47.456  49.276  1.00  0.00    -0.273 OA
HETATM   30  C   UNL     1      19.279  45.329  48.243  1.00  0.00     0.113 C 
HETATM   31  C   UNL     1      20.112  44.719  47.149  1.00  0.00     0.113 C 
HETATM   32  C   UNL     1      21.455  45.364  47.313  1.00  0.00     0.231 C 
HETATM   33  O   UNL     1      22.446  44.922  46.749  1.00  0.00    -0.273 OA
ENDBRANCH  23  27
ENDBRANCH   2  21
TORSDOF 4
ENDMDL
MODEL 9
REMARK VINA RESULT:      -9.3      1.741      4.628
REMARK  4 active torsions:
REMARK  status: ('A' for Active; 'I' for Inactive)
REMARK    1  A    between atoms: C_3  and  C_4 
REMARK    2  A    between atoms: C_14  and  N_15 
REMARK       I    between atoms: N_15  and  C_16 
REMARK    3  A    between atoms: C_16  and  C_17 
REMARK    4  A    between atoms: C_19  and  N_20 
ROOT
HETATM    1  N   UNL     1      26.749  43.390  49.936  1.00  0.00    -0.322 N 
HETATM    2  C   UNL     1      25.426  43.774  49.955  1.00  0.00     0.256 C 
HETATM    3  O   UNL     1      24.438  43.112  49.675  1.00  0.00    -0.267 OA
HETATM    4  H   UNL     1      27.435  44.106  50.155  1.00  0.00     0.169 HD
ENDROOT
BRANCH   1   5
HETATM    5  C   UNL     1      27.258  42.075  49.772  1.00  0.00     0.049 A 
HETATM    6  C   UNL     1      28.008  41.483  50.815  1.00  0.00     0.037 A 
HETATM    7  C   UNL     1      28.383  40.132  50.718  1.00  0.00     0.017 A 
HETATM    8  C   UNL     1      28.066  39.384  49.588  1.00  0.00     0.001 A 
HETATM    9  C   UNL     1      27.372  39.979  48.540  1.00  0.00     0.002 A 
HETATM   10  C   UNL     1      26.970  41.315  48.632  1.00  0.00     0.030 A 
BRANCH   6  11
HETATM   11  C   UNL     1      28.488  42.237  51.976  1.00  0.00     0.141 A 
HETATM   12  N   UNL     1      27.861  43.213  52.603  1.00  0.00    -0.228 NA
HETATM   13  C   UNL     1      28.675  43.575  53.648  1.00  0.00     0.086 A 
HETATM   14  C   UNL     1      29.824  42.795  53.675  1.00  0.00     0.062 A 
HETATM   15  C   UNL     1      28.495  44.563  54.626  1.00  0.00     0.034 A 
HETATM   16  N   UNL     1      29.667  41.935  52.622  1.00  0.00    -0.338 N 
HETATM   17  C   UNL     1      30.833  42.944  54.629  1.00  0.00     0.032 A 
HETATM   18  H   UNL     1      30.294  41.188  52.360  1.00  0.00     0.167 HD
HETATM   19  C   UNL     1      30.639  43.939  55.594  1.00  0.00     0.002 A 
HETATM   20  C   UNL     1      29.490  44.735  55.597  1.00  0.00     0.002 A 
ENDBRANCH   6  11
ENDBRANCH   1   5
BRANCH   2  21
HETATM   21  C   UNL     1      25.238  45.185  50.335  1.00  0.00     0.034 A 
HETATM   22  C   UNL     1      24.487  46.017  49.496  1.00  0.00     0.047 A 
HETATM   23  C   UNL     1      24.277  47.367  49.817  1.00  0.00     0.046 A 
HETATM   24  C   UNL     1      24.860  47.833  51.011  1.00  0.00     0.030 A 
HETATM   25  C   UNL     1      25.618  46.997  51.845  1.00  0.00     0.003 A 
HETATM   26  C   UNL     1      25.813  45.664  51.509  1.00  0.00     0.017 A 
BRANCH  23  27
HETATM   27  N   UNL     1      23.514  48.229  48.962  1.00  0.00    -0.252 N 
HETATM   28  C   UNL     1      24.000  49.380  48.378  1.00  0.00     0.231 C 
HETATM   29  O   UNL     1      25.141  49.821  48.360  1.00  0.00    -0.273 OA
HETATM   30  C   UNL     1      22.873  50.102  47.704  1.00  0.00     0.113 C 
HETATM   31  C   UNL     1      21.792  49.060  47.603  1.00  0.00     0.113 C 
HETATM   32  C   UNL     1      22.199  48.018  48.600  1.00  0.00     0.231 C 
HETATM   33  O   UNL     1      21.421  47.146  48.961  1.00  0.00    -0.273 OA
ENDBRANCH  23  27
ENDBRANCH   2  21
TORSDOF 4
ENDMDL
MODEL 10
REMARK VINA RESULT:      -9.2      3.574      7.171
REMARK  4 active torsions:
REMARK  status: ('A' for Active; 'I' for Inactive)
REMARK    1  A    between atoms: C_3  and  C_4 
REMARK    2  A    between atoms: C_14  and  N_15 
REMARK       I    between atoms: N_15  and  C_16 
REMARK    3  A    between atoms: C_16  and  C_17 
REMARK    4  A    between atoms: C_19  and  N_20 
ROOT
HETATM    1  N   UNL     1      24.860  44.446  50.130  1.00  0.00    -0.322 N 
HETATM    2  C   UNL     1      23.865  43.502  50.257  1.00  0.00     0.256 C 
HETATM    3  O   UNL     1      23.537  42.870  51.250  1.00  0.00    -0.267 OA
HETATM    4  H   UNL     1      25.014  44.826  49.201  1.00  0.00     0.169 HD
ENDROOT
BRANCH   1   5
HETATM    5  C   UNL     1      25.610  45.046  51.176  1.00  0.00     0.049 A 
HETATM    6  C   UNL     1      25.475  46.432  51.424  1.00  0.00     0.037 A 
HETATM    7  C   UNL     1      26.099  46.997  52.549  1.00  0.00     0.017 A 
HETATM    8  C   UNL     1      26.885  46.220  53.395  1.00  0.00     0.001 A 
HETATM    9  C   UNL     1      27.060  44.868  53.123  1.00  0.00     0.002 A 
HETATM   10  C   UNL     1      26.426  44.284  52.022  1.00  0.00     0.030 A 
BRANCH   6  11
HETATM   11  C   UNL     1      24.771  47.337  50.514  1.00  0.00     0.141 A 
HETATM   12  N   UNL     1      25.286  48.356  49.852  1.00  0.00    -0.228 NA
HETATM   13  C   UNL     1      24.261  48.872  49.097  1.00  0.00     0.086 A 
HETATM   14  C   UNL     1      23.091  48.148  49.287  1.00  0.00     0.062 A 
HETATM   15  C   UNL     1      24.256  49.963  48.216  1.00  0.00     0.034 A 
HETATM   16  N   UNL     1      23.449  47.163  50.167  1.00  0.00    -0.338 N 
HETATM   17  C   UNL     1      21.887  48.451  48.648  1.00  0.00     0.032 A 
HETATM   18  H   UNL     1      22.858  46.415  50.503  1.00  0.00     0.167 HD
HETATM   19  C   UNL     1      21.899  49.546  47.777  1.00  0.00     0.002 A 
HETATM   20  C   UNL     1      23.062  50.289  47.559  1.00  0.00     0.002 A 
ENDBRANCH   6  11
ENDBRANCH   1   5
BRANCH   2  21
HETATM   21  C   UNL     1      23.159  43.232  48.991  1.00  0.00     0.034 A 
HETATM   22  C   UNL     1      22.270  44.193  48.495  1.00  0.00     0.047 A 
HETATM   23  C   UNL     1      21.577  43.984  47.293  1.00  0.00     0.046 A 
HETATM   24  C   UNL     1      21.821  42.770  46.624  1.00  0.00     0.030 A 
HETATM   25  C   UNL     1      22.708  41.807  47.127  1.00  0.00     0.003 A 
HETATM   26  C   UNL     1      23.383  42.034  48.320  1.00  0.00     0.017 A 
BRANCH  23  27
HETATM   27  N   UNL     1      20.660  44.959  46.778  1.00  0.00    -0.252 N 
HETATM   28  C   UNL     1      20.976  45.902  45.822  1.00  0.00     0.231 C 
HETATM   29  O   UNL     1      21.998  46.026  45.160  1.00  0.00    -0.273 OA
HETATM   30  C   UNL     1      19.825  46.848  45.667  1.00  0.00     0.113 C 
HETATM   31  C   UNL     1      18.677  46.123  46.314  1.00  0.00     0.113 C 
HETATM   32  C   UNL     1      19.339  45.077  47.159  1.00  0.00     0.231 C 
HETATM   33  O   UNL     1      18.717  44.465  48.017  1.00  0.00    -0.273 OA
ENDBRANCH  23  27
ENDBRANCH   2  21
TORSDOF 4
ENDMDL
