MODEL 1
REMARK VINA RESULT:      -8.5      0.000      0.000
REMARK  5 active torsions:
REMARK  status: ('A' for Active; 'I' for Inactive)
REMARK    1  A    between atoms: C_2  and  C_3 
REMARK    2  A    between atoms: C_4  and  N_5 
REMARK       I    between atoms: N_5  and  C_6 
REMARK    3  A    between atoms: C_6  and  C_7 
REMARK    4  A    between atoms: C_10  and  O_11 
REMARK    5  A    between atoms: C_20  and  C_21 
ROOT
HETATM    1  C   UNL     1      28.553  44.011  53.675  1.00  0.00     0.018 A 
HETATM    2  C   UNL     1      28.582  43.283  52.499  1.00  0.00     0.133 A 
HETATM    3  N   UNL     1      29.805  42.690  52.442  1.00  0.00    -0.261 N 
HETATM    4  H   UNL     1      30.174  42.111  51.693  1.00  0.00     0.191 HD
HETATM    5  N   UNL     1      30.539  42.883  53.537  1.00  0.00    -0.172 NA
HETATM    6  C   UNL     1      29.802  43.684  54.332  1.00  0.00     0.097 A 
ENDROOT
BRANCH   2   7
HETATM    7  N   UNL     1      27.546  43.176  51.583  1.00  0.00    -0.307 N 
HETATM    8  C   UNL     1      26.845  41.943  51.384  1.00  0.00     0.260 C 
HETATM    9  O   UNL     1      27.241  40.927  51.935  1.00  0.00    -0.267 OA
HETATM   10  H   UNL     1      27.252  44.012  51.090  1.00  0.00     0.170 HD
BRANCH   8  11
HETATM   11  C   UNL     1      25.665  41.959  50.497  1.00  0.00     0.073 A 
HETATM   12  C   UNL     1      24.561  42.760  50.795  1.00  0.00     0.165 A 
HETATM   13  F   UNL     1      24.611  43.567  51.867  1.00  0.00    -0.202 F 
HETATM   14  C   UNL     1      23.425  42.734  49.983  1.00  0.00     0.107 A 
HETATM   15  C   UNL     1      23.430  41.935  48.836  1.00  0.00     0.040 A 
HETATM   16  C   UNL     1      24.532  41.134  48.529  1.00  0.00     0.004 A 
HETATM   17  C   UNL     1      25.647  41.133  49.366  1.00  0.00     0.020 A 
BRANCH  14  18
HETATM   18  O   UNL     1      22.278  43.452  50.177  1.00  0.00    -0.353 OA
HETATM   19  C   UNL     1      21.925  44.369  49.146  1.00  0.00     0.210 C 
ENDBRANCH  14  18
ENDBRANCH   8  11
ENDBRANCH   2   7
BRANCH   1  20
HETATM   20  C   UNL     1      27.444  44.917  54.101  1.00  0.00     0.040 C 
HETATM   21  C   UNL     1      26.281  44.172  54.737  1.00  0.00     0.010 C 
ENDBRANCH   1  20
BRANCH   6  22
HETATM   22  C   UNL     1      30.353  44.053  55.655  1.00  0.00    -0.002 A 
HETATM   23  C   UNL     1      31.267  43.190  56.282  1.00  0.00     0.033 A 
HETATM   24  C   UNL     1      31.772  43.511  57.531  1.00  0.00     0.117 A 
HETATM   25  N   UNL     1      31.439  44.630  58.202  1.00  0.00    -0.273 NA
HETATM   26  C   UNL     1      30.564  45.453  57.596  1.00  0.00     0.117 A 
HETATM   27  C   UNL     1      30.000  45.211  56.349  1.00  0.00     0.033 A 
ENDBRANCH   6  22
TORSDOF 5
ENDMDL
MODEL 2
REMARK VINA RESULT:      -8.5      2.983      3.449
REMARK  5 active torsions:
REMARK  status: ('A' for Active; 'I' for Inactive)
REMARK    1  A    between atoms: C_2  and  C_3 
REMARK    2  A    between atoms: C_4  and  N_5 
REMARK       I    between atoms: N_5  and  C_6 
REMARK    3  A    between atoms: C_6  and  C_7 
REMARK    4  A    between atoms: C_10  and  O_11 
REMARK    5  A    between atoms: C_20  and  C_21 
ROOT
HETATM    1  C   UNL     1      28.333  45.549  54.321  1.00  0.00     0.018 A 
HETATM    2  C   UNL     1      27.543  44.922  53.375  1.00  0.00     0.133 A 
HETATM    3  N   UNL     1      27.895  43.607  53.387  1.00  0.00    -0.261 N 
HETATM    4  H   UNL     1      27.536  42.867  52.790  1.00  0.00     0.191 HD
HETATM    5  N   UNL     1      28.776  43.304  54.340  1.00  0.00    -0.172 NA
HETATM    6  C   UNL     1      29.067  44.470  54.950  1.00  0.00     0.097 A 
ENDROOT
BRANCH   2   7
HETATM    7  N   UNL     1      26.572  45.529  52.593  1.00  0.00    -0.307 N 
HETATM    8  C   UNL     1      26.522  45.334  51.174  1.00  0.00     0.260 C 
HETATM    9  O   UNL     1      27.421  44.724  50.616  1.00  0.00    -0.267 OA
HETATM   10  H   UNL     1      25.854  46.076  53.055  1.00  0.00     0.170 HD
BRANCH   8  11
HETATM   11  C   UNL     1      25.370  45.899  50.444  1.00  0.00     0.073 A 
HETATM   12  C   UNL     1      25.236  47.280  50.284  1.00  0.00     0.165 A 
HETATM   13  F   UNL     1      26.203  48.087  50.749  1.00  0.00    -0.202 F 
HETATM   14  C   UNL     1      24.120  47.815  49.638  1.00  0.00     0.107 A 
HETATM   15  C   UNL     1      23.164  46.946  49.104  1.00  0.00     0.040 A 
HETATM   16  C   UNL     1      23.293  45.563  49.256  1.00  0.00     0.004 A 
HETATM   17  C   UNL     1      24.389  45.037  49.938  1.00  0.00     0.020 A 
BRANCH  14  18
HETATM   18  O   UNL     1      23.864  49.143  49.437  1.00  0.00    -0.353 OA
HETATM   19  C   UNL     1      24.557  49.763  48.359  1.00  0.00     0.210 C 
ENDBRANCH  14  18
ENDBRANCH   8  11
ENDBRANCH   2   7
BRANCH   1  20
HETATM   20  C   UNL     1      28.369  47.021  54.575  1.00  0.00     0.040 C 
HETATM   21  C   UNL     1      27.274  47.487  55.520  1.00  0.00     0.010 C 
ENDBRANCH   1  20
BRANCH   6  22
HETATM   22  C   UNL     1      30.011  44.445  56.090  1.00  0.00    -0.002 A 
HETATM   23  C   UNL     1      31.005  43.454  56.135  1.00  0.00     0.033 A 
HETATM   24  C   UNL     1      31.880  43.404  57.207  1.00  0.00     0.117 A 
HETATM   25  N   UNL     1      31.842  44.270  58.237  1.00  0.00    -0.273 NA
HETATM   26  C   UNL     1      30.888  45.219  58.188  1.00  0.00     0.117 A 
HETATM   27  C   UNL     1      29.964  45.342  57.158  1.00  0.00     0.033 A 
ENDBRANCH   6  22
TORSDOF 5
ENDMDL
MODEL 3
REMARK VINA RESULT:      -8.3      2.440      3.130
REMARK  5 active torsions:
REMARK  status: ('A' for Active; 'I' for Inactive)
REMARK    1  A    between atoms: C_2  and  C_3 
REMARK    2  A    between atoms: C_4  and  N_5 
REMARK       I    between atoms: N_5  and  C_6 
REMARK    3  A    between atoms: C_6  and  C_7 
REMARK    4  A    between atoms: C_10  and  O_11 
REMARK    5  A    between atoms: C_20  and  C_21 
ROOT
HETATM    1  C   UNL     1      28.237  44.483  54.170  1.00  0.00     0.018 A 
HETATM    2  C   UNL     1      27.371  45.395  53.595  1.00  0.00     0.133 A 
HETATM    3  N   UNL     1      27.386  46.499  54.392  1.00  0.00    -0.261 N 
HETATM    4  H   UNL     1      26.836  47.346  54.281  1.00  0.00     0.191 HD
HETATM    5  N   UNL     1      28.273  46.424  55.383  1.00  0.00    -0.172 NA
HETATM    6  C   UNL     1      28.831  45.201  55.280  1.00  0.00     0.097 A 
ENDROOT
BRANCH   2   7
HETATM    7  N   UNL     1      26.654  45.209  52.422  1.00  0.00    -0.307 N 
HETATM    8  C   UNL     1      25.254  44.904  52.440  1.00  0.00     0.260 C 
HETATM    9  O   UNL     1      24.699  44.677  53.504  1.00  0.00    -0.267 OA
HETATM   10  H   UNL     1      27.131  45.350  51.539  1.00  0.00     0.170 HD
BRANCH   8  11
HETATM   11  C   UNL     1      24.543  44.868  51.147  1.00  0.00     0.073 A 
HETATM   12  C   UNL     1      24.306  46.042  50.431  1.00  0.00     0.165 A 
HETATM   13  F   UNL     1      24.792  47.202  50.901  1.00  0.00    -0.202 F 
HETATM   14  C   UNL     1      23.588  46.012  49.234  1.00  0.00     0.107 A 
HETATM   15  C   UNL     1      23.154  44.779  48.735  1.00  0.00     0.040 A 
HETATM   16  C   UNL     1      23.390  43.600  49.444  1.00  0.00     0.004 A 
HETATM   17  C   UNL     1      24.072  43.642  50.659  1.00  0.00     0.020 A 
BRANCH  14  18
HETATM   18  O   UNL     1      23.275  47.089  48.453  1.00  0.00    -0.353 OA
HETATM   19  C   UNL     1      22.165  47.875  48.875  1.00  0.00     0.210 C 
ENDBRANCH  14  18
ENDBRANCH   8  11
ENDBRANCH   2   7
BRANCH   1  20
HETATM   20  C   UNL     1      28.453  43.083  53.697  1.00  0.00     0.040 C 
HETATM   21  C   UNL     1      29.635  42.952  52.751  1.00  0.00     0.010 C 
ENDBRANCH   1  20
BRANCH   6  22
HETATM   22  C   UNL     1      29.893  44.835  56.243  1.00  0.00    -0.002 A 
HETATM   23  C   UNL     1      30.015  45.563  57.438  1.00  0.00     0.033 A 
HETATM   24  C   UNL     1      31.019  45.246  58.338  1.00  0.00     0.117 A 
HETATM   25  N   UNL     1      31.910  44.256  58.139  1.00  0.00    -0.273 NA
HETATM   26  C   UNL     1      31.788  43.562  56.992  1.00  0.00     0.117 A 
HETATM   27  C   UNL     1      30.818  43.812  56.029  1.00  0.00     0.033 A 
ENDBRANCH   6  22
TORSDOF 5
ENDMDL
MODEL 4
REMARK VINA RESULT:      -8.1      1.981      2.823
REMARK  5 active torsions:
REMARK  status: ('A' for Active; 'I' for Inactive)
REMARK    1  A    between atoms: C_2  and  C_3 
REMARK    2  A    between atoms: C_4  and  N_5 
REMARK       I    between atoms: N_5  and  C_6 
REMARK    3  A    between atoms: C_6  and  C_7 
REMARK    4  A    between atoms: C_10  and  O_11 
REMARK    5  A    between atoms: C_20  and  C_21 
ROOT
HETATM    1  C   UNL     1      28.329  43.962  54.175  1.00  0.00     0.018 A 
HETATM    2  C   UNL     1      27.469  44.757  53.439  1.00  0.00     0.133 A 
HETATM    3  N   UNL     1      27.441  45.970  54.056  1.00  0.00    -0.261 N 
HETATM    4  H   UNL     1      26.882  46.779  53.798  1.00  0.00     0.191 HD
HETATM    5  N   UNL     1      28.296  46.067  55.073  1.00  0.00    -0.172 NA
HETATM    6  C   UNL     1      28.875  44.855  55.178  1.00  0.00     0.097 A 
ENDROOT
BRANCH   2   7
HETATM    7  N   UNL     1      26.794  44.377  52.289  1.00  0.00    -0.307 N 
HETATM    8  C   UNL     1      25.376  44.175  52.284  1.00  0.00     0.260 C 
HETATM    9  O   UNL     1      24.757  44.212  53.337  1.00  0.00    -0.267 OA
HETATM   10  H   UNL     1      27.320  44.299  51.426  1.00  0.00     0.170 HD
BRANCH   8  11
HETATM   11  C   UNL     1      24.723  43.916  50.986  1.00  0.00     0.073 A 
HETATM   12  C   UNL     1      24.806  42.658  50.385  1.00  0.00     0.165 A 
HETATM   13  F   UNL     1      25.434  41.665  51.036  1.00  0.00    -0.202 F 
HETATM   14  C   UNL     1      24.232  42.430  49.133  1.00  0.00     0.107 A 
HETATM   15  C   UNL     1      23.526  43.464  48.512  1.00  0.00     0.040 A 
HETATM   16  C   UNL     1      23.435  44.724  49.108  1.00  0.00     0.004 A 
HETATM   17  C   UNL     1      24.046  44.957  50.340  1.00  0.00     0.020 A 
BRANCH  14  18
HETATM   18  O   UNL     1      24.261  41.255  48.434  1.00  0.00    -0.353 OA
HETATM   19  C   UNL     1      24.252  41.364  47.014  1.00  0.00     0.210 C 
ENDBRANCH  14  18
ENDBRANCH   8  11
ENDBRANCH   2   7
BRANCH   1  20
HETATM   20  C   UNL     1      28.582  42.510  53.933  1.00  0.00     0.040 C 
HETATM   21  C   UNL     1      29.714  42.262  52.948  1.00  0.00     0.010 C 
ENDBRANCH   1  20
BRANCH   6  22
HETATM   22  C   UNL     1      29.910  44.663  56.218  1.00  0.00    -0.002 A 
HETATM   23  C   UNL     1      29.914  45.503  57.344  1.00  0.00     0.033 A 
HETATM   24  C   UNL     1      30.891  45.350  58.314  1.00  0.00     0.117 A 
HETATM   25  N   UNL     1      31.864  44.422  58.249  1.00  0.00    -0.273 NA
HETATM   26  C   UNL     1      31.855  43.619  57.167  1.00  0.00     0.117 A 
HETATM   27  C   UNL     1      30.920  43.703  56.143  1.00  0.00     0.033 A 
ENDBRANCH   6  22
TORSDOF 5
ENDMDL
MODEL 5
REMARK VINA RESULT:      -7.8      3.296      8.628
REMARK  5 active torsions:
REMARK  status: ('A' for Active; 'I' for Inactive)
REMARK    1  A    between atoms: C_2  and  C_3 
REMARK    2  A    between atoms: C_4  and  N_5 
REMARK       I    between atoms: N_5  and  C_6 
REMARK    3  A    between atoms: C_6  and  C_7 
REMARK    4  A    between atoms: C_10  and  O_11 
REMARK    5  A    between atoms: C_20  and  C_21 
ROOT
HETATM    1  C   UNL     1      25.232  45.155  51.018  1.00  0.00     0.018 A 
HETATM    2  C   UNL     1      25.776  44.207  51.864  1.00  0.00     0.133 A 
HETATM    3  N   UNL     1      24.935  43.137  51.838  1.00  0.00    -0.261 N 
HETATM    4  H   UNL     1      25.016  42.277  52.374  1.00  0.00     0.191 HD
HETATM    5  N   UNL     1      23.942  43.265  50.959  1.00  0.00    -0.172 NA
HETATM    6  C   UNL     1      24.090  44.492  50.421  1.00  0.00     0.097 A 
ENDROOT
BRANCH   2   7
HETATM    7  N   UNL     1      26.959  44.334  52.576  1.00  0.00    -0.307 N 
HETATM    8  C   UNL     1      27.013  44.106  53.989  1.00  0.00     0.260 C 
HETATM    9  O   UNL     1      25.978  43.918  54.611  1.00  0.00    -0.267 OA
HETATM   10  H   UNL     1      27.810  44.539  52.063  1.00  0.00     0.170 HD
BRANCH   8  11
HETATM   11  C   UNL     1      28.339  44.121  54.638  1.00  0.00     0.073 A 
HETATM   12  C   UNL     1      28.699  45.158  55.501  1.00  0.00     0.165 A 
HETATM   13  F   UNL     1      27.797  46.111  55.786  1.00  0.00    -0.202 F 
HETATM   14  C   UNL     1      29.972  45.197  56.072  1.00  0.00     0.107 A 
HETATM   15  C   UNL     1      30.865  44.153  55.811  1.00  0.00     0.040 A 
HETATM   16  C   UNL     1      30.511  43.110  54.952  1.00  0.00     0.004 A 
HETATM   17  C   UNL     1      29.253  43.099  54.352  1.00  0.00     0.020 A 
BRANCH  14  18
HETATM   18  O   UNL     1      30.450  46.163  56.913  1.00  0.00    -0.353 OA
HETATM   19  C   UNL     1      30.586  45.798  58.282  1.00  0.00     0.210 C 
ENDBRANCH  14  18
ENDBRANCH   8  11
ENDBRANCH   2   7
BRANCH   1  20
HETATM   20  C   UNL     1      25.759  46.539  50.821  1.00  0.00     0.040 C 
HETATM   21  C   UNL     1      26.772  46.632  49.691  1.00  0.00     0.010 C 
ENDBRANCH   1  20
BRANCH   6  22
HETATM   22  C   UNL     1      23.135  44.914  49.371  1.00  0.00    -0.002 A 
HETATM   23  C   UNL     1      22.357  43.942  48.722  1.00  0.00     0.033 A 
HETATM   24  C   UNL     1      21.476  44.320  47.722  1.00  0.00     0.117 A 
HETATM   25  N   UNL     1      21.310  45.594  47.321  1.00  0.00    -0.273 NA
HETATM   26  C   UNL     1      22.059  46.522  47.947  1.00  0.00     0.117 A 
HETATM   27  C   UNL     1      22.971  46.236  48.956  1.00  0.00     0.033 A 
ENDBRANCH   6  22
TORSDOF 5
ENDMDL
MODEL 6
REMARK VINA RESULT:      -7.7      3.490      5.413
REMARK  5 active torsions:
REMARK  status: ('A' for Active; 'I' for Inactive)
REMARK    1  A    between atoms: C_2  and  C_3 
REMARK    2  A    between atoms: C_4  and  N_5 
REMARK       I    between atoms: N_5  and  C_6 
REMARK    3  A    between atoms: C_6  and  C_7 
REMARK    4  A    between atoms: C_10  and  O_11 
REMARK    5  A    between atoms: C_20  and  C_21 
ROOT
HETATM    1  C   UNL     1      27.333  43.300  52.800  1.00  0.00     0.018 A 
HETATM    2  C   UNL     1      26.818  42.730  51.650  1.00  0.00     0.133 A 
HETATM    3  N   UNL     1      25.872  43.590  51.183  1.00  0.00    -0.261 N 
HETATM    4  H   UNL     1      25.272  43.464  50.372  1.00  0.00     0.191 HD
HETATM    5  N   UNL     1      25.802  44.727  51.874  1.00  0.00    -0.172 NA
HETATM    6  C   UNL     1      26.693  44.598  52.876  1.00  0.00     0.097 A 
ENDROOT
BRANCH   2   7
HETATM    7  N   UNL     1      27.217  41.526  51.089  1.00  0.00    -0.307 N 
HETATM    8  C   UNL     1      27.517  41.413  49.692  1.00  0.00     0.260 C 
HETATM    9  O   UNL     1      27.298  42.357  48.949  1.00  0.00    -0.267 OA
HETATM   10  H   UNL     1      27.351  40.730  51.702  1.00  0.00     0.170 HD
BRANCH   8  11
HETATM   11  C   UNL     1      28.074  40.133  49.211  1.00  0.00     0.073 A 
HETATM   12  C   UNL     1      28.893  39.359  50.034  1.00  0.00     0.165 A 
HETATM   13  F   UNL     1      29.117  39.760  51.296  1.00  0.00    -0.202 F 
HETATM   14  C   UNL     1      29.462  38.175  49.559  1.00  0.00     0.107 A 
HETATM   15  C   UNL     1      29.154  37.748  48.264  1.00  0.00     0.040 A 
HETATM   16  C   UNL     1      28.332  38.515  47.436  1.00  0.00     0.004 A 
HETATM   17  C   UNL     1      27.802  39.717  47.902  1.00  0.00     0.020 A 
BRANCH  14  18
HETATM   18  O   UNL     1      30.292  37.342  50.256  1.00  0.00    -0.353 OA
HETATM   19  C   UNL     1      29.689  36.568  51.288  1.00  0.00     0.210 C 
ENDBRANCH  14  18
ENDBRANCH   8  11
ENDBRANCH   2   7
BRANCH   1  20
HETATM   20  C   UNL     1      28.322  42.654  53.714  1.00  0.00     0.040 C 
HETATM   21  C   UNL     1      29.760  42.830  53.251  1.00  0.00     0.010 C 
ENDBRANCH   1  20
BRANCH   6  22
HETATM   22  C   UNL     1      26.865  45.734  53.809  1.00  0.00    -0.002 A 
HETATM   23  C   UNL     1      25.934  46.786  53.786  1.00  0.00     0.033 A 
HETATM   24  C   UNL     1      26.095  47.867  54.637  1.00  0.00     0.117 A 
HETATM   25  N   UNL     1      27.113  47.979  55.511  1.00  0.00    -0.273 NA
HETATM   26  C   UNL     1      28.002  46.968  55.529  1.00  0.00     0.117 A 
HETATM   27  C   UNL     1      27.925  45.848  54.709  1.00  0.00     0.033 A 
ENDBRANCH   6  22
TORSDOF 5
ENDMDL
MODEL 7
REMARK VINA RESULT:      -7.5      7.379     11.752
REMARK  5 active torsions:
REMARK  status: ('A' for Active; 'I' for Inactive)
REMARK    1  A    between atoms: C_2  and  C_3 
REMARK    2  A    between atoms: C_4  and  N_5 
REMARK       I    between atoms: N_5  and  C_6 
REMARK    3  A    between atoms: C_6  and  C_7 
REMARK    4  A    between atoms: C_10  and  O_11 
REMARK    5  A    between atoms: C_20  and  C_21 
ROOT
HETATM    1  C   UNL     1      19.839  49.797  49.439  1.00  0.00     0.018 A 
HETATM    2  C   UNL     1      21.201  49.969  49.271  1.00  0.00     0.133 A 
HETATM    3  N   UNL     1      21.370  51.197  48.709  1.00  0.00    -0.261 N 
HETATM    4  H   UNL     1      22.244  51.627  48.419  1.00  0.00     0.191 HD
HETATM    5  N   UNL     1      20.236  51.887  48.596  1.00  0.00    -0.172 NA
HETATM    6  C   UNL     1      19.265  51.067  49.044  1.00  0.00     0.097 A 
ENDROOT
BRANCH   2   7
HETATM    7  N   UNL     1      22.187  49.062  49.631  1.00  0.00    -0.307 N 
HETATM    8  C   UNL     1      23.231  48.690  48.724  1.00  0.00     0.260 C 
HETATM    9  O   UNL     1      23.192  49.077  47.566  1.00  0.00    -0.267 OA
HETATM   10  H   UNL     1      22.188  48.704  50.580  1.00  0.00     0.170 HD
BRANCH   8  11
HETATM   11  C   UNL     1      24.317  47.833  49.241  1.00  0.00     0.073 A 
HETATM   12  C   UNL     1      24.081  46.493  49.550  1.00  0.00     0.165 A 
HETATM   13  F   UNL     1      22.866  45.972  49.310  1.00  0.00    -0.202 F 
HETATM   14  C   UNL     1      25.096  45.698  50.087  1.00  0.00     0.107 A 
HETATM   15  C   UNL     1      26.369  46.249  50.261  1.00  0.00     0.040 A 
HETATM   16  C   UNL     1      26.614  47.589  49.950  1.00  0.00     0.004 A 
HETATM   17  C   UNL     1      25.585  48.388  49.453  1.00  0.00     0.020 A 
BRANCH  14  18
HETATM   18  O   UNL     1      24.986  44.384  50.448  1.00  0.00    -0.353 OA
HETATM   19  C   UNL     1      25.425  44.051  51.761  1.00  0.00     0.210 C 
ENDBRANCH  14  18
ENDBRANCH   8  11
ENDBRANCH   2   7
BRANCH   1  20
HETATM   20  C   UNL     1      19.181  48.545  49.920  1.00  0.00     0.040 C 
HETATM   21  C   UNL     1      18.598  48.682  51.318  1.00  0.00     0.010 C 
ENDBRANCH   1  20
BRANCH   6  22
HETATM   22  C   UNL     1      17.876  51.577  49.068  1.00  0.00    -0.002 A 
HETATM   23  C   UNL     1      16.928  51.027  48.189  1.00  0.00     0.033 A 
HETATM   24  C   UNL     1      15.631  51.511  48.184  1.00  0.00     0.117 A 
HETATM   25  N   UNL     1      15.203  52.500  48.991  1.00  0.00    -0.273 NA
HETATM   26  C   UNL     1      16.116  53.023  49.832  1.00  0.00     0.117 A 
HETATM   27  C   UNL     1      17.440  52.607  49.903  1.00  0.00     0.033 A 
ENDBRANCH   6  22
TORSDOF 5
ENDMDL
MODEL 8
REMARK VINA RESULT:      -7.4      6.181     10.654
REMARK  5 active torsions:
REMARK  status: ('A' for Active; 'I' for Inactive)
REMARK    1  A    between atoms: C_2  and  C_3 
REMARK    2  A    between atoms: C_4  and  N_5 
REMARK       I    between atoms: N_5  and  C_6 
REMARK    3  A    between atoms: C_6  and  C_7 
REMARK    4  A    between atoms: C_10  and  O_11 
REMARK    5  A    between atoms: C_20  and  C_21 
ROOT
HETATM    1  C   UNL     1      21.682  48.803  48.840  1.00  0.00     0.018 A 
HETATM    2  C   UNL     1      22.974  48.824  49.332  1.00  0.00     0.133 A 
HETATM    3  N   UNL     1      23.379  50.123  49.299  1.00  0.00    -0.261 N 
HETATM    4  H   UNL     1      24.292  50.490  49.557  1.00  0.00     0.191 HD
HETATM    5  N   UNL     1      22.419  50.968  48.928  1.00  0.00    -0.172 NA
HETATM    6  C   UNL     1      21.348  50.200  48.645  1.00  0.00     0.097 A 
ENDROOT
BRANCH   2   7
HETATM    7  N   UNL     1      23.691  47.726  49.783  1.00  0.00    -0.307 N 
HETATM    8  C   UNL     1      25.118  47.762  49.907  1.00  0.00     0.260 C 
HETATM    9  O   UNL     1      25.737  48.729  49.491  1.00  0.00    -0.267 OA
HETATM   10  H   UNL     1      23.176  46.905  50.082  1.00  0.00     0.170 HD
BRANCH   8  11
HETATM   11  C   UNL     1      25.782  46.601  50.533  1.00  0.00     0.073 A 
HETATM   12  C   UNL     1      25.844  46.479  51.922  1.00  0.00     0.165 A 
HETATM   13  F   UNL     1      25.233  47.400  52.686  1.00  0.00    -0.202 F 
HETATM   14  C   UNL     1      26.518  45.407  52.512  1.00  0.00     0.107 A 
HETATM   15  C   UNL     1      27.084  44.428  51.690  1.00  0.00     0.040 A 
HETATM   16  C   UNL     1      27.023  44.541  50.299  1.00  0.00     0.004 A 
HETATM   17  C   UNL     1      26.385  45.635  49.717  1.00  0.00     0.020 A 
BRANCH  14  18
HETATM   18  O   UNL     1      26.665  45.187  53.853  1.00  0.00    -0.353 OA
HETATM   19  C   UNL     1      28.001  45.058  54.328  1.00  0.00     0.210 C 
ENDBRANCH  14  18
ENDBRANCH   8  11
ENDBRANCH   2   7
BRANCH   1  20
HETATM   20  C   UNL     1      20.875  47.572  48.588  1.00  0.00     0.040 C 
HETATM   21  C   UNL     1      21.055  47.022  47.182  1.00  0.00     0.010 C 
ENDBRANCH   1  20
BRANCH   6  22
HETATM   22  C   UNL     1      20.097  50.871  48.228  1.00  0.00    -0.002 A 
HETATM   23  C   UNL     1      19.525  51.839  49.070  1.00  0.00     0.033 A 
HETATM   24  C   UNL     1      18.342  52.459  48.703  1.00  0.00     0.117 A 
HETATM   25  N   UNL     1      17.686  52.189  47.559  1.00  0.00    -0.273 NA
HETATM   26  C   UNL     1      18.239  51.261  46.755  1.00  0.00     0.117 A 
HETATM   27  C   UNL     1      19.418  50.584  47.043  1.00  0.00     0.033 A 
ENDBRANCH   6  22
TORSDOF 5
ENDMDL
MODEL 9
REMARK VINA RESULT:      -7.4      2.453      3.622
REMARK  5 active torsions:
REMARK  status: ('A' for Active; 'I' for Inactive)
REMARK    1  A    between atoms: C_2  and  C_3 
REMARK    2  A    between atoms: C_4  and  N_5 
REMARK       I    between atoms: N_5  and  C_6 
REMARK    3  A    between atoms: C_6  and  C_7 
REMARK    4  A    between atoms: C_10  and  O_11 
REMARK    5  A    between atoms: C_20  and  C_21 
ROOT
HETATM    1  C   UNL     1      27.485  42.999  53.293  1.00  0.00     0.018 A 
HETATM    2  C   UNL     1      26.605  43.308  52.272  1.00  0.00     0.133 A 
HETATM    3  N   UNL     1      26.352  44.642  52.370  1.00  0.00    -0.261 N 
HETATM    4  H   UNL     1      25.719  45.192  51.796  1.00  0.00     0.191 HD
HETATM    5  N   UNL     1      27.080  45.252  53.304  1.00  0.00    -0.172 NA
HETATM    6  C   UNL     1      27.803  44.279  53.894  1.00  0.00     0.097 A 
ENDROOT
BRANCH   2   7
HETATM    7  N   UNL     1      26.106  42.420  51.332  1.00  0.00    -0.307 N 
HETATM    8  C   UNL     1      26.464  42.514  49.948  1.00  0.00     0.260 C 
HETATM    9  O   UNL     1      27.120  43.467  49.557  1.00  0.00    -0.267 OA
HETATM   10  H   UNL     1      25.521  41.657  51.654  1.00  0.00     0.170 HD
BRANCH   8  11
HETATM   11  C   UNL     1      26.004  41.440  49.045  1.00  0.00     0.073 A 
HETATM   12  C   UNL     1      26.716  40.245  48.937  1.00  0.00     0.165 A 
HETATM   13  F   UNL     1      27.794  40.056  49.717  1.00  0.00    -0.202 F 
HETATM   14  C   UNL     1      26.308  39.252  48.044  1.00  0.00     0.107 A 
HETATM   15  C   UNL     1      25.143  39.450  47.297  1.00  0.00     0.040 A 
HETATM   16  C   UNL     1      24.422  40.642  47.401  1.00  0.00     0.004 A 
HETATM   17  C   UNL     1      24.859  41.646  48.265  1.00  0.00     0.020 A 
BRANCH  14  18
HETATM   18  O   UNL     1      26.928  38.052  47.833  1.00  0.00    -0.353 OA
HETATM   19  C   UNL     1      26.710  37.047  48.819  1.00  0.00     0.210 C 
ENDBRANCH  14  18
ENDBRANCH   8  11
ENDBRANCH   2   7
BRANCH   1  20
HETATM   20  C   UNL     1      27.954  41.625  53.642  1.00  0.00     0.040 C 
HETATM   21  C   UNL     1      29.035  41.111  52.704  1.00  0.00     0.010 C 
ENDBRANCH   1  20
BRANCH   6  22
HETATM   22  C   UNL     1      28.745  44.663  54.969  1.00  0.00    -0.002 A 
HETATM   23  C   UNL     1      29.949  43.953  55.111  1.00  0.00     0.033 A 
HETATM   24  C   UNL     1      30.828  44.286  56.128  1.00  0.00     0.117 A 
HETATM   25  N   UNL     1      30.602  45.276  57.013  1.00  0.00    -0.273 NA
HETATM   26  C   UNL     1      29.446  45.953  56.871  1.00  0.00     0.117 A 
HETATM   27  C   UNL     1      28.502  45.686  55.887  1.00  0.00     0.033 A 
ENDBRANCH   6  22
TORSDOF 5
ENDMDL
MODEL 10
REMARK VINA RESULT:      -7.3      5.137      8.095
REMARK  5 active torsions:
REMARK  status: ('A' for Active; 'I' for Inactive)
REMARK    1  A    between atoms: C_2  and  C_3 
REMARK    2  A    between atoms: C_4  and  N_5 
REMARK       I    between atoms: N_5  and  C_6 
REMARK    3  A    between atoms: C_6  and  C_7 
REMARK    4  A    between atoms: C_10  and  O_11 
REMARK    5  A    between atoms: C_20  and  C_21 
ROOT
HETATM    1  C   UNL     1      24.683  46.066  50.077  1.00  0.00     0.018 A 
HETATM    2  C   UNL     1      23.519  46.414  49.417  1.00  0.00     0.133 A 
HETATM    3  N   UNL     1      23.168  45.338  48.661  1.00  0.00    -0.261 N 
HETATM    4  H   UNL     1      22.380  45.264  48.022  1.00  0.00     0.191 HD
HETATM    5  N   UNL     1      23.947  44.275  48.857  1.00  0.00    -0.172 NA
HETATM    6  C   UNL     1      24.891  44.674  49.733  1.00  0.00     0.097 A 
ENDROOT
BRANCH   2   7
HETATM    7  N   UNL     1      22.848  47.622  49.532  1.00  0.00    -0.307 N 
HETATM    8  C   UNL     1      22.042  48.136  48.465  1.00  0.00     0.260 C 
HETATM    9  O   UNL     1      22.041  47.571  47.382  1.00  0.00    -0.267 OA
HETATM   10  H   UNL     1      22.891  48.113  50.417  1.00  0.00     0.170 HD
BRANCH   8  11
HETATM   11  C   UNL     1      21.248  49.353  48.729  1.00  0.00     0.073 A 
HETATM   12  C   UNL     1      20.063  49.285  49.463  1.00  0.00     0.165 A 
HETATM   13  F   UNL     1      19.685  48.106  49.985  1.00  0.00    -0.202 F 
HETATM   14  C   UNL     1      19.287  50.428  49.667  1.00  0.00     0.107 A 
HETATM   15  C   UNL     1      19.742  51.653  49.171  1.00  0.00     0.040 A 
HETATM   16  C   UNL     1      20.929  51.730  48.439  1.00  0.00     0.004 A 
HETATM   17  C   UNL     1      21.677  50.578  48.203  1.00  0.00     0.020 A 
BRANCH  14  18
HETATM   18  O   UNL     1      18.104  50.488  50.348  1.00  0.00    -0.353 OA
HETATM   19  C   UNL     1      17.114  51.365  49.818  1.00  0.00     0.210 C 
ENDBRANCH  14  18
ENDBRANCH   8  11
ENDBRANCH   2   7
BRANCH   1  20
HETATM   20  C   UNL     1      25.494  46.982  50.935  1.00  0.00     0.040 C 
HETATM   21  C   UNL     1      26.422  47.879  50.133  1.00  0.00     0.010 C 
ENDBRANCH   1  20
BRANCH   6  22
HETATM   22  C   UNL     1      25.899  43.683  50.172  1.00  0.00    -0.002 A 
HETATM   23  C   UNL     1      26.421  42.775  49.236  1.00  0.00     0.033 A 
HETATM   24  C   UNL     1      27.347  41.827  49.639  1.00  0.00     0.117 A 
HETATM   25  N   UNL     1      27.796  41.718  50.904  1.00  0.00    -0.273 NA
HETATM   26  C   UNL     1      27.292  42.591  51.796  1.00  0.00     0.117 A 
HETATM   27  C   UNL     1      26.356  43.570  51.486  1.00  0.00     0.033 A 
ENDBRANCH   6  22
TORSDOF 5
ENDMDL
