MODEL 1
REMARK VINA RESULT:      -9.2      0.000      0.000
REMARK  5 active torsions:
REMARK  status: ('A' for Active; 'I' for Inactive)
REMARK    1  A    between atoms: O_2  and  C_3 
REMARK    2  A    between atoms: C_4  and  N_5 
REMARK    3  A    between atoms: N_5  and  C_6 
REMARK    4  A    between atoms: C_6  and  C_7 
REMARK       I    between atoms: C_7  and  N_8 
REMARK    5  A    between atoms: N_8  and  C_9 
ROOT
HETATM    1  C   UNL     1      26.570  44.922  50.691  1.00  0.00     0.235 C 
HETATM    2  N   UNL     1      26.514  44.605  52.039  1.00  0.00    -0.326 N 
HETATM    3  O   UNL     1      27.557  44.843  49.964  1.00  0.00    -0.272 OA
HETATM    4  H   UNL     1      25.588  44.523  52.439  1.00  0.00     0.169 HD
ENDROOT
BRANCH   1   5
HETATM    5  C   UNL     1      25.227  45.413  50.134  1.00  0.00     0.195 C 
BRANCH   5   6
HETATM    6  N   UNL     1      24.943  46.788  50.535  1.00  0.00    -0.282 NA
HETATM    7  H   UNL     1      25.174  46.944  51.521  1.00  0.00     0.128 HD
BRANCH   6   8
HETATM    8  C   UNL     1      25.345  47.892  49.778  1.00  0.00     0.042 A 
HETATM    9  C   UNL     1      24.375  48.618  49.054  1.00  0.00     0.089 A 
HETATM   10  C   UNL     1      24.710  49.718  48.262  1.00  0.00     0.038 A 
HETATM   11  C   UNL     1      26.045  50.075  48.114  1.00  0.00     0.003 A 
HETATM   12  C   UNL     1      27.032  49.328  48.754  1.00  0.00     0.002 A 
HETATM   13  C   UNL     1      26.684  48.240  49.567  1.00  0.00     0.026 A 
BRANCH   9  14
HETATM   14  O   UNL     1      23.041  48.295  49.148  1.00  0.00    -0.354 OA
HETATM   15  C   UNL     1      22.252  49.480  49.285  1.00  0.00     0.210 C 
ENDBRANCH   9  14
ENDBRANCH   6   8
ENDBRANCH   5   6
ENDBRANCH   1   5
BRANCH   2  16
HETATM   16  C   UNL     1      27.595  44.316  52.899  1.00  0.00     0.035 A 
HETATM   17  C   UNL     1      27.964  45.115  53.983  1.00  0.00     0.042 A 
HETATM   18  C   UNL     1      29.021  44.746  54.838  1.00  0.00    -0.024 A 
HETATM   19  C   UNL     1      29.721  43.544  54.596  1.00  0.00    -0.026 A 
HETATM   20  C   UNL     1      29.391  45.547  55.931  1.00  0.00     0.012 A 
HETATM   21  C   UNL     1      29.353  42.749  53.502  1.00  0.00     0.014 A 
HETATM   22  C   UNL     1      30.767  43.172  55.457  1.00  0.00     0.012 A 
HETATM   23  C   UNL     1      28.302  43.133  52.664  1.00  0.00     0.030 A 
HETATM   24  C   UNL     1      31.120  43.978  56.542  1.00  0.00     0.001 A 
HETATM   25  C   UNL     1      30.433  45.164  56.777  1.00  0.00     0.001 A 
ENDBRANCH   2  16
TORSDOF 5
ENDMDL
MODEL 2
REMARK VINA RESULT:      -9.2      1.253      1.992
REMARK  5 active torsions:
REMARK  status: ('A' for Active; 'I' for Inactive)
REMARK    1  A    between atoms: O_2  and  C_3 
REMARK    2  A    between atoms: C_4  and  N_5 
REMARK    3  A    between atoms: N_5  and  C_6 
REMARK    4  A    between atoms: C_6  and  C_7 
REMARK       I    between atoms: C_7  and  N_8 
REMARK    5  A    between atoms: N_8  and  C_9 
ROOT
HETATM    1  C   UNL     1      25.309  45.172  52.342  1.00  0.00     0.235 C 
HETATM    2  N   UNL     1      26.511  45.825  52.561  1.00  0.00    -0.326 N 
HETATM    3  O   UNL     1      24.725  44.435  53.132  1.00  0.00    -0.272 OA
HETATM    4  H   UNL     1      26.750  46.553  51.899  1.00  0.00     0.169 HD
ENDROOT
BRANCH   1   5
HETATM    5  C   UNL     1      24.719  45.451  50.952  1.00  0.00     0.195 C 
BRANCH   5   6
HETATM    6  N   UNL     1      24.223  46.820  50.838  1.00  0.00    -0.282 NA
HETATM    7  H   UNL     1      24.010  47.217  51.758  1.00  0.00     0.128 HD
BRANCH   6   8
HETATM    8  C   UNL     1      24.850  47.785  50.044  1.00  0.00     0.042 A 
HETATM    9  C   UNL     1      24.058  48.625  49.231  1.00  0.00     0.089 A 
HETATM   10  C   UNL     1      24.619  49.596  48.400  1.00  0.00     0.038 A 
HETATM   11  C   UNL     1      26.001  49.699  48.302  1.00  0.00     0.003 A 
HETATM   12  C   UNL     1      26.809  48.830  49.033  1.00  0.00     0.002 A 
HETATM   13  C   UNL     1      26.237  47.875  49.885  1.00  0.00     0.026 A 
BRANCH   9  14
HETATM   14  O   UNL     1      22.685  48.551  49.273  1.00  0.00    -0.354 OA
HETATM   15  C   UNL     1      22.121  49.859  49.405  1.00  0.00     0.210 C 
ENDBRANCH   9  14
ENDBRANCH   6   8
ENDBRANCH   5   6
ENDBRANCH   1   5
BRANCH   2  16
HETATM   16  C   UNL     1      27.406  45.638  53.635  1.00  0.00     0.035 A 
HETATM   17  C   UNL     1      28.281  44.554  53.742  1.00  0.00     0.042 A 
HETATM   18  C   UNL     1      29.189  44.449  54.814  1.00  0.00    -0.024 A 
HETATM   19  C   UNL     1      29.219  45.460  55.799  1.00  0.00    -0.026 A 
HETATM   20  C   UNL     1      30.071  43.362  54.921  1.00  0.00     0.012 A 
HETATM   21  C   UNL     1      28.334  46.543  55.692  1.00  0.00     0.014 A 
HETATM   22  C   UNL     1      30.134  45.361  56.860  1.00  0.00     0.012 A 
HETATM   23  C   UNL     1      27.439  46.628  54.621  1.00  0.00     0.030 A 
HETATM   24  C   UNL     1      31.007  44.274  56.950  1.00  0.00     0.001 A 
HETATM   25  C   UNL     1      30.974  43.276  55.982  1.00  0.00     0.001 A 
ENDBRANCH   2  16
TORSDOF 5
ENDMDL
MODEL 3
REMARK VINA RESULT:      -9.1      1.019      1.919
REMARK  5 active torsions:
REMARK  status: ('A' for Active; 'I' for Inactive)
REMARK    1  A    between atoms: O_2  and  C_3 
REMARK    2  A    between atoms: C_4  and  N_5 
REMARK    3  A    between atoms: N_5  and  C_6 
REMARK    4  A    between atoms: C_6  and  C_7 
REMARK       I    between atoms: C_7  and  N_8 
REMARK    5  A    between atoms: N_8  and  C_9 
ROOT
HETATM    1  C   UNL     1      26.290  44.835  50.376  1.00  0.00     0.235 C 
HETATM    2  N   UNL     1      26.281  44.329  51.667  1.00  0.00    -0.326 N 
HETATM    3  O   UNL     1      27.283  45.044  49.683  1.00  0.00    -0.272 OA
HETATM    4  H   UNL     1      25.383  44.020  52.017  1.00  0.00     0.169 HD
ENDROOT
BRANCH   1   5
HETATM    5  C   UNL     1      24.884  45.135  49.839  1.00  0.00     0.195 C 
BRANCH   5   6
HETATM    6  N   UNL     1      24.364  46.398  50.358  1.00  0.00    -0.282 NA
HETATM    7  H   UNL     1      24.869  46.691  51.199  1.00  0.00     0.128 HD
BRANCH   6   8
HETATM    8  C   UNL     1      24.127  47.507  49.541  1.00  0.00     0.042 A 
HETATM    9  C   UNL     1      25.126  48.497  49.420  1.00  0.00     0.089 A 
HETATM   10  C   UNL     1      24.948  49.639  48.638  1.00  0.00     0.038 A 
HETATM   11  C   UNL     1      23.726  49.858  48.013  1.00  0.00     0.003 A 
HETATM   12  C   UNL     1      22.694  48.936  48.177  1.00  0.00     0.002 A 
HETATM   13  C   UNL     1      22.891  47.779  48.945  1.00  0.00     0.026 A 
BRANCH   9  14
HETATM   14  O   UNL     1      26.347  48.341  50.035  1.00  0.00    -0.354 OA
HETATM   15  C   UNL     1      27.403  48.699  49.140  1.00  0.00     0.210 C 
ENDBRANCH   9  14
ENDBRANCH   6   8
ENDBRANCH   5   6
ENDBRANCH   1   5
BRANCH   2  16
HETATM   16  C   UNL     1      27.387  44.133  52.520  1.00  0.00     0.035 A 
HETATM   17  C   UNL     1      27.667  44.935  53.629  1.00  0.00     0.042 A 
HETATM   18  C   UNL     1      28.758  44.657  54.475  1.00  0.00    -0.024 A 
HETATM   19  C   UNL     1      29.585  43.546  54.200  1.00  0.00    -0.026 A 
HETATM   20  C   UNL     1      29.040  45.460  55.593  1.00  0.00     0.012 A 
HETATM   21  C   UNL     1      29.304  42.748  53.082  1.00  0.00     0.014 A 
HETATM   22  C   UNL     1      30.665  43.263  55.053  1.00  0.00     0.012 A 
HETATM   23  C   UNL     1      28.217  43.041  52.252  1.00  0.00     0.030 A 
HETATM   24  C   UNL     1      30.929  44.070  56.161  1.00  0.00     0.001 A 
HETATM   25  C   UNL     1      30.118  45.167  56.430  1.00  0.00     0.001 A 
ENDBRANCH   2  16
TORSDOF 5
ENDMDL
MODEL 4
REMARK VINA RESULT:      -8.8      1.684      2.851
REMARK  5 active torsions:
REMARK  status: ('A' for Active; 'I' for Inactive)
REMARK    1  A    between atoms: O_2  and  C_3 
REMARK    2  A    between atoms: C_4  and  N_5 
REMARK    3  A    between atoms: N_5  and  C_6 
REMARK    4  A    between atoms: C_6  and  C_7 
REMARK       I    between atoms: C_7  and  N_8 
REMARK    5  A    between atoms: N_8  and  C_9 
ROOT
HETATM    1  C   UNL     1      25.396  44.596  52.742  1.00  0.00     0.235 C 
HETATM    2  N   UNL     1      26.703  45.058  52.728  1.00  0.00    -0.326 N 
HETATM    3  O   UNL     1      24.748  44.273  53.734  1.00  0.00    -0.272 OA
HETATM    4  H   UNL     1      27.018  45.478  51.862  1.00  0.00     0.169 HD
ENDROOT
BRANCH   1   5
HETATM    5  C   UNL     1      24.776  44.509  51.341  1.00  0.00     0.195 C 
BRANCH   5   6
HETATM    6  N   UNL     1      25.361  45.488  50.427  1.00  0.00    -0.282 NA
HETATM    7  H   UNL     1      26.042  45.050  49.799  1.00  0.00     0.128 HD
BRANCH   6   8
HETATM    8  C   UNL     1      24.587  46.408  49.714  1.00  0.00     0.042 A 
HETATM    9  C   UNL     1      24.952  47.771  49.732  1.00  0.00     0.089 A 
HETATM   10  C   UNL     1      24.214  48.746  49.058  1.00  0.00     0.038 A 
HETATM   11  C   UNL     1      23.040  48.389  48.408  1.00  0.00     0.003 A 
HETATM   12  C   UNL     1      22.612  47.063  48.439  1.00  0.00     0.002 A 
HETATM   13  C   UNL     1      23.373  46.086  49.097  1.00  0.00     0.026 A 
BRANCH   9  14
HETATM   14  O   UNL     1      26.095  48.184  50.378  1.00  0.00    -0.354 OA
HETATM   15  C   UNL     1      27.087  48.584  49.427  1.00  0.00     0.210 C 
ENDBRANCH   9  14
ENDBRANCH   6   8
ENDBRANCH   5   6
ENDBRANCH   1   5
BRANCH   2  16
HETATM   16  C   UNL     1      27.619  45.073  53.800  1.00  0.00     0.035 A 
HETATM   17  C   UNL     1      28.549  44.060  54.046  1.00  0.00     0.042 A 
HETATM   18  C   UNL     1      29.475  44.157  55.102  1.00  0.00    -0.024 A 
HETATM   19  C   UNL     1      29.466  45.301  55.930  1.00  0.00    -0.026 A 
HETATM   20  C   UNL     1      30.412  43.141  55.349  1.00  0.00     0.012 A 
HETATM   21  C   UNL     1      28.527  46.312  55.685  1.00  0.00     0.014 A 
HETATM   22  C   UNL     1      30.399  45.402  56.976  1.00  0.00     0.012 A 
HETATM   23  C   UNL     1      27.614  46.197  54.631  1.00  0.00     0.030 A 
HETATM   24  C   UNL     1      31.327  44.384  57.205  1.00  0.00     0.001 A 
HETATM   25  C   UNL     1      31.332  43.254  56.393  1.00  0.00     0.001 A 
ENDBRANCH   2  16
TORSDOF 5
ENDMDL
MODEL 5
REMARK VINA RESULT:      -8.8      3.887      5.588
REMARK  5 active torsions:
REMARK  status: ('A' for Active; 'I' for Inactive)
REMARK    1  A    between atoms: O_2  and  C_3 
REMARK    2  A    between atoms: C_4  and  N_5 
REMARK    3  A    between atoms: N_5  and  C_6 
REMARK    4  A    between atoms: C_6  and  C_7 
REMARK       I    between atoms: C_7  and  N_8 
REMARK    5  A    between atoms: N_8  and  C_9 
ROOT
HETATM    1  C   UNL     1      25.710  44.272  53.017  1.00  0.00     0.235 C 
HETATM    2  N   UNL     1      27.046  44.639  53.016  1.00  0.00    -0.326 N 
HETATM    3  O   UNL     1      24.983  44.169  54.001  1.00  0.00    -0.272 OA
HETATM    4  H   UNL     1      27.442  44.880  52.116  1.00  0.00     0.169 HD
ENDROOT
BRANCH   1   5
HETATM    5  C   UNL     1      25.167  43.983  51.611  1.00  0.00     0.195 C 
BRANCH   5   6
HETATM    6  N   UNL     1      25.100  42.549  51.339  1.00  0.00    -0.282 NA
HETATM    7  H   UNL     1      24.138  42.249  51.154  1.00  0.00     0.128 HD
BRANCH   6   8
HETATM    8  C   UNL     1      25.970  41.910  50.451  1.00  0.00     0.042 A 
HETATM    9  C   UNL     1      27.211  41.435  50.928  1.00  0.00     0.089 A 
HETATM   10  C   UNL     1      28.135  40.805  50.093  1.00  0.00     0.038 A 
HETATM   11  C   UNL     1      27.870  40.702  48.733  1.00  0.00     0.003 A 
HETATM   12  C   UNL     1      26.688  41.231  48.220  1.00  0.00     0.002 A 
HETATM   13  C   UNL     1      25.755  41.841  49.071  1.00  0.00     0.026 A 
BRANCH   9  14
HETATM   14  O   UNL     1      27.533  41.530  52.262  1.00  0.00    -0.354 OA
HETATM   15  C   UNL     1      28.746  40.822  52.532  1.00  0.00     0.210 C 
ENDBRANCH   9  14
ENDBRANCH   6   8
ENDBRANCH   5   6
ENDBRANCH   1   5
BRANCH   2  16
HETATM   16  C   UNL     1      27.898  44.781  54.132  1.00  0.00     0.035 A 
HETATM   17  C   UNL     1      28.930  43.893  54.444  1.00  0.00     0.042 A 
HETATM   18  C   UNL     1      29.781  44.116  55.543  1.00  0.00    -0.024 A 
HETATM   19  C   UNL     1      29.591  45.262  56.346  1.00  0.00    -0.026 A 
HETATM   20  C   UNL     1      30.821  43.226  55.856  1.00  0.00     0.012 A 
HETATM   21  C   UNL     1      28.549  46.147  56.035  1.00  0.00     0.014 A 
HETATM   22  C   UNL     1      30.449  45.490  57.435  1.00  0.00     0.012 A 
HETATM   23  C   UNL     1      27.713  45.907  54.940  1.00  0.00     0.030 A 
HETATM   24  C   UNL     1      31.480  44.596  57.730  1.00  0.00     0.001 A 
HETATM   25  C   UNL     1      31.665  43.465  56.942  1.00  0.00     0.001 A 
ENDBRANCH   2  16
TORSDOF 5
ENDMDL
MODEL 6
REMARK VINA RESULT:      -8.6      1.750      7.529
REMARK  5 active torsions:
REMARK  status: ('A' for Active; 'I' for Inactive)
REMARK    1  A    between atoms: O_2  and  C_3 
REMARK    2  A    between atoms: C_4  and  N_5 
REMARK    3  A    between atoms: N_5  and  C_6 
REMARK    4  A    between atoms: C_6  and  C_7 
REMARK       I    between atoms: C_7  and  N_8 
REMARK    5  A    between atoms: N_8  and  C_9 
ROOT
HETATM    1  C   UNL     1      26.945  43.686  50.797  1.00  0.00     0.235 C 
HETATM    2  N   UNL     1      26.410  44.830  51.368  1.00  0.00    -0.326 N 
HETATM    3  O   UNL     1      27.243  43.532  49.616  1.00  0.00    -0.272 OA
HETATM    4  H   UNL     1      26.419  44.869  52.380  1.00  0.00     0.169 HD
ENDROOT
BRANCH   1   5
HETATM    5  C   UNL     1      27.150  42.550  51.809  1.00  0.00     0.195 C 
BRANCH   5   6
HETATM    6  N   UNL     1      26.975  43.011  53.184  1.00  0.00    -0.282 NA
HETATM    7  H   UNL     1      26.350  42.391  53.709  1.00  0.00     0.128 HD
BRANCH   6   8
HETATM    8  C   UNL     1      28.049  43.389  53.995  1.00  0.00     0.042 A 
HETATM    9  C   UNL     1      28.100  44.708  54.496  1.00  0.00     0.089 A 
HETATM   10  C   UNL     1      29.153  45.158  55.294  1.00  0.00     0.038 A 
HETATM   11  C   UNL     1      30.228  44.316  55.549  1.00  0.00     0.003 A 
HETATM   12  C   UNL     1      30.243  43.034  55.003  1.00  0.00     0.002 A 
HETATM   13  C   UNL     1      29.169  42.582  54.223  1.00  0.00     0.026 A 
BRANCH   9  14
HETATM   14  O   UNL     1      27.072  45.590  54.256  1.00  0.00    -0.354 OA
HETATM   15  C   UNL     1      27.296  46.817  54.958  1.00  0.00     0.210 C 
ENDBRANCH   9  14
ENDBRANCH   6   8
ENDBRANCH   5   6
ENDBRANCH   1   5
BRANCH   2  16
HETATM   16  C   UNL     1      25.920  45.973  50.702  1.00  0.00     0.035 A 
HETATM   17  C   UNL     1      26.734  46.968  50.157  1.00  0.00     0.042 A 
HETATM   18  C   UNL     1      26.186  48.060  49.458  1.00  0.00    -0.024 A 
HETATM   19  C   UNL     1      24.787  48.152  49.300  1.00  0.00    -0.026 A 
HETATM   20  C   UNL     1      27.005  49.060  48.906  1.00  0.00     0.012 A 
HETATM   21  C   UNL     1      23.972  47.155  49.855  1.00  0.00     0.014 A 
HETATM   22  C   UNL     1      24.242  49.236  48.591  1.00  0.00     0.012 A 
HETATM   23  C   UNL     1      24.534  46.079  50.549  1.00  0.00     0.030 A 
HETATM   24  C   UNL     1      25.071  50.219  48.046  1.00  0.00     0.001 A 
HETATM   25  C   UNL     1      26.450  50.132  48.205  1.00  0.00     0.001 A 
ENDBRANCH   2  16
TORSDOF 5
ENDMDL
MODEL 7
REMARK VINA RESULT:      -8.6      1.636      7.798
REMARK  5 active torsions:
REMARK  status: ('A' for Active; 'I' for Inactive)
REMARK    1  A    between atoms: O_2  and  C_3 
REMARK    2  A    between atoms: C_4  and  N_5 
REMARK    3  A    between atoms: N_5  and  C_6 
REMARK    4  A    between atoms: C_6  and  C_7 
REMARK       I    between atoms: C_7  and  N_8 
REMARK    5  A    between atoms: N_8  and  C_9 
ROOT
HETATM    1  C   UNL     1      26.913  44.860  50.585  1.00  0.00     0.235 C 
HETATM    2  N   UNL     1      26.460  46.095  51.018  1.00  0.00    -0.326 N 
HETATM    3  O   UNL     1      27.030  44.495  49.417  1.00  0.00    -0.272 OA
HETATM    4  H   UNL     1      26.621  46.311  51.994  1.00  0.00     0.169 HD
ENDROOT
BRANCH   1   5
HETATM    5  C   UNL     1      27.280  43.916  51.738  1.00  0.00     0.195 C 
BRANCH   5   6
HETATM    6  N   UNL     1      26.835  44.438  53.028  1.00  0.00    -0.282 NA
HETATM    7  H   UNL     1      26.112  43.842  53.442  1.00  0.00     0.128 HD
BRANCH   6   8
HETATM    8  C   UNL     1      27.727  44.853  54.021  1.00  0.00     0.042 A 
HETATM    9  C   UNL     1      27.666  46.184  54.486  1.00  0.00     0.089 A 
HETATM   10  C   UNL     1      28.539  46.670  55.461  1.00  0.00     0.038 A 
HETATM   11  C   UNL     1      29.552  45.851  55.944  1.00  0.00     0.003 A 
HETATM   12  C   UNL     1      29.685  44.556  55.447  1.00  0.00     0.002 A 
HETATM   13  C   UNL     1      28.788  44.069  54.485  1.00  0.00     0.026 A 
BRANCH   9  14
HETATM   14  O   UNL     1      26.696  47.045  54.026  1.00  0.00    -0.354 OA
HETATM   15  C   UNL     1      26.344  47.986  55.044  1.00  0.00     0.210 C 
ENDBRANCH   9  14
ENDBRANCH   6   8
ENDBRANCH   5   6
ENDBRANCH   1   5
BRANCH   2  16
HETATM   16  C   UNL     1      25.863  47.111  50.243  1.00  0.00     0.035 A 
HETATM   17  C   UNL     1      24.484  47.247  50.063  1.00  0.00     0.042 A 
HETATM   18  C   UNL     1      23.945  48.315  49.320  1.00  0.00    -0.024 A 
HETATM   19  C   UNL     1      24.813  49.269  48.746  1.00  0.00    -0.026 A 
HETATM   20  C   UNL     1      22.559  48.454  49.141  1.00  0.00     0.012 A 
HETATM   21  C   UNL     1      26.196  49.125  48.923  1.00  0.00     0.014 A 
HETATM   22  C   UNL     1      24.272  50.341  48.016  1.00  0.00     0.012 A 
HETATM   23  C   UNL     1      26.713  48.057  49.663  1.00  0.00     0.030 A 
HETATM   24  C   UNL     1      22.891  50.467  47.851  1.00  0.00     0.001 A 
HETATM   25  C   UNL     1      22.036  49.524  48.411  1.00  0.00     0.001 A 
ENDBRANCH   2  16
TORSDOF 5
ENDMDL
MODEL 8
REMARK VINA RESULT:      -8.6      1.491      2.903
REMARK  5 active torsions:
REMARK  status: ('A' for Active; 'I' for Inactive)
REMARK    1  A    between atoms: O_2  and  C_3 
REMARK    2  A    between atoms: C_4  and  N_5 
REMARK    3  A    between atoms: N_5  and  C_6 
REMARK    4  A    between atoms: C_6  and  C_7 
REMARK       I    between atoms: C_7  and  N_8 
REMARK    5  A    between atoms: N_8  and  C_9 
ROOT
HETATM    1  C   UNL     1      25.632  46.699  51.201  1.00  0.00     0.235 C 
HETATM    2  N   UNL     1      25.694  45.793  52.247  1.00  0.00    -0.326 N 
HETATM    3  O   UNL     1      26.539  47.434  50.818  1.00  0.00    -0.272 OA
HETATM    4  H   UNL     1      24.939  45.121  52.299  1.00  0.00     0.169 HD
ENDROOT
BRANCH   1   5
HETATM    5  C   UNL     1      24.262  46.723  50.508  1.00  0.00     0.195 C 
BRANCH   5   6
HETATM    6  N   UNL     1      24.331  47.351  49.191  1.00  0.00    -0.282 NA
HETATM    7  H   UNL     1      24.362  46.650  48.445  1.00  0.00     0.128 HD
BRANCH   6   8
HETATM    8  C   UNL     1      23.492  48.403  48.813  1.00  0.00     0.042 A 
HETATM    9  C   UNL     1      24.004  49.718  48.797  1.00  0.00     0.089 A 
HETATM   10  C   UNL     1      23.216  50.817  48.448  1.00  0.00     0.038 A 
HETATM   11  C   UNL     1      21.865  50.633  48.179  1.00  0.00     0.003 A 
HETATM   12  C   UNL     1      21.314  49.356  48.263  1.00  0.00     0.002 A 
HETATM   13  C   UNL     1      22.119  48.255  48.590  1.00  0.00     0.026 A 
BRANCH   9  14
HETATM   14  O   UNL     1      25.329  49.959  49.075  1.00  0.00    -0.354 OA
HETATM   15  C   UNL     1      26.092  50.000  47.866  1.00  0.00     0.210 C 
ENDBRANCH   9  14
ENDBRANCH   6   8
ENDBRANCH   5   6
ENDBRANCH   1   5
BRANCH   2  16
HETATM   16  C   UNL     1      26.720  45.658  53.206  1.00  0.00     0.035 A 
HETATM   17  C   UNL     1      27.595  44.571  53.263  1.00  0.00     0.042 A 
HETATM   18  C   UNL     1      28.634  44.517  54.212  1.00  0.00    -0.024 A 
HETATM   19  C   UNL     1      28.798  45.584  55.122  1.00  0.00    -0.026 A 
HETATM   20  C   UNL     1      29.517  43.426  54.269  1.00  0.00     0.012 A 
HETATM   21  C   UNL     1      27.913  46.669  55.067  1.00  0.00     0.014 A 
HETATM   22  C   UNL     1      29.844  45.534  56.060  1.00  0.00     0.012 A 
HETATM   23  C   UNL     1      26.886  46.704  54.119  1.00  0.00     0.030 A 
HETATM   24  C   UNL     1      30.715  44.444  56.100  1.00  0.00     0.001 A 
HETATM   25  C   UNL     1      30.551  43.391  55.207  1.00  0.00     0.001 A 
ENDBRANCH   2  16
TORSDOF 5
ENDMDL
MODEL 9
REMARK VINA RESULT:      -8.6      5.207      7.531
REMARK  5 active torsions:
REMARK  status: ('A' for Active; 'I' for Inactive)
REMARK    1  A    between atoms: O_2  and  C_3 
REMARK    2  A    between atoms: C_4  and  N_5 
REMARK    3  A    between atoms: N_5  and  C_6 
REMARK    4  A    between atoms: C_6  and  C_7 
REMARK       I    between atoms: C_7  and  N_8 
REMARK    5  A    between atoms: N_8  and  C_9 
ROOT
HETATM    1  C   UNL     1      28.275  41.854  52.601  1.00  0.00     0.235 C 
HETATM    2  N   UNL     1      28.717  43.155  52.783  1.00  0.00    -0.326 N 
HETATM    3  O   UNL     1      27.936  41.070  53.484  1.00  0.00    -0.272 OA
HETATM    4  H   UNL     1      28.755  43.732  51.952  1.00  0.00     0.169 HD
ENDROOT
BRANCH   1   5
HETATM    5  C   UNL     1      28.238  41.434  51.126  1.00  0.00     0.195 C 
BRANCH   5   6
HETATM    6  N   UNL     1      28.652  40.044  50.947  1.00  0.00    -0.282 NA
HETATM    7  H   UNL     1      28.295  39.449  51.701  1.00  0.00     0.128 HD
BRANCH   6   8
HETATM    8  C   UNL     1      28.537  39.375  49.725  1.00  0.00     0.042 A 
HETATM    9  C   UNL     1      29.432  38.323  49.432  1.00  0.00     0.089 A 
HETATM   10  C   UNL     1      29.386  37.626  48.223  1.00  0.00     0.038 A 
HETATM   11  C   UNL     1      28.486  38.018  47.240  1.00  0.00     0.003 A 
HETATM   12  C   UNL     1      27.643  39.103  47.471  1.00  0.00     0.002 A 
HETATM   13  C   UNL     1      27.680  39.782  48.698  1.00  0.00     0.026 A 
BRANCH   9  14
HETATM   14  O   UNL     1      30.357  37.908  50.362  1.00  0.00    -0.354 OA
HETATM   15  C   UNL     1      29.817  36.852  51.162  1.00  0.00     0.210 C 
ENDBRANCH   9  14
ENDBRANCH   6   8
ENDBRANCH   5   6
ENDBRANCH   1   5
BRANCH   2  16
HETATM   16  C   UNL     1      29.054  43.785  53.999  1.00  0.00     0.035 A 
HETATM   17  C   UNL     1      30.074  43.349  54.848  1.00  0.00     0.042 A 
HETATM   18  C   UNL     1      30.399  44.052  56.024  1.00  0.00    -0.024 A 
HETATM   19  C   UNL     1      29.681  45.222  56.353  1.00  0.00    -0.026 A 
HETATM   20  C   UNL     1      31.427  43.616  56.876  1.00  0.00     0.012 A 
HETATM   21  C   UNL     1      28.653  45.652  55.504  1.00  0.00     0.014 A 
HETATM   22  C   UNL     1      30.015  45.929  57.521  1.00  0.00     0.012 A 
HETATM   23  C   UNL     1      28.344  44.940  54.340  1.00  0.00     0.030 A 
HETATM   24  C   UNL     1      31.042  45.484  58.355  1.00  0.00     0.001 A 
HETATM   25  C   UNL     1      31.746  44.328  58.034  1.00  0.00     0.001 A 
ENDBRANCH   2  16
TORSDOF 5
ENDMDL
MODEL 10
REMARK VINA RESULT:      -8.5      2.645      4.725
REMARK  5 active torsions:
REMARK  status: ('A' for Active; 'I' for Inactive)
REMARK    1  A    between atoms: O_2  and  C_3 
REMARK    2  A    between atoms: C_4  and  N_5 
REMARK    3  A    between atoms: N_5  and  C_6 
REMARK    4  A    between atoms: C_6  and  C_7 
REMARK       I    between atoms: C_7  and  N_8 
REMARK    5  A    between atoms: N_8  and  C_9 
ROOT
HETATM    1  C   UNL     1      25.819  46.359  51.851  1.00  0.00     0.235 C 
HETATM    2  N   UNL     1      26.281  45.255  52.550  1.00  0.00    -0.326 N 
HETATM    3  O   UNL     1      26.281  47.497  51.897  1.00  0.00    -0.272 OA
HETATM    4  H   UNL     1      25.930  44.356  52.245  1.00  0.00     0.169 HD
ENDROOT
BRANCH   1   5
HETATM    5  C   UNL     1      24.610  46.042  50.960  1.00  0.00     0.195 C 
BRANCH   5   6
HETATM    6  N   UNL     1      23.985  44.773  51.325  1.00  0.00    -0.282 NA
HETATM    7  H   UNL     1      23.097  44.922  51.812  1.00  0.00     0.128 HD
BRANCH   6   8
HETATM    8  C   UNL     1      23.856  43.711  50.425  1.00  0.00     0.042 A 
HETATM    9  C   UNL     1      24.840  42.700  50.409  1.00  0.00     0.089 A 
HETATM   10  C   UNL     1      24.783  41.623  49.524  1.00  0.00     0.038 A 
HETATM   11  C   UNL     1      23.772  41.570  48.572  1.00  0.00     0.003 A 
HETATM   12  C   UNL     1      22.830  42.595  48.513  1.00  0.00     0.002 A 
HETATM   13  C   UNL     1      22.881  43.661  49.423  1.00  0.00     0.026 A 
BRANCH   9  14
HETATM   14  O   UNL     1      25.875  42.714  51.315  1.00  0.00    -0.354 OA
HETATM   15  C   UNL     1      26.722  41.577  51.121  1.00  0.00     0.210 C 
ENDBRANCH   9  14
ENDBRANCH   6   8
ENDBRANCH   5   6
ENDBRANCH   1   5
BRANCH   2  16
HETATM   16  C   UNL     1      27.234  45.235  53.589  1.00  0.00     0.035 A 
HETATM   17  C   UNL     1      28.185  44.225  53.757  1.00  0.00     0.042 A 
HETATM   18  C   UNL     1      29.145  44.287  54.785  1.00  0.00    -0.024 A 
HETATM   19  C   UNL     1      29.151  45.392  55.663  1.00  0.00    -0.026 A 
HETATM   20  C   UNL     1      30.104  43.274  54.952  1.00  0.00     0.012 A 
HETATM   21  C   UNL     1      28.191  46.400  55.497  1.00  0.00     0.014 A 
HETATM   22  C   UNL     1      30.118  45.459  56.680  1.00  0.00     0.012 A 
HETATM   23  C   UNL     1      27.244  46.320  54.471  1.00  0.00     0.030 A 
HETATM   24  C   UNL     1      31.066  44.445  56.830  1.00  0.00     0.001 A 
HETATM   25  C   UNL     1      31.058  43.353  55.968  1.00  0.00     0.001 A 
ENDBRANCH   2  16
TORSDOF 5
ENDMDL
