MODEL 1
REMARK VINA RESULT:      -7.8      0.000      0.000
REMARK  8 active torsions:
REMARK  status: ('A' for Active; 'I' for Inactive)
REMARK    1  A    between atoms: C_3  and  C_4 
REMARK    2  A    between atoms: C_4  and  C_5 
REMARK       I    between atoms: C_5  and  N_6 
REMARK    3  A    between atoms: N_6  and  C_7 
REMARK    4  A    between atoms: C_14  and  N_15 
REMARK       I    between atoms: N_15  and  C_16 
REMARK    5  A    between atoms: C_16  and  C_17 
REMARK    6  A    between atoms: C_26  and  C_27 
REMARK    7  A    between atoms: C_27  and  O_28 
REMARK    8  A    between atoms: C_30  and  O_31 
ROOT
HETATM    1  C   UNL     1      34.078  57.862  39.723  1.00  0.00     0.216 C 
HETATM    2  C   UNL     1      32.863  57.917  40.635  1.00  0.00    -0.098 C 
HETATM    3  C   UNL     1      31.822  57.963  41.417  1.00  0.00     0.014 C 
ENDROOT
BRANCH   1   4
HETATM    4  N   UNL     1      34.521  56.514  39.466  1.00  0.00    -0.351 N 
HETATM    5  C   UNL     1      35.822  56.287  39.051  1.00  0.00     0.219 C 
HETATM    6  O   UNL     1      36.684  57.158  39.100  1.00  0.00    -0.274 OA
HETATM    7  H   UNL     1      33.823  55.791  39.354  1.00  0.00     0.163 HD
BRANCH   5   8
HETATM    8  C   UNL     1      36.100  54.867  38.591  1.00  0.00     0.114 C 
BRANCH   8   9
HETATM    9  C   UNL     1      36.130  53.798  39.725  1.00  0.00     0.056 C 
HETATM   10  C   UNL     1      37.461  52.897  39.818  1.00  0.00    -0.030 C 
HETATM   11  C   UNL     1      37.912  52.496  38.380  1.00  0.00     0.016 C 
HETATM   12  C   UNL     1      37.208  51.557  40.648  1.00  0.00     0.012 C 
HETATM   13  C   UNL     1      38.670  53.666  40.441  1.00  0.00     0.013 C 
HETATM   14  C   UNL     1      36.112  50.685  39.985  1.00  0.00     0.055 C 
HETATM   15  C   UNL     1      37.074  51.731  42.234  1.00  0.00     0.008 C 
HETATM   16  C   UNL     1      34.928  51.524  39.680  1.00  0.00     0.012 C 
HETATM   17  C   UNL     1      34.902  52.903  39.596  1.00  0.00     0.056 C 
HETATM   18  S   UNL     1      33.365  50.879  39.494  1.00  0.00    -0.055 SA
HETATM   19  N   UNL     1      33.622  53.441  39.568  1.00  0.00    -0.227 NA
HETATM   20  C   UNL     1      32.746  52.468  39.601  1.00  0.00     0.174 C 
HETATM   21  C   UNL     1      37.621  50.422  42.877  1.00  0.00     0.020 C 
HETATM   22  C   UNL     1      37.974  52.902  42.736  1.00  0.00     0.128 C 
HETATM   23  C   UNL     1      39.146  53.154  41.799  1.00  0.00     0.033 C 
BRANCH  20  24
HETATM   24  N   UNL     1      31.404  52.482  39.826  1.00  0.00    -0.300 N 
HETATM   25  C   UNL     1      30.864  52.572  41.087  1.00  0.00     0.281 C 
HETATM   26  O   UNL     1      31.417  53.015  42.086  1.00  0.00    -0.265 OA
HETATM   27  H   UNL     1      30.826  52.088  39.098  1.00  0.00     0.171 HD
BRANCH  25  28
HETATM   28  C   UNL     1      29.520  52.014  41.126  1.00  0.00     0.142 A 
HETATM   29  O   UNL     1      29.365  50.649  41.184  1.00  0.00    -0.317 OA
HETATM   30  C   UNL     1      28.034  50.400  41.277  1.00  0.00     0.143 A 
HETATM   31  C   UNL     1      27.323  51.576  41.280  1.00  0.00     0.027 A 
HETATM   32  C   UNL     1      28.278  52.617  41.177  1.00  0.00     0.045 A 
ENDBRANCH  25  28
ENDBRANCH  20  24
BRANCH  15  33
HETATM   33  C   UNL     1      35.640  51.946  42.792  1.00  0.00     0.176 C 
BRANCH  33  34
HETATM   34  O   UNL     1      35.599  51.953  44.215  1.00  0.00    -0.400 OA
HETATM   35  H   UNL     1      35.519  52.886  44.477  1.00  0.00     0.209 HD
ENDBRANCH  33  34
ENDBRANCH  15  33
BRANCH  22  36
HETATM   36  O   UNL     1      37.213  54.101  42.871  1.00  0.00    -0.395 OA
HETATM   37  H   UNL     1      36.774  54.298  42.024  1.00  0.00     0.210 HD
ENDBRANCH  22  36
ENDBRANCH   8   9
ENDBRANCH   5   8
ENDBRANCH   1   4
TORSDOF 8
ENDMDL
MODEL 2
REMARK VINA RESULT:      -7.2      4.590      8.454
REMARK  8 active torsions:
REMARK  status: ('A' for Active; 'I' for Inactive)
REMARK    1  A    between atoms: C_3  and  C_4 
REMARK    2  A    between atoms: C_4  and  C_5 
REMARK       I    between atoms: C_5  and  N_6 
REMARK    3  A    between atoms: N_6  and  C_7 
REMARK    4  A    between atoms: C_14  and  N_15 
REMARK       I    between atoms: N_15  and  C_16 
REMARK    5  A    between atoms: C_16  and  C_17 
REMARK    6  A    between atoms: C_26  and  C_27 
REMARK    7  A    between atoms: C_27  and  O_28 
REMARK    8  A    between atoms: C_30  and  O_31 
ROOT
HETATM    1  C   UNL     1      25.103  48.276  38.718  1.00  0.00     0.216 C 
HETATM    2  C   UNL     1      23.648  47.987  39.052  1.00  0.00    -0.098 C 
HETATM    3  C   UNL     1      22.401  47.740  39.338  1.00  0.00     0.014 C 
ENDROOT
BRANCH   1   4
HETATM    4  N   UNL     1      25.622  49.418  39.432  1.00  0.00    -0.351 N 
HETATM    5  C   UNL     1      26.591  50.211  38.844  1.00  0.00     0.219 C 
HETATM    6  O   UNL     1      26.877  50.119  37.655  1.00  0.00    -0.274 OA
HETATM    7  H   UNL     1      25.456  49.479  40.427  1.00  0.00     0.163 HD
BRANCH   5   8
HETATM    8  C   UNL     1      27.221  51.233  39.774  1.00  0.00     0.114 C 
BRANCH   8   9
HETATM    9  C   UNL     1      28.723  50.985  40.106  1.00  0.00     0.056 C 
HETATM   10  C   UNL     1      29.776  52.011  39.448  1.00  0.00    -0.030 C 
HETATM   11  C   UNL     1      29.359  52.301  37.974  1.00  0.00     0.016 C 
HETATM   12  C   UNL     1      31.255  51.409  39.435  1.00  0.00     0.012 C 
HETATM   13  C   UNL     1      29.794  53.400  40.163  1.00  0.00     0.013 C 
HETATM   14  C   UNL     1      31.319  50.099  38.610  1.00  0.00     0.055 C 
HETATM   15  C   UNL     1      32.005  51.363  40.848  1.00  0.00     0.008 C 
HETATM   16  C   UNL     1      30.226  49.192  39.035  1.00  0.00     0.012 C 
HETATM   17  C   UNL     1      29.086  49.552  39.729  1.00  0.00     0.056 C 
HETATM   18  S   UNL     1      30.285  47.507  38.809  1.00  0.00    -0.055 SA
HETATM   19  N   UNL     1      28.368  48.475  40.231  1.00  0.00    -0.227 NA
HETATM   20  C   UNL     1      28.962  47.362  39.880  1.00  0.00     0.174 C 
HETATM   21  C   UNL     1      33.526  51.534  40.556  1.00  0.00     0.020 C 
HETATM   22  C   UNL     1      31.569  52.566  41.740  1.00  0.00     0.128 C 
HETATM   23  C   UNL     1      31.085  53.742  40.904  1.00  0.00     0.033 C 
BRANCH  20  24
HETATM   24  N   UNL     1      28.789  46.083  40.312  1.00  0.00    -0.300 N 
HETATM   25  C   UNL     1      27.836  45.245  39.785  1.00  0.00     0.281 C 
HETATM   26  O   UNL     1      27.306  45.344  38.685  1.00  0.00    -0.265 OA
HETATM   27  H   UNL     1      29.132  45.876  41.239  1.00  0.00     0.171 HD
BRANCH  25  28
HETATM   28  C   UNL     1      27.466  44.205  40.734  1.00  0.00     0.142 A 
HETATM   29  O   UNL     1      28.164  43.019  40.732  1.00  0.00    -0.317 OA
HETATM   30  C   UNL     1      27.669  42.260  41.742  1.00  0.00     0.143 A 
HETATM   31  C   UNL     1      26.665  42.930  42.400  1.00  0.00     0.027 A 
HETATM   32  C   UNL     1      26.528  44.179  41.749  1.00  0.00     0.045 A 
ENDBRANCH  25  28
ENDBRANCH  20  24
BRANCH  15  33
HETATM   33  C   UNL     1      31.846  50.060  41.679  1.00  0.00     0.176 C 
BRANCH  33  34
HETATM   34  O   UNL     1      32.677  50.040  42.835  1.00  0.00    -0.400 OA
HETATM   35  H   UNL     1      32.772  49.103  43.080  1.00  0.00     0.209 HD
ENDBRANCH  33  34
ENDBRANCH  15  33
BRANCH  22  36
HETATM   36  O   UNL     1      30.539  52.176  42.646  1.00  0.00    -0.395 OA
HETATM   37  H   UNL     1      30.381  51.220  42.558  1.00  0.00     0.210 HD
ENDBRANCH  22  36
ENDBRANCH   8   9
ENDBRANCH   5   8
ENDBRANCH   1   4
TORSDOF 8
ENDMDL
MODEL 3
REMARK VINA RESULT:      -7.1     15.273     18.162
REMARK  8 active torsions:
REMARK  status: ('A' for Active; 'I' for Inactive)
REMARK    1  A    between atoms: C_3  and  C_4 
REMARK    2  A    between atoms: C_4  and  C_5 
REMARK       I    between atoms: C_5  and  N_6 
REMARK    3  A    between atoms: N_6  and  C_7 
REMARK    4  A    between atoms: C_14  and  N_15 
REMARK       I    between atoms: N_15  and  C_16 
REMARK    5  A    between atoms: C_16  and  C_17 
REMARK    6  A    between atoms: C_26  and  C_27 
REMARK    7  A    between atoms: C_27  and  O_28 
REMARK    8  A    between atoms: C_30  and  O_31 
ROOT
HETATM    1  C   UNL     1      21.988  43.091  47.127  1.00  0.00     0.216 C 
HETATM    2  C   UNL     1      21.467  42.190  46.018  1.00  0.00    -0.098 C 
HETATM    3  C   UNL     1      21.020  41.419  45.067  1.00  0.00     0.014 C 
ENDROOT
BRANCH   1   4
HETATM    4  N   UNL     1      21.770  44.492  46.854  1.00  0.00    -0.351 N 
HETATM    5  C   UNL     1      20.523  45.047  47.075  1.00  0.00     0.219 C 
HETATM    6  O   UNL     1      19.646  44.457  47.697  1.00  0.00    -0.274 OA
HETATM    7  H   UNL     1      22.447  44.981  46.285  1.00  0.00     0.163 HD
BRANCH   5   8
HETATM    8  C   UNL     1      20.354  46.456  46.535  1.00  0.00     0.114 C 
BRANCH   8   9
HETATM    9  C   UNL     1      19.997  47.534  47.603  1.00  0.00     0.056 C 
HETATM   10  C   UNL     1      18.974  48.686  47.136  1.00  0.00    -0.030 C 
HETATM   11  C   UNL     1      19.334  49.138  45.687  1.00  0.00     0.016 C 
HETATM   12  C   UNL     1      19.055  49.967  48.087  1.00  0.00     0.012 C 
HETATM   13  C   UNL     1      17.494  48.190  47.068  1.00  0.00     0.013 C 
HETATM   14  C   UNL     1      20.476  50.585  48.074  1.00  0.00     0.055 C 
HETATM   15  C   UNL     1      18.395  49.805  49.536  1.00  0.00     0.008 C 
HETATM   16  C   UNL     1      21.483  49.519  48.291  1.00  0.00     0.012 C 
HETATM   17  C   UNL     1      21.286  48.161  48.125  1.00  0.00     0.056 C 
HETATM   18  S   UNL     1      23.040  49.832  48.899  1.00  0.00    -0.055 SA
HETATM   19  N   UNL     1      22.302  47.376  48.653  1.00  0.00    -0.227 NA
HETATM   20  C   UNL     1      23.226  48.154  49.161  1.00  0.00     0.174 C 
HETATM   21  C   UNL     1      17.867  51.211  49.949  1.00  0.00     0.020 C 
HETATM   22  C   UNL     1      17.163  48.850  49.474  1.00  0.00     0.128 C 
HETATM   23  C   UNL     1      16.542  48.818  48.085  1.00  0.00     0.033 C 
BRANCH  20  24
HETATM   24  N   UNL     1      24.276  47.875  49.981  1.00  0.00    -0.300 N 
HETATM   25  C   UNL     1      24.796  46.610  50.116  1.00  0.00     0.281 C 
HETATM   26  O   UNL     1      24.690  45.689  49.315  1.00  0.00    -0.265 OA
HETATM   27  H   UNL     1      24.442  48.531  50.731  1.00  0.00     0.171 HD
BRANCH  25  28
HETATM   28  C   UNL     1      25.475  46.453  51.394  1.00  0.00     0.142 A 
HETATM   29  O   UNL     1      25.496  47.510  52.273  1.00  0.00    -0.317 OA
HETATM   30  C   UNL     1      26.126  47.085  53.398  1.00  0.00     0.143 A 
HETATM   31  C   UNL     1      26.513  45.772  53.265  1.00  0.00     0.027 A 
HETATM   32  C   UNL     1      26.100  45.366  51.973  1.00  0.00     0.045 A 
ENDBRANCH  25  28
ENDBRANCH  20  24
BRANCH  15  33
HETATM   33  C   UNL     1      19.330  49.318  50.677  1.00  0.00     0.176 C 
BRANCH  33  34
HETATM   34  O   UNL     1      18.623  49.011  51.874  1.00  0.00    -0.400 OA
HETATM   35  H   UNL     1      18.774  49.761  52.475  1.00  0.00     0.209 HD
ENDBRANCH  33  34
ENDBRANCH  15  33
BRANCH  22  36
HETATM   36  O   UNL     1      17.531  47.526  49.856  1.00  0.00    -0.395 OA
HETATM   37  H   UNL     1      16.847  46.904  49.549  1.00  0.00     0.210 HD
ENDBRANCH  22  36
ENDBRANCH   8   9
ENDBRANCH   5   8
ENDBRANCH   1   4
TORSDOF 8
ENDMDL
MODEL 4
REMARK VINA RESULT:      -7.1     12.709     17.573
REMARK  8 active torsions:
REMARK  status: ('A' for Active; 'I' for Inactive)
REMARK    1  A    between atoms: C_3  and  C_4 
REMARK    2  A    between atoms: C_4  and  C_5 
REMARK       I    between atoms: C_5  and  N_6 
REMARK    3  A    between atoms: N_6  and  C_7 
REMARK    4  A    between atoms: C_14  and  N_15 
REMARK       I    between atoms: N_15  and  C_16 
REMARK    5  A    between atoms: C_16  and  C_17 
REMARK    6  A    between atoms: C_26  and  C_27 
REMARK    7  A    between atoms: C_27  and  O_28 
REMARK    8  A    between atoms: C_30  and  O_31 
ROOT
HETATM    1  C   UNL     1      25.479  49.985  48.023  1.00  0.00     0.216 C 
HETATM    2  C   UNL     1      26.791  49.500  48.619  1.00  0.00    -0.098 C 
HETATM    3  C   UNL     1      27.915  49.084  49.131  1.00  0.00     0.014 C 
ENDROOT
BRANCH   1   4
HETATM    4  N   UNL     1      24.326  49.396  48.659  1.00  0.00    -0.351 N 
HETATM    5  C   UNL     1      23.059  49.684  48.184  1.00  0.00     0.219 C 
HETATM    6  O   UNL     1      22.877  50.245  47.109  1.00  0.00    -0.274 OA
HETATM    7  H   UNL     1      24.440  48.988  49.577  1.00  0.00     0.163 HD
BRANCH   5   8
HETATM    8  C   UNL     1      21.926  49.199  49.071  1.00  0.00     0.114 C 
BRANCH   8   9
HETATM    9  C   UNL     1      20.541  49.077  48.366  1.00  0.00     0.056 C 
HETATM   10  C   UNL     1      19.336  49.922  49.017  1.00  0.00    -0.030 C 
HETATM   11  C   UNL     1      19.413  49.816  50.571  1.00  0.00     0.016 C 
HETATM   12  C   UNL     1      17.911  49.368  48.554  1.00  0.00     0.012 C 
HETATM   13  C   UNL     1      19.423  51.448  48.693  1.00  0.00     0.013 C 
HETATM   14  C   UNL     1      17.717  47.892  48.984  1.00  0.00     0.055 C 
HETATM   15  C   UNL     1      17.487  49.701  47.047  1.00  0.00     0.008 C 
HETATM   16  C   UNL     1      18.908  47.101  48.592  1.00  0.00     0.012 C 
HETATM   17  C   UNL     1      20.157  47.603  48.278  1.00  0.00     0.056 C 
HETATM   18  S   UNL     1      18.862  45.416  48.364  1.00  0.00    -0.055 SA
HETATM   19  N   UNL     1      21.005  46.675  47.688  1.00  0.00    -0.227 NA
HETATM   20  C   UNL     1      20.389  45.522  47.606  1.00  0.00     0.174 C 
HETATM   21  C   UNL     1      15.934  49.824  47.034  1.00  0.00     0.020 C 
HETATM   22  C   UNL     1      18.062  51.083  46.608  1.00  0.00     0.128 C 
HETATM   23  C   UNL     1      18.311  51.996  47.800  1.00  0.00     0.033 C 
BRANCH  20  24
HETATM   24  N   UNL     1      20.698  44.393  46.912  1.00  0.00    -0.300 N 
HETATM   25  C   UNL     1      20.149  44.103  45.686  1.00  0.00     0.281 C 
HETATM   26  O   UNL     1      19.656  44.904  44.901  1.00  0.00    -0.265 OA
HETATM   27  H   UNL     1      21.064  43.623  47.453  1.00  0.00     0.171 HD
BRANCH  25  28
HETATM   28  C   UNL     1      20.170  42.671  45.425  1.00  0.00     0.142 A 
HETATM   29  O   UNL     1      20.551  41.814  46.430  1.00  0.00    -0.317 OA
HETATM   30  C   UNL     1      20.420  40.550  45.952  1.00  0.00     0.143 A 
HETATM   31  C   UNL     1      19.962  40.571  44.656  1.00  0.00     0.027 A 
HETATM   32  C   UNL     1      19.806  41.936  44.312  1.00  0.00     0.045 A 
ENDBRANCH  25  28
ENDBRANCH  20  24
BRANCH  15  33
HETATM   33  C   UNL     1      17.869  48.651  45.968  1.00  0.00     0.176 C 
BRANCH  33  34
HETATM   34  O   UNL     1      17.513  49.061  44.651  1.00  0.00    -0.400 OA
HETATM   35  H   UNL     1      17.350  48.243  44.151  1.00  0.00     0.209 HD
ENDBRANCH  33  34
ENDBRANCH  15  33
BRANCH  22  36
HETATM   36  O   UNL     1      19.277  50.916  45.881  1.00  0.00    -0.395 OA
HETATM   37  H   UNL     1      19.691  51.787  45.746  1.00  0.00     0.210 HD
ENDBRANCH  22  36
ENDBRANCH   8   9
ENDBRANCH   5   8
ENDBRANCH   1   4
TORSDOF 8
ENDMDL
MODEL 5
REMARK VINA RESULT:      -7.1     15.373     18.495
REMARK  8 active torsions:
REMARK  status: ('A' for Active; 'I' for Inactive)
REMARK    1  A    between atoms: C_3  and  C_4 
REMARK    2  A    between atoms: C_4  and  C_5 
REMARK       I    between atoms: C_5  and  N_6 
REMARK    3  A    between atoms: N_6  and  C_7 
REMARK    4  A    between atoms: C_14  and  N_15 
REMARK       I    between atoms: N_15  and  C_16 
REMARK    5  A    between atoms: C_16  and  C_17 
REMARK    6  A    between atoms: C_26  and  C_27 
REMARK    7  A    between atoms: C_27  and  O_28 
REMARK    8  A    between atoms: C_30  and  O_31 
ROOT
HETATM    1  C   UNL     1      17.456  43.762  44.766  1.00  0.00     0.216 C 
HETATM    2  C   UNL     1      16.301  44.641  44.314  1.00  0.00    -0.098 C 
HETATM    3  C   UNL     1      15.311  45.396  43.927  1.00  0.00     0.014 C 
ENDROOT
BRANCH   1   4
HETATM    4  N   UNL     1      18.651  44.517  45.055  1.00  0.00    -0.351 N 
HETATM    5  C   UNL     1      19.087  44.636  46.363  1.00  0.00     0.219 C 
HETATM    6  O   UNL     1      18.628  43.949  47.269  1.00  0.00    -0.274 OA
HETATM    7  H   UNL     1      19.007  45.143  44.346  1.00  0.00     0.163 HD
BRANCH   5   8
HETATM    8  C   UNL     1      20.208  45.639  46.566  1.00  0.00     0.114 C 
BRANCH   8   9
HETATM    9  C   UNL     1      19.835  46.882  47.429  1.00  0.00     0.056 C 
HETATM   10  C   UNL     1      18.830  47.942  46.752  1.00  0.00    -0.030 C 
HETATM   11  C   UNL     1      19.223  48.142  45.256  1.00  0.00     0.016 C 
HETATM   12  C   UNL     1      18.898  49.364  47.475  1.00  0.00     0.012 C 
HETATM   13  C   UNL     1      17.348  47.445  46.736  1.00  0.00     0.013 C 
HETATM   14  C   UNL     1      20.322  49.968  47.389  1.00  0.00     0.055 C 
HETATM   15  C   UNL     1      18.206  49.450  48.916  1.00  0.00     0.008 C 
HETATM   16  C   UNL     1      21.318  48.951  47.805  1.00  0.00     0.012 C 
HETATM   17  C   UNL     1      21.116  47.585  47.866  1.00  0.00     0.056 C 
HETATM   18  S   UNL     1      22.864  49.358  48.386  1.00  0.00    -0.055 SA
HETATM   19  N   UNL     1      22.116  46.898  48.541  1.00  0.00    -0.227 NA
HETATM   20  C   UNL     1      23.034  47.748  48.931  1.00  0.00     0.174 C 
HETATM   21  C   UNL     1      17.678  50.908  49.073  1.00  0.00     0.020 C 
HETATM   22  C   UNL     1      16.970  48.502  48.988  1.00  0.00     0.128 C 
HETATM   23  C   UNL     1      16.379  48.238  47.611  1.00  0.00     0.033 C 
BRANCH  20  24
HETATM   24  N   UNL     1      24.065  47.608  49.809  1.00  0.00    -0.300 N 
HETATM   25  C   UNL     1      24.691  46.406  50.033  1.00  0.00     0.281 C 
HETATM   26  O   UNL     1      24.709  45.442  49.277  1.00  0.00    -0.265 OA
HETATM   27  H   UNL     1      24.133  48.313  50.530  1.00  0.00     0.171 HD
BRANCH  25  28
HETATM   28  C   UNL     1      25.319  46.376  51.345  1.00  0.00     0.142 A 
HETATM   29  O   UNL     1      25.345  47.525  52.100  1.00  0.00    -0.317 OA
HETATM   30  C   UNL     1      25.921  47.211  53.289  1.00  0.00     0.143 A 
HETATM   31  C   UNL     1      26.268  45.881  53.320  1.00  0.00     0.027 A 
HETATM   32  C   UNL     1      25.887  45.343  52.067  1.00  0.00     0.045 A 
ENDBRANCH  25  28
ENDBRANCH  20  24
BRANCH  15  33
HETATM   33  C   UNL     1      19.114  49.161  50.142  1.00  0.00     0.176 C 
BRANCH  33  34
HETATM   34  O   UNL     1      18.435  49.336  51.382  1.00  0.00    -0.400 OA
HETATM   35  H   UNL     1      18.840  50.114  51.802  1.00  0.00     0.209 HD
ENDBRANCH  33  34
ENDBRANCH  15  33
BRANCH  22  36
HETATM   36  O   UNL     1      17.321  47.260  49.596  1.00  0.00    -0.395 OA
HETATM   37  H   UNL     1      17.828  46.726  48.960  1.00  0.00     0.210 HD
ENDBRANCH  22  36
ENDBRANCH   8   9
ENDBRANCH   5   8
ENDBRANCH   1   4
TORSDOF 8
ENDMDL
MODEL 6
REMARK VINA RESULT:      -7.0      5.048      8.030
REMARK  8 active torsions:
REMARK  status: ('A' for Active; 'I' for Inactive)
REMARK    1  A    between atoms: C_3  and  C_4 
REMARK    2  A    between atoms: C_4  and  C_5 
REMARK       I    between atoms: C_5  and  N_6 
REMARK    3  A    between atoms: N_6  and  C_7 
REMARK    4  A    between atoms: C_14  and  N_15 
REMARK       I    between atoms: N_15  and  C_16 
REMARK    5  A    between atoms: C_16  and  C_17 
REMARK    6  A    between atoms: C_26  and  C_27 
REMARK    7  A    between atoms: C_27  and  O_28 
REMARK    8  A    between atoms: C_30  and  O_31 
ROOT
HETATM    1  C   UNL     1      25.394  49.737  39.037  1.00  0.00     0.216 C 
HETATM    2  C   UNL     1      24.309  48.757  39.453  1.00  0.00    -0.098 C 
HETATM    3  C   UNL     1      23.379  47.916  39.811  1.00  0.00     0.014 C 
ENDROOT
BRANCH   1   4
HETATM    4  N   UNL     1      26.168  50.219  40.156  1.00  0.00    -0.351 N 
HETATM    5  C   UNL     1      27.318  50.953  39.928  1.00  0.00     0.219 C 
HETATM    6  O   UNL     1      27.599  51.401  38.821  1.00  0.00    -0.274 OA
HETATM    7  H   UNL     1      26.000  49.814  41.067  1.00  0.00     0.163 HD
BRANCH   5   8
HETATM    8  C   UNL     1      28.164  51.201  41.164  1.00  0.00     0.114 C 
BRANCH   8   9
HETATM    9  C   UNL     1      29.538  50.465  41.184  1.00  0.00     0.056 C 
HETATM   10  C   UNL     1      30.817  51.334  40.738  1.00  0.00    -0.030 C 
HETATM   11  C   UNL     1      30.441  52.211  39.505  1.00  0.00     0.016 C 
HETATM   12  C   UNL     1      32.048  50.403  40.325  1.00  0.00     0.012 C 
HETATM   13  C   UNL     1      31.282  52.336  41.843  1.00  0.00     0.013 C 
HETATM   14  C   UNL     1      31.680  49.487  39.130  1.00  0.00     0.055 C 
HETATM   15  C   UNL     1      32.812  49.678  41.530  1.00  0.00     0.008 C 
HETATM   16  C   UNL     1      30.386  48.816  39.400  1.00  0.00     0.012 C 
HETATM   17  C   UNL     1      29.439  49.206  40.327  1.00  0.00     0.056 C 
HETATM   18  S   UNL     1      29.929  47.360  38.649  1.00  0.00    -0.055 SA
HETATM   19  N   UNL     1      28.455  48.255  40.562  1.00  0.00    -0.227 NA
HETATM   20  C   UNL     1      28.673  47.214  39.798  1.00  0.00     0.174 C 
HETATM   21  C   UNL     1      34.300  49.527  41.092  1.00  0.00     0.020 C 
HETATM   22  C   UNL     1      32.796  50.572  42.807  1.00  0.00     0.128 C 
HETATM   23  C   UNL     1      32.649  52.047  42.462  1.00  0.00     0.033 C 
BRANCH  20  24
HETATM   24  N   UNL     1      28.145  45.960  39.826  1.00  0.00    -0.300 N 
HETATM   25  C   UNL     1      27.120  45.605  40.670  1.00  0.00     0.281 C 
HETATM   26  O   UNL     1      26.315  46.363  41.197  1.00  0.00    -0.265 OA
HETATM   27  H   UNL     1      28.734  45.220  39.470  1.00  0.00     0.171 HD
BRANCH  25  28
HETATM   28  C   UNL     1      27.121  44.172  40.926  1.00  0.00     0.142 A 
HETATM   29  O   UNL     1      28.248  43.441  40.632  1.00  0.00    -0.317 OA
HETATM   30  C   UNL     1      28.010  42.163  41.021  1.00  0.00     0.143 A 
HETATM   31  C   UNL     1      26.751  42.050  41.562  1.00  0.00     0.027 A 
HETATM   32  C   UNL     1      26.175  43.341  41.496  1.00  0.00     0.045 A 
ENDBRANCH  25  28
ENDBRANCH  20  24
BRANCH  15  33
HETATM   33  C   UNL     1      32.308  48.261  41.922  1.00  0.00     0.176 C 
BRANCH  33  34
HETATM   34  O   UNL     1      33.260  47.241  41.635  1.00  0.00    -0.400 OA
HETATM   35  H   UNL     1      33.730  47.531  40.835  1.00  0.00     0.209 HD
ENDBRANCH  33  34
ENDBRANCH  15  33
BRANCH  22  36
HETATM   36  O   UNL     1      31.738  50.185  43.682  1.00  0.00    -0.395 OA
HETATM   37  H   UNL     1      31.687  49.214  43.710  1.00  0.00     0.210 HD
ENDBRANCH  22  36
ENDBRANCH   8   9
ENDBRANCH   5   8
ENDBRANCH   1   4
TORSDOF 8
ENDMDL
MODEL 7
REMARK VINA RESULT:      -6.6      5.305     11.270
REMARK  8 active torsions:
REMARK  status: ('A' for Active; 'I' for Inactive)
REMARK    1  A    between atoms: C_3  and  C_4 
REMARK    2  A    between atoms: C_4  and  C_5 
REMARK       I    between atoms: C_5  and  N_6 
REMARK    3  A    between atoms: N_6  and  C_7 
REMARK    4  A    between atoms: C_14  and  N_15 
REMARK       I    between atoms: N_15  and  C_16 
REMARK    5  A    between atoms: C_16  and  C_17 
REMARK    6  A    between atoms: C_26  and  C_27 
REMARK    7  A    between atoms: C_27  and  O_28 
REMARK    8  A    between atoms: C_30  and  O_31 
ROOT
HETATM    1  C   UNL     1      27.376  42.227  41.526  1.00  0.00     0.216 C 
HETATM    2  C   UNL     1      28.438  41.475  42.313  1.00  0.00    -0.098 C 
HETATM    3  C   UNL     1      29.350  40.831  42.987  1.00  0.00     0.014 C 
ENDROOT
BRANCH   1   4
HETATM    4  N   UNL     1      27.901  43.390  40.854  1.00  0.00    -0.351 N 
HETATM    5  C   UNL     1      28.243  43.312  39.515  1.00  0.00     0.219 C 
HETATM    6  O   UNL     1      27.919  42.360  38.813  1.00  0.00    -0.274 OA
HETATM    7  H   UNL     1      28.237  44.160  41.416  1.00  0.00     0.163 HD
BRANCH   5   8
HETATM    8  C   UNL     1      28.995  44.519  38.984  1.00  0.00     0.114 C 
BRANCH   8   9
HETATM    9  C   UNL     1      28.360  45.899  39.330  1.00  0.00     0.056 C 
HETATM   10  C   UNL     1      27.128  46.367  38.406  1.00  0.00    -0.030 C 
HETATM   11  C   UNL     1      27.442  46.024  36.917  1.00  0.00     0.016 C 
HETATM   12  C   UNL     1      26.879  47.941  38.508  1.00  0.00     0.012 C 
HETATM   13  C   UNL     1      25.800  45.615  38.741  1.00  0.00     0.013 C 
HETATM   14  C   UNL     1      28.125  48.737  38.045  1.00  0.00     0.055 C 
HETATM   15  C   UNL     1      26.208  48.456  39.868  1.00  0.00     0.008 C 
HETATM   16  C   UNL     1      29.334  48.200  38.714  1.00  0.00     0.012 C 
HETATM   17  C   UNL     1      29.452  46.964  39.322  1.00  0.00     0.056 C 
HETATM   18  S   UNL     1      30.753  49.112  38.924  1.00  0.00    -0.055 SA
HETATM   19  N   UNL     1      30.593  46.827  40.100  1.00  0.00    -0.227 NA
HETATM   20  C   UNL     1      31.297  47.929  40.030  1.00  0.00     0.174 C 
HETATM   21  C   UNL     1      25.361  49.712  39.502  1.00  0.00     0.020 C 
HETATM   22  C   UNL     1      25.224  47.386  40.433  1.00  0.00     0.128 C 
HETATM   23  C   UNL     1      24.688  46.476  39.338  1.00  0.00     0.033 C 
BRANCH  20  24
HETATM   24  N   UNL     1      32.346  48.369  40.779  1.00  0.00    -0.300 N 
HETATM   25  C   UNL     1      32.190  49.220  41.846  1.00  0.00     0.281 C 
HETATM   26  O   UNL     1      31.166  49.394  42.496  1.00  0.00    -0.265 OA
HETATM   27  H   UNL     1      33.253  48.335  40.336  1.00  0.00     0.171 HD
BRANCH  25  28
HETATM   28  C   UNL     1      33.412  49.967  42.107  1.00  0.00     0.142 A 
HETATM   29  O   UNL     1      34.576  49.582  41.484  1.00  0.00    -0.317 OA
HETATM   30  C   UNL     1      35.536  50.472  41.843  1.00  0.00     0.143 A 
HETATM   31  C   UNL     1      35.018  51.426  42.686  1.00  0.00     0.027 A 
HETATM   32  C   UNL     1      33.651  51.099  42.862  1.00  0.00     0.045 A 
ENDBRANCH  25  28
ENDBRANCH  20  24
BRANCH  15  33
HETATM   33  C   UNL     1      27.177  48.876  41.007  1.00  0.00     0.176 C 
BRANCH  33  34
HETATM   34  O   UNL     1      27.166  50.280  41.248  1.00  0.00    -0.400 OA
HETATM   35  H   UNL     1      28.066  50.509  41.536  1.00  0.00     0.209 HD
ENDBRANCH  33  34
ENDBRANCH  15  33
BRANCH  22  36
HETATM   36  O   UNL     1      25.860  46.594  41.434  1.00  0.00    -0.395 OA
HETATM   37  H   UNL     1      26.523  46.020  41.013  1.00  0.00     0.210 HD
ENDBRANCH  22  36
ENDBRANCH   8   9
ENDBRANCH   5   8
ENDBRANCH   1   4
TORSDOF 8
ENDMDL
MODEL 8
REMARK VINA RESULT:      -6.6     25.597     27.318
REMARK  8 active torsions:
REMARK  status: ('A' for Active; 'I' for Inactive)
REMARK    1  A    between atoms: C_3  and  C_4 
REMARK    2  A    between atoms: C_4  and  C_5 
REMARK       I    between atoms: C_5  and  N_6 
REMARK    3  A    between atoms: N_6  and  C_7 
REMARK    4  A    between atoms: C_14  and  N_15 
REMARK       I    between atoms: N_15  and  C_16 
REMARK    5  A    between atoms: C_16  and  C_17 
REMARK    6  A    between atoms: C_26  and  C_27 
REMARK    7  A    between atoms: C_27  and  O_28 
REMARK    8  A    between atoms: C_30  and  O_31 
ROOT
HETATM    1  C   UNL     1      38.669  50.501  65.700  1.00  0.00     0.216 C 
HETATM    2  C   UNL     1      37.991  51.541  66.578  1.00  0.00    -0.098 C 
HETATM    3  C   UNL     1      37.409  52.432  67.331  1.00  0.00     0.014 C 
ENDROOT
BRANCH   1   4
HETATM    4  N   UNL     1      38.650  49.182  66.285  1.00  0.00    -0.351 N 
HETATM    5  C   UNL     1      37.753  48.237  65.818  1.00  0.00     0.219 C 
HETATM    6  O   UNL     1      37.117  48.398  64.782  1.00  0.00    -0.274 OA
HETATM    7  H   UNL     1      39.111  49.044  67.174  1.00  0.00     0.163 HD
BRANCH   5   8
HETATM    8  C   UNL     1      37.668  46.977  66.659  1.00  0.00     0.114 C 
BRANCH   8   9
HETATM    9  C   UNL     1      38.233  45.691  65.982  1.00  0.00     0.056 C 
HETATM   10  C   UNL     1      37.532  44.303  66.396  1.00  0.00    -0.030 C 
HETATM   11  C   UNL     1      37.262  44.300  67.933  1.00  0.00     0.016 C 
HETATM   12  C   UNL     1      38.461  43.049  66.056  1.00  0.00     0.012 C 
HETATM   13  C   UNL     1      36.136  44.105  65.722  1.00  0.00     0.013 C 
HETATM   14  C   UNL     1      39.807  43.126  66.819  1.00  0.00     0.055 C 
HETATM   15  C   UNL     1      38.577  42.664  64.506  1.00  0.00     0.008 C 
HETATM   16  C   UNL     1      40.401  44.473  66.644  1.00  0.00     0.012 C 
HETATM   17  C   UNL     1      39.735  45.614  66.240  1.00  0.00     0.056 C 
HETATM   18  S   UNL     1      42.065  44.777  66.820  1.00  0.00    -0.055 SA
HETATM   19  N   UNL     1      40.575  46.665  65.899  1.00  0.00    -0.227 NA
HETATM   20  C   UNL     1      41.819  46.298  66.083  1.00  0.00     0.174 C 
HETATM   21  C   UNL     1      38.786  41.122  64.441  1.00  0.00     0.020 C 
HETATM   22  C   UNL     1      37.243  42.980  63.762  1.00  0.00     0.128 C 
HETATM   23  C   UNL     1      36.051  42.966  64.707  1.00  0.00     0.033 C 
BRANCH  20  24
HETATM   24  N   UNL     1      42.988  46.869  65.680  1.00  0.00    -0.300 N 
HETATM   25  C   UNL     1      43.680  46.439  64.574  1.00  0.00     0.281 C 
HETATM   26  O   UNL     1      43.222  45.811  63.626  1.00  0.00    -0.265 OA
HETATM   27  H   UNL     1      43.503  47.374  66.386  1.00  0.00     0.171 HD
BRANCH  25  28
HETATM   28  C   UNL     1      45.092  46.779  64.671  1.00  0.00     0.142 A 
HETATM   29  O   UNL     1      46.013  46.006  64.004  1.00  0.00    -0.317 OA
HETATM   30  C   UNL     1      47.231  46.571  64.204  1.00  0.00     0.143 A 
HETATM   31  C   UNL     1      47.118  47.695  64.987  1.00  0.00     0.027 A 
HETATM   32  C   UNL     1      45.742  47.827  65.294  1.00  0.00     0.045 A 
ENDBRANCH  25  28
ENDBRANCH  20  24
BRANCH  15  33
HETATM   33  C   UNL     1      39.742  43.315  63.712  1.00  0.00     0.176 C 
BRANCH  33  34
HETATM   34  O   UNL     1      39.745  42.945  62.337  1.00  0.00    -0.400 OA
HETATM   35  H   UNL     1      39.595  43.767  61.839  1.00  0.00     0.209 HD
ENDBRANCH  33  34
ENDBRANCH  15  33
BRANCH  22  36
HETATM   36  O   UNL     1      37.314  44.248  63.113  1.00  0.00    -0.395 OA
HETATM   37  H   UNL     1      37.880  44.843  63.637  1.00  0.00     0.210 HD
ENDBRANCH  22  36
ENDBRANCH   8   9
ENDBRANCH   5   8
ENDBRANCH   1   4
TORSDOF 8
ENDMDL
MODEL 9
REMARK VINA RESULT:      -6.5     16.423     19.192
REMARK  8 active torsions:
REMARK  status: ('A' for Active; 'I' for Inactive)
REMARK    1  A    between atoms: C_3  and  C_4 
REMARK    2  A    between atoms: C_4  and  C_5 
REMARK       I    between atoms: C_5  and  N_6 
REMARK    3  A    between atoms: N_6  and  C_7 
REMARK    4  A    between atoms: C_14  and  N_15 
REMARK       I    between atoms: N_15  and  C_16 
REMARK    5  A    between atoms: C_16  and  C_17 
REMARK    6  A    between atoms: C_26  and  C_27 
REMARK    7  A    between atoms: C_27  and  O_28 
REMARK    8  A    between atoms: C_30  and  O_31 
ROOT
HETATM    1  C   UNL     1      14.059  47.406  44.614  1.00  0.00     0.216 C 
HETATM    2  C   UNL     1      14.707  46.099  44.185  1.00  0.00    -0.098 C 
HETATM    3  C   UNL     1      15.263  44.979  43.819  1.00  0.00     0.014 C 
ENDROOT
BRANCH   1   4
HETATM    4  N   UNL     1      14.334  47.739  45.990  1.00  0.00    -0.351 N 
HETATM    5  C   UNL     1      14.682  49.036  46.326  1.00  0.00     0.219 C 
HETATM    6  O   UNL     1      14.557  49.969  45.540  1.00  0.00    -0.274 OA
HETATM    7  H   UNL     1      14.509  46.986  46.642  1.00  0.00     0.163 HD
BRANCH   5   8
HETATM    8  C   UNL     1      15.172  49.210  47.752  1.00  0.00     0.114 C 
BRANCH   8   9
HETATM    9  C   UNL     1      16.713  49.382  47.905  1.00  0.00     0.056 C 
HETATM   10  C   UNL     1      17.272  50.889  47.827  1.00  0.00    -0.030 C 
HETATM   11  C   UNL     1      16.529  51.655  46.689  1.00  0.00     0.016 C 
HETATM   12  C   UNL     1      18.836  50.922  47.504  1.00  0.00     0.012 C 
HETATM   13  C   UNL     1      17.001  51.704  49.132  1.00  0.00     0.013 C 
HETATM   14  C   UNL     1      19.141  50.251  46.142  1.00  0.00     0.055 C 
HETATM   15  C   UNL     1      19.807  50.500  48.705  1.00  0.00     0.008 C 
HETATM   16  C   UNL     1      18.466  48.932  46.076  1.00  0.00     0.012 C 
HETATM   17  C   UNL     1      17.416  48.510  46.868  1.00  0.00     0.056 C 
HETATM   18  S   UNL     1      18.987  47.680  45.050  1.00  0.00    -0.055 SA
HETATM   19  N   UNL     1      17.157  47.149  46.783  1.00  0.00    -0.227 NA
HETATM   20  C   UNL     1      17.984  46.608  45.924  1.00  0.00     0.174 C 
HETATM   21  C   UNL     1      21.127  51.306  48.520  1.00  0.00     0.020 C 
HETATM   22  C   UNL     1      19.198  50.922  50.077  1.00  0.00     0.128 C 
HETATM   23  C   UNL     1      18.241  52.096  49.933  1.00  0.00     0.033 C 
BRANCH  20  24
HETATM   24  N   UNL     1      18.284  45.304  45.672  1.00  0.00    -0.300 N 
HETATM   25  C   UNL     1      18.791  44.462  46.632  1.00  0.00     0.281 C 
HETATM   26  O   UNL     1      18.695  44.597  47.846  1.00  0.00    -0.265 OA
HETATM   27  H   UNL     1      18.448  45.063  44.705  1.00  0.00     0.171 HD
BRANCH  25  28
HETATM   28  C   UNL     1      19.535  43.364  46.030  1.00  0.00     0.142 A 
HETATM   29  O   UNL     1      20.577  42.801  46.728  1.00  0.00    -0.317 OA
HETATM   30  C   UNL     1      21.050  41.771  45.981  1.00  0.00     0.143 A 
HETATM   31  C   UNL     1      20.335  41.655  44.813  1.00  0.00     0.027 A 
HETATM   32  C   UNL     1      19.363  42.684  44.840  1.00  0.00     0.045 A 
ENDBRANCH  25  28
ENDBRANCH  20  24
BRANCH  15  33
HETATM   33  C   UNL     1      20.199  48.999  48.788  1.00  0.00     0.176 C 
BRANCH  33  34
HETATM   34  O   UNL     1      21.265  48.759  49.702  1.00  0.00    -0.400 OA
HETATM   35  H   UNL     1      21.713  49.614  49.821  1.00  0.00     0.209 HD
ENDBRANCH  33  34
ENDBRANCH  15  33
BRANCH  22  36
HETATM   36  O   UNL     1      18.513  49.828  50.684  1.00  0.00    -0.395 OA
HETATM   37  H   UNL     1      18.845  49.708  51.592  1.00  0.00     0.210 HD
ENDBRANCH  22  36
ENDBRANCH   8   9
ENDBRANCH   5   8
ENDBRANCH   1   4
TORSDOF 8
ENDMDL
MODEL 10
REMARK VINA RESULT:      -6.5     25.345     27.249
REMARK  8 active torsions:
REMARK  status: ('A' for Active; 'I' for Inactive)
REMARK    1  A    between atoms: C_3  and  C_4 
REMARK    2  A    between atoms: C_4  and  C_5 
REMARK       I    between atoms: C_5  and  N_6 
REMARK    3  A    between atoms: N_6  and  C_7 
REMARK    4  A    between atoms: C_14  and  N_15 
REMARK       I    between atoms: N_15  and  C_16 
REMARK    5  A    between atoms: C_16  and  C_17 
REMARK    6  A    between atoms: C_26  and  C_27 
REMARK    7  A    between atoms: C_27  and  O_28 
REMARK    8  A    between atoms: C_30  and  O_31 
ROOT
HETATM    1  C   UNL     1      45.239  45.730  65.582  1.00  0.00     0.216 C 
HETATM    2  C   UNL     1      46.202  46.854  65.234  1.00  0.00    -0.098 C 
HETATM    3  C   UNL     1      47.027  47.818  64.935  1.00  0.00     0.014 C 
ENDROOT
BRANCH   1   4
HETATM    4  N   UNL     1      44.099  46.188  66.339  1.00  0.00    -0.351 N 
HETATM    5  C   UNL     1      43.120  46.940  65.716  1.00  0.00     0.219 C 
HETATM    6  O   UNL     1      43.062  47.055  64.496  1.00  0.00    -0.274 OA
HETATM    7  H   UNL     1      44.152  46.166  67.348  1.00  0.00     0.163 HD
BRANCH   5   8
HETATM    8  C   UNL     1      42.101  47.556  66.657  1.00  0.00     0.114 C 
BRANCH   8   9
HETATM    9  C   UNL     1      40.611  47.313  66.270  1.00  0.00     0.056 C 
HETATM   10  C   UNL     1      39.513  48.132  67.116  1.00  0.00    -0.030 C 
HETATM   11  C   UNL     1      39.919  48.133  68.622  1.00  0.00     0.016 C 
HETATM   12  C   UNL     1      38.063  47.472  66.995  1.00  0.00     0.012 C 
HETATM   13  C   UNL     1      39.428  49.636  66.701  1.00  0.00     0.013 C 
HETATM   14  C   UNL     1      38.063  46.019  67.534  1.00  0.00     0.055 C 
HETATM   15  C   UNL     1      37.313  47.681  65.597  1.00  0.00     0.008 C 
HETATM   16  C   UNL     1      39.197  45.270  66.941  1.00  0.00     0.012 C 
HETATM   17  C   UNL     1      40.316  45.818  66.344  1.00  0.00     0.056 C 
HETATM   18  S   UNL     1      39.218  43.574  66.817  1.00  0.00    -0.055 SA
HETATM   19  N   UNL     1      41.083  44.901  65.637  1.00  0.00    -0.227 NA
HETATM   20  C   UNL     1      40.543  43.713  65.749  1.00  0.00     0.174 C 
HETATM   21  C   UNL     1      35.787  47.718  65.907  1.00  0.00     0.020 C 
HETATM   22  C   UNL     1      37.690  49.060  64.973  1.00  0.00     0.128 C 
HETATM   23  C   UNL     1      38.120  50.062  66.035  1.00  0.00     0.033 C 
BRANCH  20  24
HETATM   24  N   UNL     1      40.776  42.559  65.065  1.00  0.00    -0.300 N 
HETATM   25  C   UNL     1      40.195  42.287  63.850  1.00  0.00     0.281 C 
HETATM   26  O   UNL     1      39.741  43.106  63.060  1.00  0.00    -0.265 OA
HETATM   27  H   UNL     1      41.102  41.775  65.613  1.00  0.00     0.171 HD
BRANCH  25  28
HETATM   28  C   UNL     1      40.128  40.853  63.607  1.00  0.00     0.142 A 
HETATM   29  O   UNL     1      40.832  40.003  64.427  1.00  0.00    -0.317 OA
HETATM   30  C   UNL     1      40.548  38.736  64.030  1.00  0.00     0.143 A 
HETATM   31  C   UNL     1      39.673  38.748  62.970  1.00  0.00     0.027 A 
HETATM   32  C   UNL     1      39.406  40.111  62.692  1.00  0.00     0.045 A 
ENDBRANCH  25  28
ENDBRANCH  20  24
BRANCH  15  33
HETATM   33  C   UNL     1      37.532  46.584  64.519  1.00  0.00     0.176 C 
BRANCH  33  34
HETATM   34  O   UNL     1      36.785  46.825  63.330  1.00  0.00    -0.400 OA
HETATM   35  H   UNL     1      35.849  46.742  63.581  1.00  0.00     0.209 HD
ENDBRANCH  33  34
ENDBRANCH  15  33
BRANCH  22  36
HETATM   36  O   UNL     1      38.736  48.913  64.015  1.00  0.00    -0.395 OA
HETATM   37  H   UNL     1      39.442  48.360  64.395  1.00  0.00     0.210 HD
ENDBRANCH  22  36
ENDBRANCH   8   9
ENDBRANCH   5   8
ENDBRANCH   1   4
TORSDOF 8
ENDMDL
