MODEL 1
REMARK VINA RESULT:     -10.1      0.000      0.000
REMARK  5 active torsions:
REMARK  status: ('A' for Active; 'I' for Inactive)
REMARK    1  A    between atoms: C_3  and  O_4 
REMARK    2  A    between atoms: O_4  and  C_5 
REMARK    3  A    between atoms: C_5  and  C_6 
REMARK    4  A    between atoms: C_13  and  N_14 
REMARK       I    between atoms: N_14  and  C_15 
REMARK    5  A    between atoms: C_15  and  C_16 
ROOT
HETATM    1  N   UNL     1      26.166  46.416  51.988  1.00  0.00    -0.323 N 
HETATM    2  C   UNL     1      25.431  46.398  50.816  1.00  0.00     0.258 C 
HETATM    3  O   UNL     1      24.654  45.519  50.459  1.00  0.00    -0.267 OA
HETATM    4  H   UNL     1      26.647  47.273  52.222  1.00  0.00     0.169 HD
ENDROOT
BRANCH   1   5
HETATM    5  C   UNL     1      26.262  45.391  52.956  1.00  0.00     0.037 A 
HETATM    6  C   UNL     1      27.397  44.602  53.158  1.00  0.00     0.066 A 
HETATM    7  C   UNL     1      27.419  43.607  54.146  1.00  0.00     0.071 A 
HETATM    8  C   UNL     1      26.297  43.412  54.951  1.00  0.00     0.037 A 
HETATM    9  C   UNL     1      25.159  44.195  54.759  1.00  0.00     0.005 A 
HETATM   10  C   UNL     1      25.142  45.176  53.768  1.00  0.00     0.029 A 
BRANCH   7  11
HETATM   11  O   UNL     1      28.590  42.904  54.220  1.00  0.00    -0.347 OA
BRANCH  11  12
HETATM   12  C   UNL     1      29.806  43.638  54.085  1.00  0.00     0.215 C 
BRANCH  12  13
HETATM   13  C   UNL     1      30.295  44.039  55.449  1.00  0.00    -0.017 A 
HETATM   14  C   UNL     1      29.886  45.231  56.038  1.00  0.00     0.125 A 
HETATM   15  N   UNL     1      30.247  45.631  57.279  1.00  0.00    -0.272 NA
HETATM   16  C   UNL     1      31.060  44.803  57.969  1.00  0.00     0.116 A 
HETATM   17  C   UNL     1      31.521  43.593  57.480  1.00  0.00     0.020 A 
HETATM   18  C   UNL     1      31.128  43.206  56.203  1.00  0.00     0.012 A 
ENDBRANCH  12  13
ENDBRANCH  11  12
ENDBRANCH   7  11
ENDBRANCH   1   5
BRANCH   2  19
HETATM   19  C   UNL     1      25.587  47.601  49.947  1.00  0.00     0.059 A 
HETATM   20  C   UNL     1      24.468  48.274  49.475  1.00  0.00     0.057 A 
HETATM   21  C   UNL     1      24.563  49.413  48.674  1.00  0.00    -0.022 A 
HETATM   22  N   UNL     1      23.124  47.979  49.682  1.00  0.00    -0.325 N 
HETATM   23  C   UNL     1      23.187  49.906  48.333  1.00  0.00     0.144 A 
HETATM   24  C   UNL     1      25.795  49.918  48.300  1.00  0.00     0.010 A 
HETATM   25  C   UNL     1      22.291  48.881  49.036  1.00  0.00     0.226 A 
HETATM   26  O   UNL     1      21.072  48.863  49.030  1.00  0.00    -0.273 OA
HETATM   27  C   UNL     1      26.939  49.244  48.738  1.00  0.00     0.002 A 
HETATM   28  C   UNL     1      26.840  48.094  49.548  1.00  0.00     0.019 A 
HETATM   29  H   UNL     1      22.803  47.165  50.196  1.00  0.00     0.169 HD
ENDBRANCH   2  19
TORSDOF 5
ENDMDL
MODEL 2
REMARK VINA RESULT:      -9.7      1.483      1.777
REMARK  5 active torsions:
REMARK  status: ('A' for Active; 'I' for Inactive)
REMARK    1  A    between atoms: C_3  and  O_4 
REMARK    2  A    between atoms: O_4  and  C_5 
REMARK    3  A    between atoms: C_5  and  C_6 
REMARK    4  A    between atoms: C_13  and  N_14 
REMARK       I    between atoms: N_14  and  C_15 
REMARK    5  A    between atoms: C_15  and  C_16 
ROOT
HETATM    1  N   UNL     1      26.802  45.599  50.197  1.00  0.00    -0.323 N 
HETATM    2  C   UNL     1      25.812  46.497  50.559  1.00  0.00     0.258 C 
HETATM    3  O   UNL     1      25.029  46.376  51.495  1.00  0.00    -0.267 OA
HETATM    4  H   UNL     1      27.469  45.900  49.501  1.00  0.00     0.169 HD
ENDROOT
BRANCH   1   5
HETATM    5  C   UNL     1      27.046  44.322  50.751  1.00  0.00     0.037 A 
HETATM    6  C   UNL     1      27.607  44.105  52.012  1.00  0.00     0.066 A 
HETATM    7  C   UNL     1      27.812  42.806  52.496  1.00  0.00     0.071 A 
HETATM    8  C   UNL     1      27.438  41.713  51.716  1.00  0.00     0.037 A 
HETATM    9  C   UNL     1      26.875  41.918  50.456  1.00  0.00     0.005 A 
HETATM   10  C   UNL     1      26.683  43.214  49.977  1.00  0.00     0.029 A 
BRANCH   7  11
HETATM   11  O   UNL     1      28.382  42.745  53.739  1.00  0.00    -0.347 OA
BRANCH  11  12
HETATM   12  C   UNL     1      29.793  42.936  53.825  1.00  0.00     0.215 C 
BRANCH  12  13
HETATM   13  C   UNL     1      30.110  43.727  55.063  1.00  0.00    -0.017 A 
HETATM   14  C   UNL     1      29.449  44.918  55.344  1.00  0.00     0.125 A 
HETATM   15  N   UNL     1      29.648  45.656  56.461  1.00  0.00    -0.272 NA
HETATM   16  C   UNL     1      30.555  45.184  57.344  1.00  0.00     0.116 A 
HETATM   17  C   UNL     1      31.264  44.009  57.165  1.00  0.00     0.020 A 
HETATM   18  C   UNL     1      31.033  43.269  56.009  1.00  0.00     0.012 A 
ENDBRANCH  12  13
ENDBRANCH  11  12
ENDBRANCH   7  11
ENDBRANCH   1   5
BRANCH   2  19
HETATM   19  C   UNL     1      25.749  47.741  49.739  1.00  0.00     0.059 A 
HETATM   20  C   UNL     1      24.522  48.280  49.374  1.00  0.00     0.057 A 
HETATM   21  C   UNL     1      24.412  49.450  48.623  1.00  0.00    -0.022 A 
HETATM   22  N   UNL     1      23.246  47.804  49.658  1.00  0.00    -0.325 N 
HETATM   23  C   UNL     1      22.963  49.771  48.398  1.00  0.00     0.144 A 
HETATM   24  C   UNL     1      25.539  50.125  48.190  1.00  0.00     0.010 A 
HETATM   25  C   UNL     1      22.259  48.612  49.113  1.00  0.00     0.226 A 
HETATM   26  O   UNL     1      21.055  48.435  49.188  1.00  0.00    -0.273 OA
HETATM   27  C   UNL     1      26.788  49.591  48.518  1.00  0.00     0.002 A 
HETATM   28  C   UNL     1      26.897  48.409  49.279  1.00  0.00     0.019 A 
HETATM   29  H   UNL     1      23.070  46.936  50.155  1.00  0.00     0.169 HD
ENDBRANCH   2  19
TORSDOF 5
ENDMDL
MODEL 3
REMARK VINA RESULT:      -9.5      1.820      3.084
REMARK  5 active torsions:
REMARK  status: ('A' for Active; 'I' for Inactive)
REMARK    1  A    between atoms: C_3  and  O_4 
REMARK    2  A    between atoms: O_4  and  C_5 
REMARK    3  A    between atoms: C_5  and  C_6 
REMARK    4  A    between atoms: C_13  and  N_14 
REMARK       I    between atoms: N_14  and  C_15 
REMARK    5  A    between atoms: C_15  and  C_16 
ROOT
HETATM    1  N   UNL     1      24.779  47.522  50.216  1.00  0.00    -0.323 N 
HETATM    2  C   UNL     1      23.650  47.447  49.420  1.00  0.00     0.258 C 
HETATM    3  O   UNL     1      23.108  46.421  49.023  1.00  0.00    -0.267 OA
HETATM    4  H   UNL     1      25.024  48.428  50.590  1.00  0.00     0.169 HD
ENDROOT
BRANCH   1   5
HETATM    5  C   UNL     1      25.600  46.454  50.645  1.00  0.00     0.037 A 
HETATM    6  C   UNL     1      25.749  46.062  51.977  1.00  0.00     0.066 A 
HETATM    7  C   UNL     1      26.578  44.985  52.323  1.00  0.00     0.071 A 
HETATM    8  C   UNL     1      27.251  44.285  51.324  1.00  0.00     0.037 A 
HETATM    9  C   UNL     1      27.107  44.667  49.990  1.00  0.00     0.005 A 
HETATM   10  C   UNL     1      26.289  45.746  49.653  1.00  0.00     0.029 A 
BRANCH   7  11
HETATM   11  O   UNL     1      26.639  44.723  53.665  1.00  0.00    -0.347 OA
BRANCH  11  12
HETATM   12  C   UNL     1      27.272  45.694  54.495  1.00  0.00     0.215 C 
BRANCH  12  13
HETATM   13  C   UNL     1      28.589  45.150  54.976  1.00  0.00    -0.017 A 
HETATM   14  C   UNL     1      29.358  45.844  55.905  1.00  0.00     0.125 A 
HETATM   15  N   UNL     1      30.526  45.392  56.417  1.00  0.00    -0.272 NA
HETATM   16  C   UNL     1      30.953  44.187  55.980  1.00  0.00     0.116 A 
HETATM   17  C   UNL     1      30.263  43.412  55.064  1.00  0.00     0.020 A 
HETATM   18  C   UNL     1      29.062  43.901  54.560  1.00  0.00     0.012 A 
ENDBRANCH  12  13
ENDBRANCH  11  12
ENDBRANCH   7  11
ENDBRANCH   1   5
BRANCH   2  19
HETATM   19  C   UNL     1      23.031  48.757  49.066  1.00  0.00     0.059 A 
HETATM   20  C   UNL     1      21.658  48.937  49.175  1.00  0.00     0.057 A 
HETATM   21  C   UNL     1      21.036  50.149  48.872  1.00  0.00    -0.022 A 
HETATM   22  N   UNL     1      20.691  48.021  49.578  1.00  0.00    -0.325 N 
HETATM   23  C   UNL     1      19.557  50.025  49.094  1.00  0.00     0.144 A 
HETATM   24  C   UNL     1      21.771  51.233  48.429  1.00  0.00     0.010 A 
HETATM   25  C   UNL     1      19.417  48.569  49.550  1.00  0.00     0.226 A 
HETATM   26  O   UNL     1      18.379  47.998  49.837  1.00  0.00    -0.273 OA
HETATM   27  C   UNL     1      23.151  51.073  48.282  1.00  0.00     0.002 A 
HETATM   28  C   UNL     1      23.778  49.848  48.590  1.00  0.00     0.019 A 
HETATM   29  H   UNL     1      20.897  47.053  49.805  1.00  0.00     0.169 HD
ENDBRANCH   2  19
TORSDOF 5
ENDMDL
MODEL 4
REMARK VINA RESULT:      -9.2      2.435      9.721
REMARK  5 active torsions:
REMARK  status: ('A' for Active; 'I' for Inactive)
REMARK    1  A    between atoms: C_3  and  O_4 
REMARK    2  A    between atoms: O_4  and  C_5 
REMARK    3  A    between atoms: C_5  and  C_6 
REMARK    4  A    between atoms: C_13  and  N_14 
REMARK       I    between atoms: N_14  and  C_15 
REMARK    5  A    between atoms: C_15  and  C_16 
ROOT
HETATM    1  N   UNL     1      25.938  46.825  50.293  1.00  0.00    -0.323 N 
HETATM    2  C   UNL     1      25.864  46.683  51.668  1.00  0.00     0.258 C 
HETATM    3  O   UNL     1      25.379  47.487  52.457  1.00  0.00    -0.267 OA
HETATM    4  H   UNL     1      26.225  46.018  49.758  1.00  0.00     0.169 HD
ENDROOT
BRANCH   1   5
HETATM    5  C   UNL     1      25.574  47.955  49.527  1.00  0.00     0.037 A 
HETATM    6  C   UNL     1      24.259  48.307  49.218  1.00  0.00     0.066 A 
HETATM    7  C   UNL     1      23.977  49.450  48.457  1.00  0.00     0.071 A 
HETATM    8  C   UNL     1      25.023  50.258  48.014  1.00  0.00     0.037 A 
HETATM    9  C   UNL     1      26.341  49.917  48.319  1.00  0.00     0.005 A 
HETATM   10  C   UNL     1      26.614  48.773  49.068  1.00  0.00     0.029 A 
BRANCH   7  11
HETATM   11  O   UNL     1      22.646  49.663  48.220  1.00  0.00    -0.347 OA
BRANCH  11  12
HETATM   12  C   UNL     1      21.724  49.229  49.218  1.00  0.00     0.215 C 
BRANCH  12  13
HETATM   13  C   UNL     1      20.572  50.193  49.279  1.00  0.00    -0.017 A 
HETATM   14  C   UNL     1      19.531  50.013  50.185  1.00  0.00     0.125 A 
HETATM   15  N   UNL     1      18.489  50.864  50.328  1.00  0.00    -0.272 NA
HETATM   16  C   UNL     1      18.482  51.951  49.526  1.00  0.00     0.116 A 
HETATM   17  C   UNL     1      19.469  52.229  48.596  1.00  0.00     0.020 A 
HETATM   18  C   UNL     1      20.530  51.338  48.477  1.00  0.00     0.012 A 
ENDBRANCH  12  13
ENDBRANCH  11  12
ENDBRANCH   7  11
ENDBRANCH   1   5
BRANCH   2  19
HETATM   19  C   UNL     1      26.396  45.396  52.205  1.00  0.00     0.059 A 
HETATM   20  C   UNL     1      27.055  45.365  53.427  1.00  0.00     0.057 A 
HETATM   21  C   UNL     1      27.554  44.184  53.977  1.00  0.00    -0.022 A 
HETATM   22  N   UNL     1      27.336  46.420  54.289  1.00  0.00    -0.325 N 
HETATM   23  C   UNL     1      28.206  44.480  55.297  1.00  0.00     0.144 A 
HETATM   24  C   UNL     1      27.423  42.979  53.312  1.00  0.00     0.010 A 
HETATM   25  C   UNL     1      28.024  45.997  55.417  1.00  0.00     0.226 A 
HETATM   26  O   UNL     1      28.412  46.700  56.334  1.00  0.00    -0.273 OA
HETATM   27  C   UNL     1      26.788  42.984  52.067  1.00  0.00     0.002 A 
HETATM   28  C   UNL     1      26.284  44.179  51.513  1.00  0.00     0.019 A 
HETATM   29  H   UNL     1      27.112  47.388  54.081  1.00  0.00     0.169 HD
ENDBRANCH   2  19
TORSDOF 5
ENDMDL
MODEL 5
REMARK VINA RESULT:      -9.2      2.268      9.596
REMARK  5 active torsions:
REMARK  status: ('A' for Active; 'I' for Inactive)
REMARK    1  A    between atoms: C_3  and  O_4 
REMARK    2  A    between atoms: O_4  and  C_5 
REMARK    3  A    between atoms: C_5  and  C_6 
REMARK    4  A    between atoms: C_13  and  N_14 
REMARK       I    between atoms: N_14  and  C_15 
REMARK    5  A    between atoms: C_15  and  C_16 
ROOT
HETATM    1  N   UNL     1      25.994  47.102  51.152  1.00  0.00    -0.323 N 
HETATM    2  C   UNL     1      26.355  45.767  51.104  1.00  0.00     0.258 C 
HETATM    3  O   UNL     1      26.775  45.163  50.124  1.00  0.00    -0.267 OA
HETATM    4  H   UNL     1      25.809  47.501  52.062  1.00  0.00     0.169 HD
ENDROOT
BRANCH   1   5
HETATM    5  C   UNL     1      25.930  48.013  50.074  1.00  0.00     0.037 A 
HETATM    6  C   UNL     1      24.756  48.352  49.398  1.00  0.00     0.066 A 
HETATM    7  C   UNL     1      24.772  49.271  48.340  1.00  0.00     0.071 A 
HETATM    8  C   UNL     1      25.975  49.870  47.965  1.00  0.00     0.037 A 
HETATM    9  C   UNL     1      27.153  49.540  48.635  1.00  0.00     0.005 A 
HETATM   10  C   UNL     1      27.131  48.617  49.680  1.00  0.00     0.029 A 
BRANCH   7  11
HETATM   11  O   UNL     1      23.552  49.496  47.762  1.00  0.00    -0.347 OA
BRANCH  11  12
HETATM   12  C   UNL     1      22.462  48.684  48.193  1.00  0.00     0.215 C 
BRANCH  12  13
HETATM   13  C   UNL     1      21.315  49.569  48.594  1.00  0.00    -0.017 A 
HETATM   14  C   UNL     1      20.263  49.080  49.361  1.00  0.00     0.125 A 
HETATM   15  N   UNL     1      19.224  49.829  49.798  1.00  0.00    -0.272 NA
HETATM   16  C   UNL     1      19.233  51.135  49.452  1.00  0.00     0.116 A 
HETATM   17  C   UNL     1      20.232  51.725  48.698  1.00  0.00     0.020 A 
HETATM   18  C   UNL     1      21.289  50.929  48.268  1.00  0.00     0.012 A 
ENDBRANCH  12  13
ENDBRANCH  11  12
ENDBRANCH   7  11
ENDBRANCH   1   5
BRANCH   2  19
HETATM   19  C   UNL     1      26.252  45.032  52.399  1.00  0.00     0.059 A 
HETATM   20  C   UNL     1      27.320  44.273  52.861  1.00  0.00     0.057 A 
HETATM   21  C   UNL     1      27.277  43.582  54.072  1.00  0.00    -0.022 A 
HETATM   22  N   UNL     1      28.556  44.058  52.261  1.00  0.00    -0.325 N 
HETATM   23  C   UNL     1      28.577  42.865  54.289  1.00  0.00     0.144 A 
HETATM   24  C   UNL     1      26.147  43.613  54.869  1.00  0.00     0.010 A 
HETATM   25  C   UNL     1      29.364  43.228  53.025  1.00  0.00     0.226 A 
HETATM   26  O   UNL     1      30.491  42.858  52.744  1.00  0.00    -0.273 OA
HETATM   27  C   UNL     1      25.046  44.346  54.415  1.00  0.00     0.002 A 
HETATM   28  C   UNL     1      25.092  45.045  53.191  1.00  0.00     0.019 A 
HETATM   29  H   UNL     1      28.806  44.421  51.347  1.00  0.00     0.169 HD
ENDBRANCH   2  19
TORSDOF 5
ENDMDL
MODEL 6
REMARK VINA RESULT:      -9.1      4.320      6.933
REMARK  5 active torsions:
REMARK  status: ('A' for Active; 'I' for Inactive)
REMARK    1  A    between atoms: C_3  and  O_4 
REMARK    2  A    between atoms: O_4  and  C_5 
REMARK    3  A    between atoms: C_5  and  C_6 
REMARK    4  A    between atoms: C_13  and  N_14 
REMARK       I    between atoms: N_14  and  C_15 
REMARK    5  A    between atoms: C_15  and  C_16 
ROOT
HETATM    1  N   UNL     1      27.120  43.320  50.599  1.00  0.00    -0.323 N 
HETATM    2  C   UNL     1      27.447  41.998  50.845  1.00  0.00     0.258 C 
HETATM    3  O   UNL     1      27.523  41.461  51.945  1.00  0.00    -0.267 OA
HETATM    4  H   UNL     1      26.948  43.584  49.639  1.00  0.00     0.169 HD
ENDROOT
BRANCH   1   5
HETATM    5  C   UNL     1      26.915  44.344  51.550  1.00  0.00     0.037 A 
HETATM    6  C   UNL     1      27.403  44.314  52.858  1.00  0.00     0.066 A 
HETATM    7  C   UNL     1      27.164  45.374  53.743  1.00  0.00     0.071 A 
HETATM    8  C   UNL     1      26.442  46.485  53.308  1.00  0.00     0.037 A 
HETATM    9  C   UNL     1      25.952  46.527  52.003  1.00  0.00     0.005 A 
HETATM   10  C   UNL     1      26.185  45.463  51.131  1.00  0.00     0.029 A 
BRANCH   7  11
HETATM   11  O   UNL     1      27.690  45.201  54.994  1.00  0.00    -0.347 OA
BRANCH  11  12
HETATM   12  C   UNL     1      28.775  46.046  55.373  1.00  0.00     0.215 C 
BRANCH  12  13
HETATM   13  C   UNL     1      29.809  45.228  56.095  1.00  0.00    -0.017 A 
HETATM   14  C   UNL     1      30.220  45.562  57.381  1.00  0.00     0.125 A 
HETATM   15  N   UNL     1      31.109  44.845  58.108  1.00  0.00    -0.272 NA
HETATM   16  C   UNL     1      31.616  43.738  57.523  1.00  0.00     0.116 A 
HETATM   17  C   UNL     1      31.271  43.312  56.252  1.00  0.00     0.020 A 
HETATM   18  C   UNL     1      30.351  44.067  55.532  1.00  0.00     0.012 A 
ENDBRANCH  12  13
ENDBRANCH  11  12
ENDBRANCH   7  11
ENDBRANCH   1   5
BRANCH   2  19
HETATM   19  C   UNL     1      27.679  41.161  49.632  1.00  0.00     0.059 A 
HETATM   20  C   UNL     1      28.414  39.986  49.720  1.00  0.00     0.057 A 
HETATM   21  C   UNL     1      28.642  39.163  48.616  1.00  0.00    -0.022 A 
HETATM   22  N   UNL     1      29.028  39.427  50.835  1.00  0.00    -0.325 N 
HETATM   23  C   UNL     1      29.461  37.977  49.034  1.00  0.00     0.144 A 
HETATM   24  C   UNL     1      28.151  39.496  47.367  1.00  0.00     0.010 A 
HETATM   25  C   UNL     1      29.683  38.244  50.527  1.00  0.00     0.226 A 
HETATM   26  O   UNL     1      30.317  37.545  51.299  1.00  0.00    -0.273 OA
HETATM   27  C   UNL     1      27.431  40.687  47.243  1.00  0.00     0.002 A 
HETATM   28  C   UNL     1      27.200  41.517  48.360  1.00  0.00     0.019 A 
HETATM   29  H   UNL     1      29.041  39.871  51.748  1.00  0.00     0.169 HD
ENDBRANCH   2  19
TORSDOF 5
ENDMDL
MODEL 7
REMARK VINA RESULT:      -9.1      2.134      9.299
REMARK  5 active torsions:
REMARK  status: ('A' for Active; 'I' for Inactive)
REMARK    1  A    between atoms: C_3  and  O_4 
REMARK    2  A    between atoms: O_4  and  C_5 
REMARK    3  A    between atoms: C_5  and  C_6 
REMARK    4  A    between atoms: C_13  and  N_14 
REMARK       I    between atoms: N_14  and  C_15 
REMARK    5  A    between atoms: C_15  and  C_16 
ROOT
HETATM    1  N   UNL     1      26.828  44.863  51.479  1.00  0.00    -0.323 N 
HETATM    2  C   UNL     1      26.793  44.322  52.752  1.00  0.00     0.258 C 
HETATM    3  O   UNL     1      25.787  44.089  53.414  1.00  0.00    -0.267 OA
HETATM    4  H   UNL     1      27.717  44.858  50.997  1.00  0.00     0.169 HD
ENDROOT
BRANCH   1   5
HETATM    5  C   UNL     1      25.740  45.355  50.725  1.00  0.00     0.037 A 
HETATM    6  C   UNL     1      25.356  46.697  50.678  1.00  0.00     0.066 A 
HETATM    7  C   UNL     1      24.267  47.110  49.899  1.00  0.00     0.071 A 
HETATM    8  C   UNL     1      23.563  46.171  49.146  1.00  0.00     0.037 A 
HETATM    9  C   UNL     1      23.939  44.828  49.183  1.00  0.00     0.005 A 
HETATM   10  C   UNL     1      25.018  44.423  49.969  1.00  0.00     0.029 A 
BRANCH   7  11
HETATM   11  O   UNL     1      23.998  48.450  49.960  1.00  0.00    -0.347 OA
BRANCH  11  12
HETATM   12  C   UNL     1      23.709  49.119  48.734  1.00  0.00     0.215 C 
BRANCH  12  13
HETATM   13  C   UNL     1      22.313  49.673  48.790  1.00  0.00    -0.017 A 
HETATM   14  C   UNL     1      21.224  48.852  49.066  1.00  0.00     0.125 A 
HETATM   15  N   UNL     1      19.949  49.290  49.180  1.00  0.00    -0.272 NA
HETATM   16  C   UNL     1      19.746  50.614  49.009  1.00  0.00     0.116 A 
HETATM   17  C   UNL     1      20.757  51.519  48.737  1.00  0.00     0.020 A 
HETATM   18  C   UNL     1      22.059  51.039  48.631  1.00  0.00     0.012 A 
ENDBRANCH  12  13
ENDBRANCH  11  12
ENDBRANCH   7  11
ENDBRANCH   1   5
BRANCH   2  19
HETATM   19  C   UNL     1      28.120  43.958  53.328  1.00  0.00     0.059 A 
HETATM   20  C   UNL     1      28.558  44.546  54.508  1.00  0.00     0.057 A 
HETATM   21  C   UNL     1      29.783  44.225  55.093  1.00  0.00    -0.022 A 
HETATM   22  N   UNL     1      27.919  45.501  55.292  1.00  0.00    -0.325 N 
HETATM   23  C   UNL     1      29.963  45.021  56.353  1.00  0.00     0.144 A 
HETATM   24  C   UNL     1      30.632  43.305  54.506  1.00  0.00     0.010 A 
HETATM   25  C   UNL     1      28.677  45.854  56.399  1.00  0.00     0.226 A 
HETATM   26  O   UNL     1      28.377  46.673  57.250  1.00  0.00    -0.273 OA
HETATM   27  C   UNL     1      30.231  42.719  53.302  1.00  0.00     0.002 A 
HETATM   28  C   UNL     1      28.991  43.044  52.714  1.00  0.00     0.019 A 
HETATM   29  H   UNL     1      27.031  45.926  55.044  1.00  0.00     0.169 HD
ENDBRANCH   2  19
TORSDOF 5
ENDMDL
MODEL 8
REMARK VINA RESULT:      -9.0      2.376      9.597
REMARK  5 active torsions:
REMARK  status: ('A' for Active; 'I' for Inactive)
REMARK    1  A    between atoms: C_3  and  O_4 
REMARK    2  A    between atoms: O_4  and  C_5 
REMARK    3  A    between atoms: C_5  and  C_6 
REMARK    4  A    between atoms: C_13  and  N_14 
REMARK       I    between atoms: N_14  and  C_15 
REMARK    5  A    between atoms: C_15  and  C_16 
ROOT
HETATM    1  N   UNL     1      25.806  46.036  51.580  1.00  0.00    -0.323 N 
HETATM    2  C   UNL     1      25.685  45.296  52.743  1.00  0.00     0.258 C 
HETATM    3  O   UNL     1      24.717  44.621  53.077  1.00  0.00    -0.267 OA
HETATM    4  H   UNL     1      26.716  46.419  51.366  1.00  0.00     0.169 HD
ENDROOT
BRANCH   1   5
HETATM    5  C   UNL     1      24.815  46.257  50.596  1.00  0.00     0.037 A 
HETATM    6  C   UNL     1      24.321  47.516  50.245  1.00  0.00     0.066 A 
HETATM    7  C   UNL     1      23.342  47.655  49.253  1.00  0.00     0.071 A 
HETATM    8  C   UNL     1      22.863  46.524  48.593  1.00  0.00     0.037 A 
HETATM    9  C   UNL     1      23.351  45.263  48.934  1.00  0.00     0.005 A 
HETATM   10  C   UNL     1      24.319  45.131  49.930  1.00  0.00     0.029 A 
BRANCH   7  11
HETATM   11  O   UNL     1      22.942  48.944  49.024  1.00  0.00    -0.347 OA
BRANCH  11  12
HETATM   12  C   UNL     1      21.920  49.151  48.051  1.00  0.00     0.215 C 
BRANCH  12  13
HETATM   13  C   UNL     1      20.812  49.962  48.665  1.00  0.00    -0.017 A 
HETATM   14  C   UNL     1      20.048  49.458  49.712  1.00  0.00     0.125 A 
HETATM   15  N   UNL     1      19.069  50.148  50.343  1.00  0.00    -0.272 NA
HETATM   16  C   UNL     1      18.838  51.405  49.907  1.00  0.00     0.116 A 
HETATM   17  C   UNL     1      19.542  52.005  48.877  1.00  0.00     0.020 A 
HETATM   18  C   UNL     1      20.546  51.272  48.252  1.00  0.00     0.012 A 
ENDBRANCH  12  13
ENDBRANCH  11  12
ENDBRANCH   7  11
ENDBRANCH   1   5
BRANCH   2  19
HETATM   19  C   UNL     1      26.883  45.306  53.632  1.00  0.00     0.059 A 
HETATM   20  C   UNL     1      27.660  44.164  53.774  1.00  0.00     0.057 A 
HETATM   21  C   UNL     1      28.798  44.130  54.581  1.00  0.00    -0.022 A 
HETATM   22  N   UNL     1      27.483  42.915  53.190  1.00  0.00    -0.325 N 
HETATM   23  C   UNL     1      29.417  42.764  54.521  1.00  0.00     0.144 A 
HETATM   24  C   UNL     1      29.197  45.245  55.295  1.00  0.00     0.010 A 
HETATM   25  C   UNL     1      28.466  42.017  53.580  1.00  0.00     0.226 A 
HETATM   26  O   UNL     1      28.556  40.850  53.239  1.00  0.00    -0.273 OA
HETATM   27  C   UNL     1      28.417  46.401  55.194  1.00  0.00     0.002 A 
HETATM   28  C   UNL     1      27.268  46.433  54.377  1.00  0.00     0.019 A 
HETATM   29  H   UNL     1      26.693  42.681  52.597  1.00  0.00     0.169 HD
ENDBRANCH   2  19
TORSDOF 5
ENDMDL
MODEL 9
REMARK VINA RESULT:      -8.8      2.342      3.190
REMARK  5 active torsions:
REMARK  status: ('A' for Active; 'I' for Inactive)
REMARK    1  A    between atoms: C_3  and  O_4 
REMARK    2  A    between atoms: O_4  and  C_5 
REMARK    3  A    between atoms: C_5  and  C_6 
REMARK    4  A    between atoms: C_13  and  N_14 
REMARK       I    between atoms: N_14  and  C_15 
REMARK    5  A    between atoms: C_15  and  C_16 
ROOT
HETATM    1  N   UNL     1      25.588  45.030  49.761  1.00  0.00    -0.323 N 
HETATM    2  C   UNL     1      24.927  46.009  50.482  1.00  0.00     0.258 C 
HETATM    3  O   UNL     1      24.747  46.021  51.695  1.00  0.00    -0.267 OA
HETATM    4  H   UNL     1      25.793  45.226  48.792  1.00  0.00     0.169 HD
ENDROOT
BRANCH   1   5
HETATM    5  C   UNL     1      26.092  43.802  50.244  1.00  0.00     0.037 A 
HETATM    6  C   UNL     1      27.239  43.677  51.032  1.00  0.00     0.066 A 
HETATM    7  C   UNL     1      27.673  42.422  51.480  1.00  0.00     0.071 A 
HETATM    8  C   UNL     1      26.943  41.282  51.150  1.00  0.00     0.037 A 
HETATM    9  C   UNL     1      25.794  41.395  50.366  1.00  0.00     0.005 A 
HETATM   10  C   UNL     1      25.374  42.646  49.915  1.00  0.00     0.029 A 
BRANCH   7  11
HETATM   11  O   UNL     1      28.818  42.450  52.229  1.00  0.00    -0.347 OA
BRANCH  11  12
HETATM   12  C   UNL     1      28.702  42.138  53.616  1.00  0.00     0.215 C 
BRANCH  12  13
HETATM   13  C   UNL     1      29.230  43.289  54.427  1.00  0.00    -0.017 A 
HETATM   14  C   UNL     1      28.496  44.462  54.574  1.00  0.00     0.125 A 
HETATM   15  N   UNL     1      28.886  45.517  55.326  1.00  0.00    -0.272 NA
HETATM   16  C   UNL     1      30.070  45.398  55.965  1.00  0.00     0.116 A 
HETATM   17  C   UNL     1      30.876  44.275  55.893  1.00  0.00     0.020 A 
HETATM   18  C   UNL     1      30.445  43.205  55.116  1.00  0.00     0.012 A 
ENDBRANCH  12  13
ENDBRANCH  11  12
ENDBRANCH   7  11
ENDBRANCH   1   5
BRANCH   2  19
HETATM   19  C   UNL     1      24.438  47.170  49.682  1.00  0.00     0.059 A 
HETATM   20  C   UNL     1      25.322  48.159  49.270  1.00  0.00     0.057 A 
HETATM   21  C   UNL     1      24.915  49.254  48.506  1.00  0.00    -0.022 A 
HETATM   22  N   UNL     1      26.688  48.260  49.512  1.00  0.00    -0.325 N 
HETATM   23  C   UNL     1      26.096  50.136  48.222  1.00  0.00     0.144 A 
HETATM   24  C   UNL     1      23.592  49.410  48.135  1.00  0.00     0.010 A 
HETATM   25  C   UNL     1      27.232  49.402  48.942  1.00  0.00     0.226 A 
HETATM   26  O   UNL     1      28.397  49.755  49.003  1.00  0.00    -0.273 OA
HETATM   27  C   UNL     1      22.675  48.444  48.560  1.00  0.00     0.002 A 
HETATM   28  C   UNL     1      23.089  47.338  49.330  1.00  0.00     0.019 A 
HETATM   29  H   UNL     1      27.204  47.602  50.088  1.00  0.00     0.169 HD
ENDBRANCH   2  19
TORSDOF 5
ENDMDL
MODEL 10
REMARK VINA RESULT:      -8.6      2.272      3.025
REMARK  5 active torsions:
REMARK  status: ('A' for Active; 'I' for Inactive)
REMARK    1  A    between atoms: C_3  and  O_4 
REMARK    2  A    between atoms: O_4  and  C_5 
REMARK    3  A    between atoms: C_5  and  C_6 
REMARK    4  A    between atoms: C_13  and  N_14 
REMARK       I    between atoms: N_14  and  C_15 
REMARK    5  A    between atoms: C_15  and  C_16 
ROOT
HETATM    1  N   UNL     1      26.262  44.433  51.001  1.00  0.00    -0.323 N 
HETATM    2  C   UNL     1      26.482  45.370  50.006  1.00  0.00     0.258 C 
HETATM    3  O   UNL     1      27.523  45.532  49.378  1.00  0.00    -0.267 OA
HETATM    4  H   UNL     1      25.312  44.312  51.323  1.00  0.00     0.169 HD
ENDROOT
BRANCH   1   5
HETATM    5  C   UNL     1      27.207  43.551  51.573  1.00  0.00     0.037 A 
HETATM    6  C   UNL     1      28.256  43.952  52.402  1.00  0.00     0.066 A 
HETATM    7  C   UNL     1      29.150  43.015  52.939  1.00  0.00     0.071 A 
HETATM    8  C   UNL     1      28.982  41.661  52.654  1.00  0.00     0.037 A 
HETATM    9  C   UNL     1      27.935  41.249  51.829  1.00  0.00     0.005 A 
HETATM   10  C   UNL     1      27.056  42.188  51.290  1.00  0.00     0.029 A 
BRANCH   7  11
HETATM   11  O   UNL     1      30.136  43.552  53.721  1.00  0.00    -0.347 OA
BRANCH  11  12
HETATM   12  C   UNL     1      30.547  42.804  54.864  1.00  0.00     0.215 C 
BRANCH  12  13
HETATM   13  C   UNL     1      30.672  43.731  56.042  1.00  0.00    -0.017 A 
HETATM   14  C   UNL     1      31.541  43.448  57.090  1.00  0.00     0.125 A 
HETATM   15  N   UNL     1      31.739  44.259  58.156  1.00  0.00    -0.272 NA
HETATM   16  C   UNL     1      31.034  45.410  58.179  1.00  0.00     0.116 A 
HETATM   17  C   UNL     1      30.148  45.791  57.187  1.00  0.00     0.020 A 
HETATM   18  C   UNL     1      29.970  44.940  56.101  1.00  0.00     0.012 A 
ENDBRANCH  12  13
ENDBRANCH  11  12
ENDBRANCH   7  11
ENDBRANCH   1   5
BRANCH   2  19
HETATM   19  C   UNL     1      25.305  46.217  49.657  1.00  0.00     0.059 A 
HETATM   20  C   UNL     1      25.481  47.545  49.288  1.00  0.00     0.057 A 
HETATM   21  C   UNL     1      24.413  48.371  48.937  1.00  0.00    -0.022 A 
HETATM   22  N   UNL     1      26.663  48.272  49.199  1.00  0.00    -0.325 N 
HETATM   23  C   UNL     1      24.927  49.737  48.588  1.00  0.00     0.144 A 
HETATM   24  C   UNL     1      23.113  47.899  48.956  1.00  0.00     0.010 A 
HETATM   25  C   UNL     1      26.436  49.582  48.804  1.00  0.00     0.226 A 
HETATM   26  O   UNL     1      27.280  50.449  48.655  1.00  0.00    -0.273 OA
HETATM   27  C   UNL     1      22.903  46.575  49.351  1.00  0.00     0.002 A 
HETATM   28  C   UNL     1      23.984  45.742  49.704  1.00  0.00     0.019 A 
HETATM   29  H   UNL     1      27.572  47.896  49.452  1.00  0.00     0.169 HD
ENDBRANCH   2  19
TORSDOF 5
ENDMDL
