MODEL 1
REMARK VINA RESULT:      -7.1      0.000      0.000
REMARK  10 active torsions:
REMARK  status: ('A' for Active; 'I' for Inactive)
REMARK    1  A    between atoms: C_4  and  C_5 
REMARK    2  A    between atoms: C_7  and  C_8 
REMARK    3  A    between atoms: C_8  and  C_9 
REMARK       I    between atoms: C_9  and  N_10 
REMARK    4  A    between atoms: N_10  and  C_11 
REMARK    5  A    between atoms: C_11  and  C_12 
REMARK    6  A    between atoms: C_12  and  N_13 
REMARK    7  A    between atoms: C_24  and  C_25 
REMARK    8  A    between atoms: C_25  and  O_26 
REMARK    9  A    between atoms: O_26  and  C_27 
REMARK   10  A    between atoms: C_27  and  C_28 
ROOT
HETATM    1  C   UNL     1      15.647  51.409  46.776  1.00  0.00     0.166 C 
HETATM    2  N   UNL     1      15.612  52.431  45.710  1.00  0.00    -0.318 N 
HETATM    3  C   UNL     1      14.888  53.459  45.413  1.00  0.00     0.011 C 
HETATM    4  C   UNL     1      16.668  52.156  44.610  1.00  0.00     0.170 C 
HETATM    5  S   UNL     1      16.943  53.566  43.647  1.00  0.00    -0.086 SA
HETATM    6  C   UNL     1      15.335  54.235  44.190  1.00  0.00     0.135 C 
HETATM    7  N   UNL     1      17.127  50.986  44.327  1.00  0.00    -0.229 NA
HETATM    8  C   UNL     1      16.506  49.915  44.951  1.00  0.00     0.048 C 
HETATM    9  C   UNL     1      16.646  48.616  44.193  1.00  0.00     0.071 C 
HETATM   10  C   UNL     1      15.746  50.078  46.057  1.00  0.00     0.069 C 
ENDROOT
BRANCH   3  11
HETATM   11  C   UNL     1      13.654  53.833  46.181  1.00  0.00     0.156 C 
BRANCH  11  12
HETATM   12  C   UNL     1      13.762  55.176  46.876  1.00  0.00     0.223 C 
HETATM   13  N   UNL     1      14.245  55.120  48.158  1.00  0.00    -0.359 N 
HETATM   14  H   UNL     1      14.376  54.198  48.569  1.00  0.00     0.162 HD
HETATM   15  O   UNL     1      13.430  56.218  46.319  1.00  0.00    -0.273 OA
BRANCH  13  16
HETATM   16  C   UNL     1      14.248  56.209  49.141  1.00  0.00     0.150 C 
BRANCH  16  17
HETATM   17  C   UNL     1      15.117  56.054  50.408  1.00  0.00     0.253 C 
BRANCH  17  18
HETATM   18  N   UNL     1      14.375  55.428  51.573  1.00  0.00    -0.077 N 
HETATM   19  H   UNL     1      14.479  54.401  51.461  1.00  0.00     0.279 HD
HETATM   20  C   UNL     1      14.922  55.793  52.926  1.00  0.00     0.269 C 
HETATM   21  C   UNL     1      12.899  55.716  51.503  1.00  0.00     0.269 C 
ENDBRANCH  17  18
ENDBRANCH  16  17
ENDBRANCH  13  16
ENDBRANCH  11  12
ENDBRANCH   3  11
BRANCH   1  22
HETATM   22  C   UNL     1      16.791  51.633  47.808  1.00  0.00    -0.024 A 
HETATM   23  C   UNL     1      18.120  51.313  47.411  1.00  0.00     0.017 A 
HETATM   24  C   UNL     1      19.235  51.478  48.245  1.00  0.00    -0.061 A 
HETATM   25  C   UNL     1      20.617  51.153  47.750  1.00  0.00     0.048 C 
HETATM   26  C   UNL     1      19.050  51.996  49.517  1.00  0.00     0.007 A 
HETATM   27  C   UNL     1      17.764  52.275  49.963  1.00  0.00     0.008 A 
HETATM   28  C   UNL     1      16.626  52.068  49.151  1.00  0.00    -0.053 A 
HETATM   29  C   UNL     1      15.316  52.339  49.836  1.00  0.00     0.049 C 
ENDBRANCH   1  22
BRANCH  10  30
HETATM   30  C   UNL     1      14.824  49.049  46.567  1.00  0.00     0.294 C 
HETATM   31  O   UNL     1      13.761  48.844  46.001  1.00  0.00    -0.259 OA
BRANCH  30  32
HETATM   32  O   UNL     1      15.291  48.492  47.697  1.00  0.00    -0.313 OA
BRANCH  32  33
HETATM   33  C   UNL     1      16.186  47.378  47.536  1.00  0.00     0.217 C 
BRANCH  33  34
HETATM   34  C   UNL     1      17.504  47.661  48.210  1.00  0.00    -0.034 A 
HETATM   35  C   UNL     1      17.553  48.135  49.530  1.00  0.00     0.009 A 
HETATM   36  C   UNL     1      18.777  48.366  50.158  1.00  0.00     0.001 A 
HETATM   37  C   UNL     1      19.968  48.114  49.480  1.00  0.00     0.000 A 
HETATM   38  C   UNL     1      19.935  47.636  48.172  1.00  0.00     0.001 A 
HETATM   39  C   UNL     1      18.710  47.413  47.539  1.00  0.00     0.009 A 
ENDBRANCH  33  34
ENDBRANCH  32  33
ENDBRANCH  30  32
ENDBRANCH  10  30
TORSDOF 10
ENDMDL
MODEL 2
REMARK VINA RESULT:      -6.7     14.988     18.385
REMARK  10 active torsions:
REMARK  status: ('A' for Active; 'I' for Inactive)
REMARK    1  A    between atoms: C_4  and  C_5 
REMARK    2  A    between atoms: C_7  and  C_8 
REMARK    3  A    between atoms: C_8  and  C_9 
REMARK       I    between atoms: C_9  and  N_10 
REMARK    4  A    between atoms: N_10  and  C_11 
REMARK    5  A    between atoms: C_11  and  C_12 
REMARK    6  A    between atoms: C_12  and  N_13 
REMARK    7  A    between atoms: C_24  and  C_25 
REMARK    8  A    between atoms: C_25  and  O_26 
REMARK    9  A    between atoms: O_26  and  C_27 
REMARK   10  A    between atoms: C_27  and  C_28 
ROOT
HETATM    1  C   UNL     1      32.410  50.233  40.768  1.00  0.00     0.166 C 
HETATM    2  N   UNL     1      33.197  50.881  41.837  1.00  0.00    -0.318 N 
HETATM    3  C   UNL     1      34.379  51.388  41.964  1.00  0.00     0.011 C 
HETATM    4  C   UNL     1      32.443  50.881  43.191  1.00  0.00     0.170 C 
HETATM    5  S   UNL     1      33.135  52.026  44.287  1.00  0.00    -0.086 SA
HETATM    6  C   UNL     1      34.679  52.003  43.316  1.00  0.00     0.135 C 
HETATM    7  N   UNL     1      31.554  50.010  43.521  1.00  0.00    -0.229 NA
HETATM    8  C   UNL     1      31.399  48.933  42.662  1.00  0.00     0.048 C 
HETATM    9  C   UNL     1      30.828  47.707  43.333  1.00  0.00     0.071 C 
HETATM   10  C   UNL     1      31.850  48.969  41.388  1.00  0.00     0.069 C 
ENDROOT
BRANCH   3  11
HETATM   11  C   UNL     1      35.411  51.323  40.876  1.00  0.00     0.156 C 
BRANCH  11  12
HETATM   12  C   UNL     1      35.505  52.597  40.059  1.00  0.00     0.223 C 
HETATM   13  N   UNL     1      36.465  53.479  40.484  1.00  0.00    -0.359 N 
HETATM   14  H   UNL     1      36.942  53.268  41.358  1.00  0.00     0.162 HD
HETATM   15  O   UNL     1      34.765  52.805  39.103  1.00  0.00    -0.273 OA
BRANCH  13  16
HETATM   16  C   UNL     1      36.635  54.868  40.041  1.00  0.00     0.150 C 
BRANCH  16  17
HETATM   17  C   UNL     1      36.830  55.141  38.534  1.00  0.00     0.253 C 
BRANCH  17  18
HETATM   18  N   UNL     1      35.901  56.209  37.990  1.00  0.00    -0.077 N 
HETATM   19  H   UNL     1      35.275  55.728  37.315  1.00  0.00     0.279 HD
HETATM   20  C   UNL     1      35.032  56.863  39.027  1.00  0.00     0.269 C 
HETATM   21  C   UNL     1      36.659  57.244  37.202  1.00  0.00     0.269 C 
ENDBRANCH  17  18
ENDBRANCH  16  17
ENDBRANCH  13  16
ENDBRANCH  11  12
ENDBRANCH   3  11
BRANCH   1  22
HETATM   22  C   UNL     1      31.313  51.158  40.164  1.00  0.00    -0.024 A 
HETATM   23  C   UNL     1      30.265  51.598  41.021  1.00  0.00     0.017 A 
HETATM   24  C   UNL     1      29.224  52.438  40.599  1.00  0.00    -0.061 A 
HETATM   25  C   UNL     1      28.167  52.893  41.565  1.00  0.00     0.048 C 
HETATM   26  C   UNL     1      29.216  52.885  39.288  1.00  0.00     0.007 A 
HETATM   27  C   UNL     1      30.191  52.441  38.404  1.00  0.00     0.008 A 
HETATM   28  C   UNL     1      31.217  51.555  38.802  1.00  0.00    -0.053 A 
HETATM   29  C   UNL     1      32.125  51.114  37.688  1.00  0.00     0.049 C 
ENDBRANCH   1  22
BRANCH  10  30
HETATM   30  C   UNL     1      31.995  47.770  40.545  1.00  0.00     0.294 C 
HETATM   31  O   UNL     1      32.777  46.888  40.864  1.00  0.00    -0.259 OA
BRANCH  30  32
HETATM   32  O   UNL     1      31.241  47.857  39.437  1.00  0.00    -0.313 OA
BRANCH  32  33
HETATM   33  C   UNL     1      29.960  47.203  39.483  1.00  0.00     0.217 C 
BRANCH  33  34
HETATM   34  C   UNL     1      28.851  48.221  39.545  1.00  0.00    -0.034 A 
HETATM   35  C   UNL     1      28.472  48.946  38.405  1.00  0.00     0.009 A 
HETATM   36  C   UNL     1      27.423  49.865  38.463  1.00  0.00     0.001 A 
HETATM   37  C   UNL     1      26.732  50.061  39.656  1.00  0.00     0.000 A 
HETATM   38  C   UNL     1      27.093  49.343  40.794  1.00  0.00     0.001 A 
HETATM   39  C   UNL     1      28.148  48.430  40.741  1.00  0.00     0.009 A 
ENDBRANCH  33  34
ENDBRANCH  32  33
ENDBRANCH  30  32
ENDBRANCH  10  30
TORSDOF 10
ENDMDL
MODEL 3
REMARK VINA RESULT:      -6.7      4.921      9.258
REMARK  10 active torsions:
REMARK  status: ('A' for Active; 'I' for Inactive)
REMARK    1  A    between atoms: C_4  and  C_5 
REMARK    2  A    between atoms: C_7  and  C_8 
REMARK    3  A    between atoms: C_8  and  C_9 
REMARK       I    between atoms: C_9  and  N_10 
REMARK    4  A    between atoms: N_10  and  C_11 
REMARK    5  A    between atoms: C_11  and  C_12 
REMARK    6  A    between atoms: C_12  and  N_13 
REMARK    7  A    between atoms: C_24  and  C_25 
REMARK    8  A    between atoms: C_25  and  O_26 
REMARK    9  A    between atoms: O_26  and  C_27 
REMARK   10  A    between atoms: C_27  and  C_28 
ROOT
HETATM    1  C   UNL     1      19.866  48.460  48.136  1.00  0.00     0.166 C 
HETATM    2  N   UNL     1      21.328  48.632  48.251  1.00  0.00    -0.318 N 
HETATM    3  C   UNL     1      22.351  47.878  48.486  1.00  0.00     0.011 C 
HETATM    4  C   UNL     1      21.746  50.120  48.145  1.00  0.00     0.170 C 
HETATM    5  S   UNL     1      23.436  50.268  47.806  1.00  0.00    -0.086 SA
HETATM    6  C   UNL     1      23.697  48.574  48.431  1.00  0.00     0.135 C 
HETATM    7  N   UNL     1      20.983  51.108  48.462  1.00  0.00    -0.229 NA
HETATM    8  C   UNL     1      19.784  50.785  49.078  1.00  0.00     0.048 C 
HETATM    9  C   UNL     1      19.227  51.902  49.929  1.00  0.00     0.071 C 
HETATM   10  C   UNL     1      19.263  49.540  49.012  1.00  0.00     0.069 C 
ENDROOT
BRANCH   3  11
HETATM   11  C   UNL     1      22.224  46.427  48.850  1.00  0.00     0.156 C 
BRANCH  11  12
HETATM   12  C   UNL     1      23.539  45.793  49.262  1.00  0.00     0.223 C 
HETATM   13  N   UNL     1      23.868  45.964  50.581  1.00  0.00    -0.359 N 
HETATM   14  H   UNL     1      23.281  46.585  51.134  1.00  0.00     0.162 HD
HETATM   15  O   UNL     1      24.241  45.186  48.459  1.00  0.00    -0.273 OA
BRANCH  13  16
HETATM   16  C   UNL     1      25.161  45.665  51.207  1.00  0.00     0.150 C 
BRANCH  16  17
HETATM   17  C   UNL     1      25.169  44.947  52.574  1.00  0.00     0.253 C 
BRANCH  17  18
HETATM   18  N   UNL     1      25.678  43.521  52.502  1.00  0.00    -0.077 N 
HETATM   19  H   UNL     1      24.987  42.942  53.019  1.00  0.00     0.279 HD
HETATM   20  C   UNL     1      25.780  42.967  51.108  1.00  0.00     0.269 C 
HETATM   21  C   UNL     1      26.987  43.368  53.231  1.00  0.00     0.269 C 
ENDBRANCH  17  18
ENDBRANCH  16  17
ENDBRANCH  13  16
ENDBRANCH  11  12
ENDBRANCH   3  11
BRANCH   1  22
HETATM   22  C   UNL     1      19.353  48.506  46.667  1.00  0.00    -0.024 A 
HETATM   23  C   UNL     1      18.927  49.761  46.148  1.00  0.00     0.017 A 
HETATM   24  C   UNL     1      18.453  49.933  44.839  1.00  0.00    -0.061 A 
HETATM   25  C   UNL     1      18.052  51.294  44.343  1.00  0.00     0.048 C 
HETATM   26  C   UNL     1      18.410  48.837  43.993  1.00  0.00     0.007 A 
HETATM   27  C   UNL     1      18.769  47.584  44.473  1.00  0.00     0.008 A 
HETATM   28  C   UNL     1      19.202  47.387  45.804  1.00  0.00    -0.053 A 
HETATM   29  C   UNL     1      19.458  45.951  46.167  1.00  0.00     0.049 C 
ENDBRANCH   1  22
BRANCH  10  30
HETATM   30  C   UNL     1      18.180  49.065  49.892  1.00  0.00     0.294 C 
HETATM   31  O   UNL     1      18.367  48.967  51.095  1.00  0.00    -0.259 OA
BRANCH  30  32
HETATM   32  O   UNL     1      17.090  48.725  49.185  1.00  0.00    -0.313 OA
BRANCH  32  33
HETATM   33  C   UNL     1      16.278  49.809  48.702  1.00  0.00     0.217 C 
BRANCH  33  34
HETATM   34  C   UNL     1      15.688  49.467  47.358  1.00  0.00    -0.034 A 
HETATM   35  C   UNL     1      15.189  50.469  46.513  1.00  0.00     0.009 A 
HETATM   36  C   UNL     1      14.671  50.149  45.256  1.00  0.00     0.001 A 
HETATM   37  C   UNL     1      14.659  48.825  44.825  1.00  0.00     0.000 A 
HETATM   38  C   UNL     1      15.159  47.820  45.650  1.00  0.00     0.001 A 
HETATM   39  C   UNL     1      15.668  48.138  46.911  1.00  0.00     0.009 A 
ENDBRANCH  33  34
ENDBRANCH  32  33
ENDBRANCH  30  32
ENDBRANCH  10  30
TORSDOF 10
ENDMDL
MODEL 4
REMARK VINA RESULT:      -6.7     27.691     31.075
REMARK  10 active torsions:
REMARK  status: ('A' for Active; 'I' for Inactive)
REMARK    1  A    between atoms: C_4  and  C_5 
REMARK    2  A    between atoms: C_7  and  C_8 
REMARK    3  A    between atoms: C_8  and  C_9 
REMARK       I    between atoms: C_9  and  N_10 
REMARK    4  A    between atoms: N_10  and  C_11 
REMARK    5  A    between atoms: C_11  and  C_12 
REMARK    6  A    between atoms: C_12  and  N_13 
REMARK    7  A    between atoms: C_24  and  C_25 
REMARK    8  A    between atoms: C_25  and  O_26 
REMARK    9  A    between atoms: O_26  and  C_27 
REMARK   10  A    between atoms: C_27  and  C_28 
ROOT
HETATM    1  C   UNL     1      39.177  45.459  65.378  1.00  0.00     0.166 C 
HETATM    2  N   UNL     1      39.908  44.175  65.356  1.00  0.00    -0.318 N 
HETATM    3  C   UNL     1      40.891  43.660  64.693  1.00  0.00     0.011 C 
HETATM    4  C   UNL     1      39.283  43.137  66.322  1.00  0.00     0.170 C 
HETATM    5  S   UNL     1      40.388  41.845  66.643  1.00  0.00    -0.086 SA
HETATM    6  C   UNL     1      41.304  42.267  65.123  1.00  0.00     0.135 C 
HETATM    7  N   UNL     1      38.045  43.136  66.677  1.00  0.00    -0.229 NA
HETATM    8  C   UNL     1      37.216  44.029  66.017  1.00  0.00     0.048 C 
HETATM    9  C   UNL     1      35.764  43.612  66.016  1.00  0.00     0.071 C 
HETATM   10  C   UNL     1      37.708  45.088  65.336  1.00  0.00     0.069 C 
ENDROOT
BRANCH   3  11
HETATM   11  C   UNL     1      41.544  44.359  63.536  1.00  0.00     0.156 C 
BRANCH  11  12
HETATM   12  C   UNL     1      42.846  45.044  63.906  1.00  0.00     0.223 C 
HETATM   13  N   UNL     1      43.485  44.509  64.994  1.00  0.00    -0.359 N 
HETATM   14  H   UNL     1      42.992  43.793  65.522  1.00  0.00     0.162 HD
HETATM   15  O   UNL     1      43.271  46.005  63.272  1.00  0.00    -0.273 OA
BRANCH  13  16
HETATM   16  C   UNL     1      44.626  45.089  65.712  1.00  0.00     0.150 C 
BRANCH  16  17
HETATM   17  C   UNL     1      44.362  46.244  66.702  1.00  0.00     0.253 C 
BRANCH  17  18
HETATM   18  N   UNL     1      44.808  47.597  66.183  1.00  0.00    -0.077 N 
HETATM   19  H   UNL     1      43.967  48.032  65.756  1.00  0.00     0.279 HD
HETATM   20  C   UNL     1      45.313  48.534  67.245  1.00  0.00     0.269 C 
HETATM   21  C   UNL     1      45.819  47.453  65.077  1.00  0.00     0.269 C 
ENDBRANCH  17  18
ENDBRANCH  16  17
ENDBRANCH  13  16
ENDBRANCH  11  12
ENDBRANCH   3  11
BRANCH   1  22
HETATM   22  C   UNL     1      39.548  46.358  66.594  1.00  0.00    -0.024 A 
HETATM   23  C   UNL     1      38.844  46.154  67.814  1.00  0.00     0.017 A 
HETATM   24  C   UNL     1      39.090  46.893  68.980  1.00  0.00    -0.061 A 
HETATM   25  C   UNL     1      38.333  46.603  70.246  1.00  0.00     0.048 C 
HETATM   26  C   UNL     1      40.082  47.861  68.962  1.00  0.00     0.007 A 
HETATM   27  C   UNL     1      40.760  48.127  67.780  1.00  0.00     0.008 A 
HETATM   28  C   UNL     1      40.488  47.425  66.584  1.00  0.00    -0.053 A 
HETATM   29  C   UNL     1      41.255  47.914  65.387  1.00  0.00     0.049 C 
ENDBRANCH   1  22
BRANCH  10  30
HETATM   30  C   UNL     1      36.918  45.873  64.373  1.00  0.00     0.294 C 
HETATM   31  O   UNL     1      36.827  45.506  63.212  1.00  0.00    -0.259 OA
BRANCH  30  32
HETATM   32  O   UNL     1      36.430  46.991  64.937  1.00  0.00    -0.313 OA
BRANCH  32  33
HETATM   33  C   UNL     1      36.965  48.235  64.454  1.00  0.00     0.217 C 
BRANCH  33  34
HETATM   34  C   UNL     1      37.365  49.119  65.608  1.00  0.00    -0.034 A 
HETATM   35  C   UNL     1      38.300  50.150  65.436  1.00  0.00     0.009 A 
HETATM   36  C   UNL     1      38.644  50.984  66.501  1.00  0.00     0.001 A 
HETATM   37  C   UNL     1      38.048  50.805  67.747  1.00  0.00     0.000 A 
HETATM   38  C   UNL     1      37.112  49.790  67.931  1.00  0.00     0.001 A 
HETATM   39  C   UNL     1      36.774  48.948  66.868  1.00  0.00     0.009 A 
ENDBRANCH  33  34
ENDBRANCH  32  33
ENDBRANCH  30  32
ENDBRANCH  10  30
TORSDOF 10
ENDMDL
MODEL 5
REMARK VINA RESULT:      -6.6      3.782      8.158
REMARK  10 active torsions:
REMARK  status: ('A' for Active; 'I' for Inactive)
REMARK    1  A    between atoms: C_4  and  C_5 
REMARK    2  A    between atoms: C_7  and  C_8 
REMARK    3  A    between atoms: C_8  and  C_9 
REMARK       I    between atoms: C_9  and  N_10 
REMARK    4  A    between atoms: N_10  and  C_11 
REMARK    5  A    between atoms: C_11  and  C_12 
REMARK    6  A    between atoms: C_12  and  N_13 
REMARK    7  A    between atoms: C_24  and  C_25 
REMARK    8  A    between atoms: C_25  and  O_26 
REMARK    9  A    between atoms: O_26  and  C_27 
REMARK   10  A    between atoms: C_27  and  C_28 
ROOT
HETATM    1  C   UNL     1      17.723  49.313  46.787  1.00  0.00     0.166 C 
HETATM    2  N   UNL     1      18.936  49.506  47.608  1.00  0.00    -0.318 N 
HETATM    3  C   UNL     1      19.926  48.781  48.015  1.00  0.00     0.011 C 
HETATM    4  C   UNL     1      19.003  50.931  48.215  1.00  0.00     0.170 C 
HETATM    5  S   UNL     1      20.603  51.299  48.760  1.00  0.00    -0.086 SA
HETATM    6  C   UNL     1      20.980  49.515  48.820  1.00  0.00     0.135 C 
HETATM    7  N   UNL     1      17.969  51.659  48.461  1.00  0.00    -0.229 NA
HETATM    8  C   UNL     1      16.736  51.046  48.311  1.00  0.00     0.048 C 
HETATM    9  C   UNL     1      15.643  51.687  49.134  1.00  0.00     0.071 C 
HETATM   10  C   UNL     1      16.588  49.907  47.597  1.00  0.00     0.069 C 
ENDROOT
BRANCH   3  11
HETATM   11  C   UNL     1      20.006  47.303  47.765  1.00  0.00     0.156 C 
BRANCH  11  12
HETATM   12  C   UNL     1      21.428  46.785  47.675  1.00  0.00     0.223 C 
HETATM   13  N   UNL     1      21.890  46.182  48.816  1.00  0.00    -0.359 N 
HETATM   14  H   UNL     1      21.302  46.234  49.645  1.00  0.00     0.162 HD
HETATM   15  O   UNL     1      22.097  46.913  46.654  1.00  0.00    -0.273 OA
BRANCH  13  16
HETATM   16  C   UNL     1      23.276  45.793  49.100  1.00  0.00     0.150 C 
BRANCH  16  17
HETATM   17  C   UNL     1      24.166  46.771  49.897  1.00  0.00     0.253 C 
BRANCH  17  18
HETATM   18  N   UNL     1      25.104  46.078  50.867  1.00  0.00    -0.077 N 
HETATM   19  H   UNL     1      25.927  45.781  50.308  1.00  0.00     0.279 HD
HETATM   20  C   UNL     1      25.605  46.955  51.981  1.00  0.00     0.269 C 
HETATM   21  C   UNL     1      24.489  44.819  51.419  1.00  0.00     0.269 C 
ENDBRANCH  17  18
ENDBRANCH  16  17
ENDBRANCH  13  16
ENDBRANCH  11  12
ENDBRANCH   3  11
BRANCH   1  22
HETATM   22  C   UNL     1      17.842  49.923  45.359  1.00  0.00    -0.024 A 
HETATM   23  C   UNL     1      17.365  51.249  45.158  1.00  0.00     0.017 A 
HETATM   24  C   UNL     1      17.423  51.911  43.923  1.00  0.00    -0.061 A 
HETATM   25  C   UNL     1      16.932  53.325  43.788  1.00  0.00     0.048 C 
HETATM   26  C   UNL     1      17.989  51.258  42.840  1.00  0.00     0.007 A 
HETATM   27  C   UNL     1      18.422  49.946  42.979  1.00  0.00     0.008 A 
HETATM   28  C   UNL     1      18.325  49.249  44.205  1.00  0.00    -0.053 A 
HETATM   29  C   UNL     1      18.759  47.811  44.139  1.00  0.00     0.049 C 
ENDBRANCH   1  22
BRANCH  10  30
HETATM   30  C   UNL     1      15.388  49.056  47.665  1.00  0.00     0.294 C 
HETATM   31  O   UNL     1      15.314  48.168  48.500  1.00  0.00    -0.259 OA
BRANCH  30  32
HETATM   32  O   UNL     1      14.518  49.360  46.688  1.00  0.00    -0.313 OA
BRANCH  32  33
HETATM   33  C   UNL     1      14.386  48.397  45.627  1.00  0.00     0.217 C 
BRANCH  33  34
HETATM   34  C   UNL     1      14.411  49.085  44.287  1.00  0.00    -0.034 A 
HETATM   35  C   UNL     1      13.962  50.407  44.146  1.00  0.00     0.009 A 
HETATM   36  C   UNL     1      14.016  51.048  42.907  1.00  0.00     0.001 A 
HETATM   37  C   UNL     1      14.530  50.381  41.798  1.00  0.00     0.000 A 
HETATM   38  C   UNL     1      14.985  49.071  41.925  1.00  0.00     0.001 A 
HETATM   39  C   UNL     1      14.924  48.424  43.161  1.00  0.00     0.009 A 
ENDBRANCH  33  34
ENDBRANCH  32  33
ENDBRANCH  30  32
ENDBRANCH  10  30
TORSDOF 10
ENDMDL
MODEL 6
REMARK VINA RESULT:      -6.5     27.850     30.921
REMARK  10 active torsions:
REMARK  status: ('A' for Active; 'I' for Inactive)
REMARK    1  A    between atoms: C_4  and  C_5 
REMARK    2  A    between atoms: C_7  and  C_8 
REMARK    3  A    between atoms: C_8  and  C_9 
REMARK       I    between atoms: C_9  and  N_10 
REMARK    4  A    between atoms: N_10  and  C_11 
REMARK    5  A    between atoms: C_11  and  C_12 
REMARK    6  A    between atoms: C_12  and  N_13 
REMARK    7  A    between atoms: C_24  and  C_25 
REMARK    8  A    between atoms: C_25  and  O_26 
REMARK    9  A    between atoms: O_26  and  C_27 
REMARK   10  A    between atoms: C_27  and  C_28 
ROOT
HETATM    1  C   UNL     1      39.342  45.329  65.625  1.00  0.00     0.166 C 
HETATM    2  N   UNL     1      40.689  45.311  65.020  1.00  0.00    -0.318 N 
HETATM    3  C   UNL     1      41.258  44.759  63.999  1.00  0.00     0.011 C 
HETATM    4  C   UNL     1      41.718  46.091  65.876  1.00  0.00     0.170 C 
HETATM    5  S   UNL     1      43.135  46.466  64.957  1.00  0.00    -0.086 SA
HETATM    6  C   UNL     1      42.711  45.133  63.785  1.00  0.00     0.135 C 
HETATM    7  N   UNL     1      41.616  46.261  67.149  1.00  0.00    -0.229 NA
HETATM    8  C   UNL     1      40.602  45.561  67.783  1.00  0.00     0.048 C 
HETATM    9  C   UNL     1      40.867  45.317  69.250  1.00  0.00     0.071 C 
HETATM   10  C   UNL     1      39.556  45.045  67.098  1.00  0.00     0.069 C 
ENDROOT
BRANCH   3  11
HETATM   11  C   UNL     1      40.556  43.769  63.115  1.00  0.00     0.156 C 
BRANCH  11  12
HETATM   12  C   UNL     1      40.397  42.403  63.753  1.00  0.00     0.223 C 
HETATM   13  N   UNL     1      39.722  41.488  62.985  1.00  0.00    -0.359 N 
HETATM   14  H   UNL     1      39.292  41.824  62.126  1.00  0.00     0.162 HD
HETATM   15  O   UNL     1      40.837  42.158  64.872  1.00  0.00    -0.273 OA
BRANCH  13  16
HETATM   16  C   UNL     1      39.225  40.178  63.420  1.00  0.00     0.150 C 
BRANCH  16  17
HETATM   17  C   UNL     1      40.239  39.024  63.583  1.00  0.00     0.253 C 
BRANCH  17  18
HETATM   18  N   UNL     1      40.912  39.002  64.942  1.00  0.00    -0.077 N 
HETATM   19  H   UNL     1      40.807  39.960  65.330  1.00  0.00     0.279 HD
HETATM   20  C   UNL     1      40.296  38.045  65.925  1.00  0.00     0.269 C 
HETATM   21  C   UNL     1      42.392  38.755  64.816  1.00  0.00     0.269 C 
ENDBRANCH  17  18
ENDBRANCH  16  17
ENDBRANCH  13  16
ENDBRANCH  11  12
ENDBRANCH   3  11
BRANCH   1  22
HETATM   22  C   UNL     1      38.566  46.653  65.363  1.00  0.00    -0.024 A 
HETATM   23  C   UNL     1      39.197  47.878  65.718  1.00  0.00     0.017 A 
HETATM   24  C   UNL     1      38.606  49.135  65.525  1.00  0.00    -0.061 A 
HETATM   25  C   UNL     1      39.344  50.393  65.890  1.00  0.00     0.048 C 
HETATM   26  C   UNL     1      37.351  49.203  64.942  1.00  0.00     0.007 A 
HETATM   27  C   UNL     1      36.677  48.030  64.625  1.00  0.00     0.008 A 
HETATM   28  C   UNL     1      37.240  46.755  64.859  1.00  0.00    -0.053 A 
HETATM   29  C   UNL     1      36.327  45.604  64.539  1.00  0.00     0.049 C 
ENDBRANCH   1  22
BRANCH  10  30
HETATM   30  C   UNL     1      38.634  44.042  67.658  1.00  0.00     0.294 C 
HETATM   31  O   UNL     1      39.043  42.929  67.948  1.00  0.00    -0.259 OA
BRANCH  30  32
HETATM   32  O   UNL     1      37.377  44.512  67.712  1.00  0.00    -0.313 OA
BRANCH  32  33
HETATM   33  C   UNL     1      36.965  45.092  68.962  1.00  0.00     0.217 C 
BRANCH  33  34
HETATM   34  C   UNL     1      36.737  46.573  68.805  1.00  0.00    -0.034 A 
HETATM   35  C   UNL     1      37.718  47.498  69.193  1.00  0.00     0.009 A 
HETATM   36  C   UNL     1      37.513  48.868  69.017  1.00  0.00     0.001 A 
HETATM   37  C   UNL     1      36.332  49.328  68.440  1.00  0.00     0.000 A 
HETATM   38  C   UNL     1      35.352  48.420  68.044  1.00  0.00     0.001 A 
HETATM   39  C   UNL     1      35.551  47.050  68.228  1.00  0.00     0.009 A 
ENDBRANCH  33  34
ENDBRANCH  32  33
ENDBRANCH  30  32
ENDBRANCH  10  30
TORSDOF 10
ENDMDL
MODEL 7
REMARK VINA RESULT:      -6.5      3.505      7.868
REMARK  10 active torsions:
REMARK  status: ('A' for Active; 'I' for Inactive)
REMARK    1  A    between atoms: C_4  and  C_5 
REMARK    2  A    between atoms: C_7  and  C_8 
REMARK    3  A    between atoms: C_8  and  C_9 
REMARK       I    between atoms: C_9  and  N_10 
REMARK    4  A    between atoms: N_10  and  C_11 
REMARK    5  A    between atoms: C_11  and  C_12 
REMARK    6  A    between atoms: C_12  and  N_13 
REMARK    7  A    between atoms: C_24  and  C_25 
REMARK    8  A    between atoms: C_25  and  O_26 
REMARK    9  A    between atoms: O_26  and  C_27 
REMARK   10  A    between atoms: C_27  and  C_28 
ROOT
HETATM    1  C   UNL     1      17.265  50.190  46.798  1.00  0.00     0.166 C 
HETATM    2  N   UNL     1      17.616  48.839  47.278  1.00  0.00    -0.318 N 
HETATM    3  C   UNL     1      18.665  48.084  47.289  1.00  0.00     0.011 C 
HETATM    4  C   UNL     1      16.384  48.088  47.845  1.00  0.00     0.170 C 
HETATM    5  S   UNL     1      16.871  46.740  48.815  1.00  0.00    -0.086 SA
HETATM    6  C   UNL     1      18.498  46.750  47.990  1.00  0.00     0.135 C 
HETATM    7  N   UNL     1      15.170  48.318  47.483  1.00  0.00    -0.229 NA
HETATM    8  C   UNL     1      15.001  49.177  46.409  1.00  0.00     0.048 C 
HETATM    9  C   UNL     1      13.702  48.966  45.669  1.00  0.00     0.071 C 
HETATM   10  C   UNL     1      15.982  50.019  46.010  1.00  0.00     0.069 C 
ENDROOT
BRANCH   3  11
HETATM   11  C   UNL     1      19.946  48.465  46.605  1.00  0.00     0.156 C 
BRANCH  11  12
HETATM   12  C   UNL     1      21.177  47.875  47.265  1.00  0.00     0.223 C 
HETATM   13  N   UNL     1      21.556  48.495  48.428  1.00  0.00    -0.359 N 
HETATM   14  H   UNL     1      21.066  49.349  48.685  1.00  0.00     0.162 HD
HETATM   15  O   UNL     1      21.778  46.923  46.775  1.00  0.00    -0.273 OA
BRANCH  13  16
HETATM   16  C   UNL     1      22.814  48.296  49.157  1.00  0.00     0.150 C 
BRANCH  16  17
HETATM   17  C   UNL     1      24.082  49.013  48.644  1.00  0.00     0.253 C 
BRANCH  17  18
HETATM   18  N   UNL     1      25.328  48.673  49.439  1.00  0.00    -0.077 N 
HETATM   19  H   UNL     1      25.248  49.191  50.335  1.00  0.00     0.279 HD
HETATM   20  C   UNL     1      25.474  47.214  49.772  1.00  0.00     0.269 C 
HETATM   21  C   UNL     1      26.569  49.189  48.760  1.00  0.00     0.269 C 
ENDBRANCH  17  18
ENDBRANCH  16  17
ENDBRANCH  13  16
ENDBRANCH  11  12
ENDBRANCH   3  11
BRANCH   1  22
HETATM   22  C   UNL     1      17.145  51.239  47.942  1.00  0.00    -0.024 A 
HETATM   23  C   UNL     1      15.843  51.688  48.303  1.00  0.00     0.017 A 
HETATM   24  C   UNL     1      15.603  52.622  49.320  1.00  0.00    -0.061 A 
HETATM   25  C   UNL     1      14.199  53.026  49.674  1.00  0.00     0.048 C 
HETATM   26  C   UNL     1      16.679  53.128  50.032  1.00  0.00     0.007 A 
HETATM   27  C   UNL     1      17.971  52.756  49.680  1.00  0.00     0.008 A 
HETATM   28  C   UNL     1      18.230  51.853  48.625  1.00  0.00    -0.053 A 
HETATM   29  C   UNL     1      19.689  51.643  48.332  1.00  0.00     0.049 C 
ENDBRANCH   1  22
BRANCH  10  30
HETATM   30  C   UNL     1      15.977  50.712  44.710  1.00  0.00     0.294 C 
HETATM   31  O   UNL     1      16.352  50.131  43.704  1.00  0.00    -0.259 OA
BRANCH  30  32
HETATM   32  O   UNL     1      15.593  51.993  44.841  1.00  0.00    -0.313 OA
BRANCH  32  33
HETATM   33  C   UNL     1      14.303  52.332  44.302  1.00  0.00     0.217 C 
BRANCH  33  34
HETATM   34  C   UNL     1      13.595  53.308  45.206  1.00  0.00    -0.034 A 
HETATM   35  C   UNL     1      14.317  54.224  45.985  1.00  0.00     0.009 A 
HETATM   36  C   UNL     1      13.654  55.146  46.797  1.00  0.00     0.001 A 
HETATM   37  C   UNL     1      12.262  55.172  46.830  1.00  0.00     0.000 A 
HETATM   38  C   UNL     1      11.532  54.273  46.055  1.00  0.00     0.001 A 
HETATM   39  C   UNL     1      12.194  53.344  45.250  1.00  0.00     0.009 A 
ENDBRANCH  33  34
ENDBRANCH  32  33
ENDBRANCH  30  32
ENDBRANCH  10  30
TORSDOF 10
ENDMDL
MODEL 8
REMARK VINA RESULT:      -6.5      3.900      7.778
REMARK  10 active torsions:
REMARK  status: ('A' for Active; 'I' for Inactive)
REMARK    1  A    between atoms: C_4  and  C_5 
REMARK    2  A    between atoms: C_7  and  C_8 
REMARK    3  A    between atoms: C_8  and  C_9 
REMARK       I    between atoms: C_9  and  N_10 
REMARK    4  A    between atoms: N_10  and  C_11 
REMARK    5  A    between atoms: C_11  and  C_12 
REMARK    6  A    between atoms: C_12  and  N_13 
REMARK    7  A    between atoms: C_24  and  C_25 
REMARK    8  A    between atoms: C_25  and  O_26 
REMARK    9  A    between atoms: O_26  and  C_27 
REMARK   10  A    between atoms: C_27  and  C_28 
ROOT
HETATM    1  C   UNL     1      19.148  49.587  46.673  1.00  0.00     0.166 C 
HETATM    2  N   UNL     1      19.681  49.838  48.027  1.00  0.00    -0.318 N 
HETATM    3  C   UNL     1      20.778  50.287  48.541  1.00  0.00     0.011 C 
HETATM    4  C   UNL     1      18.704  49.361  49.131  1.00  0.00     0.170 C 
HETATM    5  S   UNL     1      19.100  50.069  50.659  1.00  0.00    -0.086 SA
HETATM    6  C   UNL     1      20.787  50.404  50.052  1.00  0.00     0.135 C 
HETATM    7  N   UNL     1      17.842  48.416  48.973  1.00  0.00    -0.229 NA
HETATM    8  C   UNL     1      17.926  47.700  47.790  1.00  0.00     0.048 C 
HETATM    9  C   UNL     1      17.346  46.308  47.888  1.00  0.00     0.071 C 
HETATM   10  C   UNL     1      18.589  48.178  46.713  1.00  0.00     0.069 C 
ENDROOT
BRANCH   3  11
HETATM   11  C   UNL     1      21.987  50.616  47.713  1.00  0.00     0.156 C 
BRANCH  11  12
HETATM   12  C   UNL     1      23.125  49.631  47.894  1.00  0.00     0.223 C 
HETATM   13  N   UNL     1      22.791  48.489  48.576  1.00  0.00    -0.359 N 
HETATM   14  H   UNL     1      21.865  48.449  48.997  1.00  0.00     0.162 HD
HETATM   15  O   UNL     1      24.251  49.860  47.463  1.00  0.00    -0.273 OA
BRANCH  13  16
HETATM   16  C   UNL     1      23.717  47.475  49.093  1.00  0.00     0.150 C 
BRANCH  16  17
HETATM   17  C   UNL     1      23.319  45.988  48.977  1.00  0.00     0.253 C 
BRANCH  17  18
HETATM   18  N   UNL     1      22.236  45.732  47.948  1.00  0.00    -0.077 N 
HETATM   19  H   UNL     1      22.043  46.649  47.499  1.00  0.00     0.279 HD
HETATM   20  C   UNL     1      22.626  44.770  46.860  1.00  0.00     0.269 C 
HETATM   21  C   UNL     1      20.949  45.301  48.601  1.00  0.00     0.269 C 
ENDBRANCH  17  18
ENDBRANCH  16  17
ENDBRANCH  13  16
ENDBRANCH  11  12
ENDBRANCH   3  11
BRANCH   1  22
HETATM   22  C   UNL     1      18.103  50.646  46.215  1.00  0.00    -0.024 A 
HETATM   23  C   UNL     1      17.175  51.129  47.180  1.00  0.00     0.017 A 
HETATM   24  C   UNL     1      16.193  52.088  46.894  1.00  0.00    -0.061 A 
HETATM   25  C   UNL     1      15.266  52.581  47.970  1.00  0.00     0.048 C 
HETATM   26  C   UNL     1      16.125  52.616  45.615  1.00  0.00     0.007 A 
HETATM   27  C   UNL     1      16.978  52.138  44.628  1.00  0.00     0.008 A 
HETATM   28  C   UNL     1      17.940  51.136  44.890  1.00  0.00    -0.053 A 
HETATM   29  C   UNL     1      18.709  50.681  43.681  1.00  0.00     0.049 C 
ENDBRANCH   1  22
BRANCH  10  30
HETATM   30  C   UNL     1      18.975  47.345  45.561  1.00  0.00     0.294 C 
HETATM   31  O   UNL     1      19.923  46.580  45.649  1.00  0.00    -0.259 OA
BRANCH  30  32
HETATM   32  O   UNL     1      18.215  47.614  44.487  1.00  0.00    -0.313 OA
BRANCH  32  33
HETATM   33  C   UNL     1      16.922  46.985  44.445  1.00  0.00     0.217 C 
BRANCH  33  34
HETATM   34  C   UNL     1      15.831  48.024  44.440  1.00  0.00    -0.034 A 
HETATM   35  C   UNL     1      15.108  48.316  45.606  1.00  0.00     0.009 A 
HETATM   36  C   UNL     1      14.119  49.301  45.603  1.00  0.00     0.001 A 
HETATM   37  C   UNL     1      13.849  50.014  44.437  1.00  0.00     0.000 A 
HETATM   38  C   UNL     1      14.565  49.740  43.274  1.00  0.00     0.001 A 
HETATM   39  C   UNL     1      15.548  48.749  43.273  1.00  0.00     0.009 A 
ENDBRANCH  33  34
ENDBRANCH  32  33
ENDBRANCH  30  32
ENDBRANCH  10  30
TORSDOF 10
ENDMDL
MODEL 9
REMARK VINA RESULT:      -6.4     27.949     31.056
REMARK  10 active torsions:
REMARK  status: ('A' for Active; 'I' for Inactive)
REMARK    1  A    between atoms: C_4  and  C_5 
REMARK    2  A    between atoms: C_7  and  C_8 
REMARK    3  A    between atoms: C_8  and  C_9 
REMARK       I    between atoms: C_9  and  N_10 
REMARK    4  A    between atoms: N_10  and  C_11 
REMARK    5  A    between atoms: C_11  and  C_12 
REMARK    6  A    between atoms: C_12  and  N_13 
REMARK    7  A    between atoms: C_24  and  C_25 
REMARK    8  A    between atoms: C_25  and  O_26 
REMARK    9  A    between atoms: O_26  and  C_27 
REMARK   10  A    between atoms: C_27  and  C_28 
ROOT
HETATM    1  C   UNL     1      38.901  46.094  65.137  1.00  0.00     0.166 C 
HETATM    2  N   UNL     1      40.033  45.470  65.851  1.00  0.00    -0.318 N 
HETATM    3  C   UNL     1      41.319  45.429  65.728  1.00  0.00     0.011 C 
HETATM    4  C   UNL     1      39.554  44.552  67.004  1.00  0.00     0.170 C 
HETATM    5  S   UNL     1      40.845  44.215  68.106  1.00  0.00    -0.086 SA
HETATM    6  C   UNL     1      42.050  44.660  66.811  1.00  0.00     0.135 C 
HETATM    7  N   UNL     1      38.409  43.963  67.029  1.00  0.00    -0.229 NA
HETATM    8  C   UNL     1      37.650  44.046  65.872  1.00  0.00     0.048 C 
HETATM    9  C   UNL     1      36.657  42.918  65.723  1.00  0.00     0.071 C 
HETATM   10  C   UNL     1      37.893  44.982  64.927  1.00  0.00     0.069 C 
ENDROOT
BRANCH   3  11
HETATM   11  C   UNL     1      42.044  46.043  64.566  1.00  0.00     0.156 C 
BRANCH  11  12
HETATM   12  C   UNL     1      43.431  46.544  64.919  1.00  0.00     0.223 C 
HETATM   13  N   UNL     1      44.452  45.919  64.252  1.00  0.00    -0.359 N 
HETATM   14  H   UNL     1      44.213  45.113  63.679  1.00  0.00     0.162 HD
HETATM   15  O   UNL     1      43.603  47.434  65.747  1.00  0.00    -0.273 OA
BRANCH  13  16
HETATM   16  C   UNL     1      45.886  46.030  64.544  1.00  0.00     0.150 C 
BRANCH  16  17
HETATM   17  C   UNL     1      46.585  44.851  65.256  1.00  0.00     0.253 C 
BRANCH  17  18
HETATM   18  N   UNL     1      45.666  44.075  66.180  1.00  0.00    -0.077 N 
HETATM   19  H   UNL     1      44.724  44.496  66.069  1.00  0.00     0.279 HD
HETATM   20  C   UNL     1      45.549  42.612  65.853  1.00  0.00     0.269 C 
HETATM   21  C   UNL     1      46.050  44.267  67.623  1.00  0.00     0.269 C 
ENDBRANCH  17  18
ENDBRANCH  16  17
ENDBRANCH  13  16
ENDBRANCH  11  12
ENDBRANCH   3  11
BRANCH   1  22
HETATM   22  C   UNL     1      38.308  47.327  65.879  1.00  0.00    -0.024 A 
HETATM   23  C   UNL     1      37.088  47.154  66.592  1.00  0.00     0.017 A 
HETATM   24  C   UNL     1      36.458  48.183  67.306  1.00  0.00    -0.061 A 
HETATM   25  C   UNL     1      35.188  47.923  68.067  1.00  0.00     0.048 C 
HETATM   26  C   UNL     1      37.055  49.433  67.344  1.00  0.00     0.007 A 
HETATM   27  C   UNL     1      38.220  49.661  66.623  1.00  0.00     0.008 A 
HETATM   28  C   UNL     1      38.839  48.646  65.858  1.00  0.00    -0.053 A 
HETATM   29  C   UNL     1      40.037  49.102  65.073  1.00  0.00     0.049 C 
ENDBRANCH   1  22
BRANCH  10  30
HETATM   30  C   UNL     1      37.339  44.922  63.564  1.00  0.00     0.294 C 
HETATM   31  O   UNL     1      36.635  45.829  63.148  1.00  0.00    -0.259 OA
BRANCH  30  32
HETATM   32  O   UNL     1      37.658  43.767  62.958  1.00  0.00    -0.313 OA
BRANCH  32  33
HETATM   33  C   UNL     1      39.051  43.565  62.660  1.00  0.00     0.217 C 
BRANCH  33  34
HETATM   34  C   UNL     1      39.508  42.221  63.164  1.00  0.00    -0.034 A 
HETATM   35  C   UNL     1      40.367  42.119  64.269  1.00  0.00     0.009 A 
HETATM   36  C   UNL     1      40.763  40.870  64.750  1.00  0.00     0.001 A 
HETATM   37  C   UNL     1      40.294  39.708  64.141  1.00  0.00     0.000 A 
HETATM   38  C   UNL     1      39.435  39.794  63.048  1.00  0.00     0.001 A 
HETATM   39  C   UNL     1      39.046  41.043  62.560  1.00  0.00     0.009 A 
ENDBRANCH  33  34
ENDBRANCH  32  33
ENDBRANCH  30  32
ENDBRANCH  10  30
TORSDOF 10
ENDMDL
MODEL 10
REMARK VINA RESULT:      -6.4     15.084     18.472
REMARK  10 active torsions:
REMARK  status: ('A' for Active; 'I' for Inactive)
REMARK    1  A    between atoms: C_4  and  C_5 
REMARK    2  A    between atoms: C_7  and  C_8 
REMARK    3  A    between atoms: C_8  and  C_9 
REMARK       I    between atoms: C_9  and  N_10 
REMARK    4  A    between atoms: N_10  and  C_11 
REMARK    5  A    between atoms: C_11  and  C_12 
REMARK    6  A    between atoms: C_12  and  N_13 
REMARK    7  A    between atoms: C_24  and  C_25 
REMARK    8  A    between atoms: C_25  and  O_26 
REMARK    9  A    between atoms: O_26  and  C_27 
REMARK   10  A    between atoms: C_27  and  C_28 
ROOT
HETATM    1  C   UNL     1      32.437  50.230  40.857  1.00  0.00     0.166 C 
HETATM    2  N   UNL     1      33.183  50.877  41.955  1.00  0.00    -0.318 N 
HETATM    3  C   UNL     1      34.358  51.387  42.126  1.00  0.00     0.011 C 
HETATM    4  C   UNL     1      32.380  50.872  43.281  1.00  0.00     0.170 C 
HETATM    5  S   UNL     1      33.029  52.017  44.404  1.00  0.00    -0.086 SA
HETATM    6  C   UNL     1      34.607  52.000  43.490  1.00  0.00     0.135 C 
HETATM    7  N   UNL     1      31.481  49.998  43.577  1.00  0.00    -0.229 NA
HETATM    8  C   UNL     1      31.361  48.924  42.710  1.00  0.00     0.048 C 
HETATM    9  C   UNL     1      30.769  47.694  43.357  1.00  0.00     0.071 C 
HETATM   10  C   UNL     1      31.857  48.963  41.453  1.00  0.00     0.069 C 
ENDROOT
BRANCH   3  11
HETATM   11  C   UNL     1      35.429  51.327  41.076  1.00  0.00     0.156 C 
BRANCH  11  12
HETATM   12  C   UNL     1      36.657  52.146  41.422  1.00  0.00     0.223 C 
HETATM   13  N   UNL     1      36.519  53.496  41.224  1.00  0.00    -0.359 N 
HETATM   14  H   UNL     1      35.671  53.817  40.762  1.00  0.00     0.162 HD
HETATM   15  O   UNL     1      37.685  51.621  41.839  1.00  0.00    -0.273 OA
BRANCH  13  16
HETATM   16  C   UNL     1      37.589  54.499  41.255  1.00  0.00     0.150 C 
BRANCH  16  17
HETATM   17  C   UNL     1      37.929  55.171  42.603  1.00  0.00     0.253 C 
BRANCH  17  18
HETATM   18  N   UNL     1      38.359  54.189  43.675  1.00  0.00    -0.077 N 
HETATM   19  H   UNL     1      37.805  53.325  43.512  1.00  0.00     0.279 HD
HETATM   20  C   UNL     1      39.813  53.810  43.624  1.00  0.00     0.269 C 
HETATM   21  C   UNL     1      37.986  54.678  45.049  1.00  0.00     0.269 C 
ENDBRANCH  17  18
ENDBRANCH  16  17
ENDBRANCH  13  16
ENDBRANCH  11  12
ENDBRANCH   3  11
BRANCH   1  22
HETATM   22  C   UNL     1      31.360  51.153  40.215  1.00  0.00    -0.024 A 
HETATM   23  C   UNL     1      30.280  51.588  41.034  1.00  0.00     0.017 A 
HETATM   24  C   UNL     1      29.253  52.426  40.576  1.00  0.00    -0.061 A 
HETATM   25  C   UNL     1      28.159  52.875  41.505  1.00  0.00     0.048 C 
HETATM   26  C   UNL     1      29.291  52.878  39.267  1.00  0.00     0.007 A 
HETATM   27  C   UNL     1      30.300  52.440  38.419  1.00  0.00     0.008 A 
HETATM   28  C   UNL     1      31.313  51.555  38.852  1.00  0.00    -0.053 A 
HETATM   29  C   UNL     1      32.263  51.120  37.772  1.00  0.00     0.049 C 
ENDBRANCH   1  22
BRANCH  10  30
HETATM   30  C   UNL     1      32.036  47.767  40.613  1.00  0.00     0.294 C 
HETATM   31  O   UNL     1      32.853  46.915  40.926  1.00  0.00    -0.259 OA
BRANCH  30  32
HETATM   32  O   UNL     1      31.266  47.822  39.514  1.00  0.00    -0.313 OA
BRANCH  32  33
HETATM   33  C   UNL     1      30.000  47.143  39.586  1.00  0.00     0.217 C 
BRANCH  33  34
HETATM   34  C   UNL     1      28.868  48.137  39.573  1.00  0.00    -0.034 A 
HETATM   35  C   UNL     1      28.119  48.392  40.732  1.00  0.00     0.009 A 
HETATM   36  C   UNL     1      27.091  49.337  40.721  1.00  0.00     0.001 A 
HETATM   37  C   UNL     1      26.808  50.046  39.556  1.00  0.00     0.000 A 
HETATM   38  C   UNL     1      27.549  49.808  38.400  1.00  0.00     0.001 A 
HETATM   39  C   UNL     1      28.571  48.857  38.406  1.00  0.00     0.009 A 
ENDBRANCH  33  34
ENDBRANCH  32  33
ENDBRANCH  30  32
ENDBRANCH  10  30
TORSDOF 10
ENDMDL
