MODEL 1
REMARK VINA RESULT:      -8.3      0.000      0.000
REMARK  8 active torsions:
REMARK  status: ('A' for Active; 'I' for Inactive)
REMARK    1  A    between atoms: C_3  and  N_4 
REMARK       I    between atoms: N_4  and  C_5 
REMARK       I    between atoms: C_5  and  N_6 
REMARK       I    between atoms: N_6  and  C_7 
REMARK    2  A    between atoms: C_7  and  C_8 
REMARK    3  A    between atoms: C_8  and  N_9 
REMARK    4  A    between atoms: N_9  and  C_11 
REMARK    5  A    between atoms: N_9  and  C_17 
REMARK    6  A    between atoms: C_11  and  C_12 
REMARK    7  A    between atoms: C_17  and  C_18 
REMARK    8  A    between atoms: C_19  and  O_20 
ROOT
HETATM    1  N   UNL     1      25.336  44.524  51.912  1.00  0.00    -0.053 N 
HETATM    2  H   UNL     1      24.336  44.415  51.688  1.00  0.00     0.281 HD
ENDROOT
BRANCH   1   3
HETATM    3  C   UNL     1      25.818  45.687  51.065  1.00  0.00     0.338 C 
BRANCH   3   4
HETATM    4  C   UNL     1      24.699  46.632  50.617  1.00  0.00     0.251 C 
HETATM    5  N   UNL     1      23.681  46.020  49.911  1.00  0.00    -0.278 N 
HETATM    6  C   UNL     1      22.838  46.584  48.987  1.00  0.00     0.323 C 
HETATM    7  H   UNL     1      23.661  45.014  49.800  1.00  0.00     0.173 HD
HETATM    8  N   UNL     1      22.886  47.934  48.873  1.00  0.00    -0.338 N 
HETATM    9  O   UNL     1      22.174  45.822  48.299  1.00  0.00    -0.247 OA
HETATM   10  H   UNL     1      23.345  48.423  49.636  1.00  0.00     0.164 HD
HETATM   11  O   UNL     1      24.668  47.807  50.978  1.00  0.00    -0.271 OA
BRANCH   8  12
HETATM   12  C   UNL     1      22.124  48.783  47.950  1.00  0.00     0.089 C 
HETATM   13  C   UNL     1      20.615  48.904  48.287  1.00  0.00     0.004 C 
HETATM   14  C   UNL     1      19.789  48.921  46.990  1.00  0.00     0.012 C 
HETATM   15  C   UNL     1      20.249  50.133  49.139  1.00  0.00     0.006 C 
HETATM   16  C   UNL     1      20.928  51.418  48.684  1.00  0.00     0.001 C 
HETATM   17  C   UNL     1      22.437  51.254  48.591  1.00  0.00     0.002 C 
HETATM   18  C   UNL     1      22.820  50.118  47.653  1.00  0.00     0.026 C 
ENDBRANCH   8  12
ENDBRANCH   3   4
ENDBRANCH   1   3
BRANCH   1  19
HETATM   19  C   UNL     1      25.914  43.193  51.489  1.00  0.00     0.300 C 
BRANCH  19  20
HETATM   20  C   UNL     1      25.084  42.556  50.430  1.00  0.00     0.078 A 
HETATM   21  O   UNL     1      23.809  43.032  50.293  1.00  0.00    -0.325 OA
HETATM   22  C   UNL     1      23.222  42.306  49.307  1.00  0.00     0.142 A 
HETATM   23  C   UNL     1      24.105  41.380  48.801  1.00  0.00     0.027 A 
HETATM   24  C   UNL     1      25.312  41.542  49.525  1.00  0.00     0.036 A 
ENDBRANCH  19  20
ENDBRANCH   1  19
BRANCH   1  25
HETATM   25  C   UNL     1      25.338  44.739  53.403  1.00  0.00     0.277 C 
BRANCH  25  26
HETATM   26  C   UNL     1      26.445  45.489  54.102  1.00  0.00     0.001 A 
HETATM   27  C   UNL     1      26.512  46.872  54.316  1.00  0.00     0.073 A 
HETATM   28  C   UNL     1      27.641  47.466  54.892  1.00  0.00     0.037 A 
HETATM   29  C   UNL     1      28.740  46.690  55.247  1.00  0.00     0.003 A 
HETATM   30  C   UNL     1      28.711  45.319  55.031  1.00  0.00     0.001 A 
HETATM   31  C   UNL     1      27.578  44.728  54.466  1.00  0.00     0.011 A 
BRANCH  27  32
HETATM   32  O   UNL     1      25.471  47.682  53.959  1.00  0.00    -0.360 OA
HETATM   33  H   UNL     1      25.121  47.360  53.105  1.00  0.00     0.217 HD
ENDBRANCH  27  32
ENDBRANCH  25  26
ENDBRANCH   1  25
TORSDOF 8
ENDMDL
MODEL 2
REMARK VINA RESULT:      -8.2      1.467      1.813
REMARK  8 active torsions:
REMARK  status: ('A' for Active; 'I' for Inactive)
REMARK    1  A    between atoms: C_3  and  N_4 
REMARK       I    between atoms: N_4  and  C_5 
REMARK       I    between atoms: C_5  and  N_6 
REMARK       I    between atoms: N_6  and  C_7 
REMARK    2  A    between atoms: C_7  and  C_8 
REMARK    3  A    between atoms: C_8  and  N_9 
REMARK    4  A    between atoms: N_9  and  C_11 
REMARK    5  A    between atoms: N_9  and  C_17 
REMARK    6  A    between atoms: C_11  and  C_12 
REMARK    7  A    between atoms: C_17  and  C_18 
REMARK    8  A    between atoms: C_19  and  O_20 
ROOT
HETATM    1  N   UNL     1      26.000  45.089  50.789  1.00  0.00    -0.053 N 
HETATM    2  H   UNL     1      25.274  44.512  50.340  1.00  0.00     0.281 HD
ENDROOT
BRANCH   1   3
HETATM    3  C   UNL     1      25.922  46.443  50.110  1.00  0.00     0.338 C 
BRANCH   3   4
HETATM    4  C   UNL     1      24.524  47.068  50.134  1.00  0.00     0.251 C 
HETATM    5  N   UNL     1      23.532  46.272  49.593  1.00  0.00    -0.278 N 
HETATM    6  C   UNL     1      22.347  46.669  49.024  1.00  0.00     0.323 C 
HETATM    7  H   UNL     1      23.732  45.323  49.302  1.00  0.00     0.173 HD
HETATM    8  N   UNL     1      22.025  47.978  49.160  1.00  0.00    -0.338 N 
HETATM    9  O   UNL     1      21.726  45.831  48.386  1.00  0.00    -0.247 OA
HETATM   10  H   UNL     1      22.546  48.489  49.867  1.00  0.00     0.164 HD
HETATM   11  O   UNL     1      24.307  48.134  50.706  1.00  0.00    -0.271 OA
BRANCH   8  12
HETATM   12  C   UNL     1      20.846  48.670  48.626  1.00  0.00     0.089 C 
HETATM   13  C   UNL     1      19.723  48.920  49.667  1.00  0.00     0.004 C 
HETATM   14  C   UNL     1      18.347  48.727  49.008  1.00  0.00     0.012 C 
HETATM   15  C   UNL     1      19.775  50.302  50.342  1.00  0.00     0.006 C 
HETATM   16  C   UNL     1      20.042  51.447  49.372  1.00  0.00     0.001 C 
HETATM   17  C   UNL     1      21.293  51.201  48.543  1.00  0.00     0.002 C 
HETATM   18  C   UNL     1      21.205  49.893  47.771  1.00  0.00     0.026 C 
ENDBRANCH   8  12
ENDBRANCH   3   4
ENDBRANCH   1   3
BRANCH   1  19
HETATM   19  C   UNL     1      27.268  44.329  50.470  1.00  0.00     0.300 C 
BRANCH  19  20
HETATM   20  C   UNL     1      27.097  42.869  50.707  1.00  0.00     0.078 A 
HETATM   21  O   UNL     1      28.065  42.261  51.458  1.00  0.00    -0.325 OA
HETATM   22  C   UNL     1      27.738  40.944  51.527  1.00  0.00     0.142 A 
HETATM   23  C   UNL     1      26.569  40.702  50.844  1.00  0.00     0.027 A 
HETATM   24  C   UNL     1      26.151  41.947  50.314  1.00  0.00     0.036 A 
ENDBRANCH  19  20
ENDBRANCH   1  19
BRANCH   1  25
HETATM   25  C   UNL     1      25.622  45.050  52.247  1.00  0.00     0.277 C 
BRANCH  25  26
HETATM   26  C   UNL     1      26.484  45.680  53.314  1.00  0.00     0.001 A 
HETATM   27  C   UNL     1      26.405  46.997  53.782  1.00  0.00     0.073 A 
HETATM   28  C   UNL     1      27.327  47.498  54.710  1.00  0.00     0.037 A 
HETATM   29  C   UNL     1      28.365  46.694  55.172  1.00  0.00     0.003 A 
HETATM   30  C   UNL     1      28.480  45.389  54.712  1.00  0.00     0.001 A 
HETATM   31  C   UNL     1      27.552  44.890  53.796  1.00  0.00     0.011 A 
BRANCH  27  32
HETATM   32  O   UNL     1      25.422  47.836  53.338  1.00  0.00    -0.360 OA
HETATM   33  H   UNL     1      24.941  47.379  52.620  1.00  0.00     0.217 HD
ENDBRANCH  27  32
ENDBRANCH  25  26
ENDBRANCH   1  25
TORSDOF 8
ENDMDL
MODEL 3
REMARK VINA RESULT:      -8.2      1.725      4.149
REMARK  8 active torsions:
REMARK  status: ('A' for Active; 'I' for Inactive)
REMARK    1  A    between atoms: C_3  and  N_4 
REMARK       I    between atoms: N_4  and  C_5 
REMARK       I    between atoms: C_5  and  N_6 
REMARK       I    between atoms: N_6  and  C_7 
REMARK    2  A    between atoms: C_7  and  C_8 
REMARK    3  A    between atoms: C_8  and  N_9 
REMARK    4  A    between atoms: N_9  and  C_11 
REMARK    5  A    between atoms: N_9  and  C_17 
REMARK    6  A    between atoms: C_11  and  C_12 
REMARK    7  A    between atoms: C_17  and  C_18 
REMARK    8  A    between atoms: C_19  and  O_20 
ROOT
HETATM    1  N   UNL     1      26.217  45.456  51.343  1.00  0.00    -0.053 N 
HETATM    2  H   UNL     1      27.145  45.704  51.717  1.00  0.00     0.281 HD
ENDROOT
BRANCH   1   3
HETATM    3  C   UNL     1      25.992  46.383  50.165  1.00  0.00     0.338 C 
BRANCH   3   4
HETATM    4  C   UNL     1      24.606  47.036  50.146  1.00  0.00     0.251 C 
HETATM    5  N   UNL     1      23.609  46.245  49.607  1.00  0.00    -0.278 N 
HETATM    6  C   UNL     1      22.443  46.650  49.006  1.00  0.00     0.323 C 
HETATM    7  H   UNL     1      23.796  45.285  49.345  1.00  0.00     0.173 HD
HETATM    8  N   UNL     1      22.144  47.968  49.102  1.00  0.00    -0.338 N 
HETATM    9  O   UNL     1      21.818  45.808  48.378  1.00  0.00    -0.247 OA
HETATM   10  H   UNL     1      22.662  48.487  49.805  1.00  0.00     0.164 HD
HETATM   11  O   UNL     1      24.400  48.120  50.687  1.00  0.00    -0.271 OA
BRANCH   8  12
HETATM   12  C   UNL     1      20.989  48.668  48.528  1.00  0.00     0.089 C 
HETATM   13  C   UNL     1      19.802  48.858  49.509  1.00  0.00     0.004 C 
HETATM   14  C   UNL     1      18.471  48.678  48.761  1.00  0.00     0.012 C 
HETATM   15  C   UNL     1      19.794  50.211  50.244  1.00  0.00     0.006 C 
HETATM   16  C   UNL     1      20.101  51.400  49.343  1.00  0.00     0.001 C 
HETATM   17  C   UNL     1      21.403  51.206  48.581  1.00  0.00     0.002 C 
HETATM   18  C   UNL     1      21.381  49.931  47.749  1.00  0.00     0.026 C 
ENDBRANCH   8  12
ENDBRANCH   3   4
ENDBRANCH   1   3
BRANCH   1  19
HETATM   19  C   UNL     1      25.304  45.740  52.515  1.00  0.00     0.300 C 
BRANCH  19  20
HETATM   20  C   UNL     1      26.020  46.474  53.592  1.00  0.00     0.078 A 
HETATM   21  O   UNL     1      25.487  47.679  53.961  1.00  0.00    -0.325 OA
HETATM   22  C   UNL     1      26.298  48.191  54.923  1.00  0.00     0.142 A 
HETATM   23  C   UNL     1      27.336  47.327  55.186  1.00  0.00     0.027 A 
HETATM   24  C   UNL     1      27.156  46.214  54.328  1.00  0.00     0.036 A 
ENDBRANCH  19  20
ENDBRANCH   1  19
BRANCH   1  25
HETATM   25  C   UNL     1      26.352  43.990  51.023  1.00  0.00     0.277 C 
BRANCH  25  26
HETATM   26  C   UNL     1      27.422  43.129  51.647  1.00  0.00     0.001 A 
HETATM   27  C   UNL     1      27.343  41.755  51.905  1.00  0.00     0.073 A 
HETATM   28  C   UNL     1      28.368  41.080  52.582  1.00  0.00     0.037 A 
HETATM   29  C   UNL     1      29.484  41.775  53.037  1.00  0.00     0.003 A 
HETATM   30  C   UNL     1      29.582  43.141  52.812  1.00  0.00     0.001 A 
HETATM   31  C   UNL     1      28.565  43.808  52.127  1.00  0.00     0.011 A 
BRANCH  27  32
HETATM   32  O   UNL     1      26.255  41.032  51.505  1.00  0.00    -0.360 OA
HETATM   33  H   UNL     1      26.579  40.204  51.098  1.00  0.00     0.217 HD
ENDBRANCH  27  32
ENDBRANCH  25  26
ENDBRANCH   1  25
TORSDOF 8
ENDMDL
MODEL 4
REMARK VINA RESULT:      -7.9      3.283      7.907
REMARK  8 active torsions:
REMARK  status: ('A' for Active; 'I' for Inactive)
REMARK    1  A    between atoms: C_3  and  N_4 
REMARK       I    between atoms: N_4  and  C_5 
REMARK       I    between atoms: C_5  and  N_6 
REMARK       I    between atoms: N_6  and  C_7 
REMARK    2  A    between atoms: C_7  and  C_8 
REMARK    3  A    between atoms: C_8  and  N_9 
REMARK    4  A    between atoms: N_9  and  C_11 
REMARK    5  A    between atoms: N_9  and  C_17 
REMARK    6  A    between atoms: C_11  and  C_12 
REMARK    7  A    between atoms: C_17  and  C_18 
REMARK    8  A    between atoms: C_19  and  O_20 
ROOT
HETATM    1  N   UNL     1      25.427  45.005  51.230  1.00  0.00    -0.053 N 
HETATM    2  H   UNL     1      26.431  44.771  51.241  1.00  0.00     0.281 HD
ENDROOT
BRANCH   1   3
HETATM    3  C   UNL     1      24.703  43.706  51.525  1.00  0.00     0.338 C 
BRANCH   3   4
HETATM    4  C   UNL     1      25.405  42.464  50.967  1.00  0.00     0.251 C 
HETATM    5  N   UNL     1      26.466  42.016  51.729  1.00  0.00    -0.278 N 
HETATM    6  C   UNL     1      27.560  41.299  51.313  1.00  0.00     0.323 C 
HETATM    7  H   UNL     1      26.675  42.440  52.625  1.00  0.00     0.173 HD
HETATM    8  N   UNL     1      27.519  40.820  50.046  1.00  0.00    -0.338 N 
HETATM    9  O   UNL     1      28.501  41.216  52.090  1.00  0.00    -0.247 OA
HETATM   10  H   UNL     1      26.603  40.816  49.607  1.00  0.00     0.164 HD
HETATM   11  O   UNL     1      24.963  41.861  49.991  1.00  0.00    -0.271 OA
BRANCH   8  12
HETATM   12  C   UNL     1      28.556  40.057  49.343  1.00  0.00     0.089 C 
HETATM   13  C   UNL     1      28.559  38.538  49.656  1.00  0.00     0.004 C 
HETATM   14  C   UNL     1      30.006  38.022  49.732  1.00  0.00     0.012 C 
HETATM   15  C   UNL     1      27.764  37.680  48.654  1.00  0.00     0.006 C 
HETATM   16  C   UNL     1      28.011  38.053  47.198  1.00  0.00     0.001 C 
HETATM   17  C   UNL     1      27.772  39.535  46.950  1.00  0.00     0.002 C 
HETATM   18  C   UNL     1      28.643  40.400  47.849  1.00  0.00     0.026 C 
ENDBRANCH   8  12
ENDBRANCH   3   4
ENDBRANCH   1   3
BRANCH   1  19
HETATM   19  C   UNL     1      25.221  45.500  49.816  1.00  0.00     0.300 C 
BRANCH  19  20
HETATM   20  C   UNL     1      25.979  46.757  49.568  1.00  0.00     0.078 A 
HETATM   21  O   UNL     1      27.304  46.614  49.258  1.00  0.00    -0.325 OA
HETATM   22  C   UNL     1      27.808  47.866  49.102  1.00  0.00     0.142 A 
HETATM   23  C   UNL     1      26.825  48.808  49.295  1.00  0.00     0.027 A 
HETATM   24  C   UNL     1      25.639  48.093  49.594  1.00  0.00     0.036 A 
ENDBRANCH  19  20
ENDBRANCH   1  19
BRANCH   1  25
HETATM   25  C   UNL     1      25.310  46.086  52.272  1.00  0.00     0.277 C 
BRANCH  25  26
HETATM   26  C   UNL     1      26.357  46.286  53.340  1.00  0.00     0.001 A 
HETATM   27  C   UNL     1      27.396  45.406  53.666  1.00  0.00     0.073 A 
HETATM   28  C   UNL     1      28.251  45.655  54.748  1.00  0.00     0.037 A 
HETATM   29  C   UNL     1      28.067  46.783  55.542  1.00  0.00     0.003 A 
HETATM   30  C   UNL     1      27.034  47.665  55.254  1.00  0.00     0.001 A 
HETATM   31  C   UNL     1      26.191  47.419  54.168  1.00  0.00     0.011 A 
BRANCH  27  32
HETATM   32  O   UNL     1      27.601  44.269  52.936  1.00  0.00    -0.360 OA
HETATM   33  H   UNL     1      27.383  44.470  52.004  1.00  0.00     0.217 HD
ENDBRANCH  27  32
ENDBRANCH  25  26
ENDBRANCH   1  25
TORSDOF 8
ENDMDL
MODEL 5
REMARK VINA RESULT:      -7.8      1.862      2.699
REMARK  8 active torsions:
REMARK  status: ('A' for Active; 'I' for Inactive)
REMARK    1  A    between atoms: C_3  and  N_4 
REMARK       I    between atoms: N_4  and  C_5 
REMARK       I    between atoms: C_5  and  N_6 
REMARK       I    between atoms: N_6  and  C_7 
REMARK    2  A    between atoms: C_7  and  C_8 
REMARK    3  A    between atoms: C_8  and  N_9 
REMARK    4  A    between atoms: N_9  and  C_11 
REMARK    5  A    between atoms: N_9  and  C_17 
REMARK    6  A    between atoms: C_11  and  C_12 
REMARK    7  A    between atoms: C_17  and  C_18 
REMARK    8  A    between atoms: C_19  and  O_20 
ROOT
HETATM    1  N   UNL     1      25.291  46.035  50.593  1.00  0.00    -0.053 N 
HETATM    2  H   UNL     1      24.501  45.611  50.087  1.00  0.00     0.281 HD
ENDROOT
BRANCH   1   3
HETATM    3  C   UNL     1      25.178  47.527  50.347  1.00  0.00     0.338 C 
BRANCH   3   4
HETATM    4  C   UNL     1      24.011  47.918  49.435  1.00  0.00     0.251 C 
HETATM    5  N   UNL     1      24.279  48.971  48.581  1.00  0.00    -0.278 N 
HETATM    6  C   UNL     1      23.389  49.856  48.026  1.00  0.00     0.323 C 
HETATM    7  H   UNL     1      25.210  49.365  48.523  1.00  0.00     0.173 HD
HETATM    8  N   UNL     1      22.074  49.568  48.189  1.00  0.00    -0.338 N 
HETATM    9  O   UNL     1      23.852  50.858  47.502  1.00  0.00    -0.247 OA
HETATM   10  H   UNL     1      21.865  48.617  48.480  1.00  0.00     0.164 HD
HETATM   11  O   UNL     1      22.977  47.254  49.395  1.00  0.00    -0.271 OA
BRANCH   8  12
HETATM   12  C   UNL     1      20.923  50.353  47.732  1.00  0.00     0.089 C 
HETATM   13  C   UNL     1      19.662  49.511  47.401  1.00  0.00     0.004 C 
HETATM   14  C   UNL     1      18.952  50.095  46.169  1.00  0.00     0.012 C 
HETATM   15  C   UNL     1      18.656  49.388  48.559  1.00  0.00     0.006 C 
HETATM   16  C   UNL     1      18.398  50.701  49.288  1.00  0.00     0.001 C 
HETATM   17  C   UNL     1      19.692  51.343  49.763  1.00  0.00     0.002 C 
HETATM   18  C   UNL     1      20.653  51.585  48.607  1.00  0.00     0.026 C 
ENDBRANCH   8  12
ENDBRANCH   3   4
ENDBRANCH   1   3
BRANCH   1  19
HETATM   19  C   UNL     1      26.490  45.404  49.920  1.00  0.00     0.300 C 
BRANCH  19  20
HETATM   20  C   UNL     1      26.189  44.016  49.474  1.00  0.00     0.078 A 
HETATM   21  O   UNL     1      27.233  43.132  49.506  1.00  0.00    -0.325 OA
HETATM   22  C   UNL     1      26.759  41.948  49.038  1.00  0.00     0.142 A 
HETATM   23  C   UNL     1      25.425  42.056  48.720  1.00  0.00     0.027 A 
HETATM   24  C   UNL     1      25.053  43.393  49.005  1.00  0.00     0.036 A 
ENDBRANCH  19  20
ENDBRANCH   1  19
BRANCH   1  25
HETATM   25  C   UNL     1      25.084  45.576  52.013  1.00  0.00     0.277 C 
BRANCH  25  26
HETATM   26  C   UNL     1      26.237  45.362  52.962  1.00  0.00     0.001 A 
HETATM   27  C   UNL     1      26.847  44.141  53.274  1.00  0.00     0.073 A 
HETATM   28  C   UNL     1      27.849  44.055  54.248  1.00  0.00     0.037 A 
HETATM   29  C   UNL     1      28.246  45.189  54.950  1.00  0.00     0.003 A 
HETATM   30  C   UNL     1      27.646  46.411  54.676  1.00  0.00     0.001 A 
HETATM   31  C   UNL     1      26.656  46.495  53.695  1.00  0.00     0.011 A 
BRANCH  27  32
HETATM   32  O   UNL     1      26.474  42.993  52.634  1.00  0.00    -0.360 OA
HETATM   33  H   UNL     1      25.805  43.229  51.961  1.00  0.00     0.217 HD
ENDBRANCH  27  32
ENDBRANCH  25  26
ENDBRANCH   1  25
TORSDOF 8
ENDMDL
MODEL 6
REMARK VINA RESULT:      -7.8     13.426     14.891
REMARK  8 active torsions:
REMARK  status: ('A' for Active; 'I' for Inactive)
REMARK    1  A    between atoms: C_3  and  N_4 
REMARK       I    between atoms: N_4  and  C_5 
REMARK       I    between atoms: C_5  and  N_6 
REMARK       I    between atoms: N_6  and  C_7 
REMARK    2  A    between atoms: C_7  and  C_8 
REMARK    3  A    between atoms: C_8  and  N_9 
REMARK    4  A    between atoms: N_9  and  C_11 
REMARK    5  A    between atoms: N_9  and  C_17 
REMARK    6  A    between atoms: C_11  and  C_12 
REMARK    7  A    between atoms: C_17  and  C_18 
REMARK    8  A    between atoms: C_19  and  O_20 
ROOT
HETATM    1  N   UNL     1      35.712  52.442  41.253  1.00  0.00    -0.053 N 
HETATM    2  H   UNL     1      35.146  53.096  41.812  1.00  0.00     0.281 HD
ENDROOT
BRANCH   1   3
HETATM    3  C   UNL     1      35.273  52.648  39.816  1.00  0.00     0.338 C 
BRANCH   3   4
HETATM    4  C   UNL     1      33.796  52.328  39.568  1.00  0.00     0.251 C 
HETATM    5  N   UNL     1      32.912  53.167  40.219  1.00  0.00    -0.278 N 
HETATM    6  C   UNL     1      31.625  52.896  40.611  1.00  0.00     0.323 C 
HETATM    7  H   UNL     1      33.247  53.973  40.732  1.00  0.00     0.173 HD
HETATM    8  N   UNL     1      31.090  51.735  40.158  1.00  0.00    -0.338 N 
HETATM    9  O   UNL     1      31.101  53.681  41.388  1.00  0.00    -0.247 OA
HETATM   10  H   UNL     1      31.581  51.298  39.384  1.00  0.00     0.164 HD
HETATM   11  O   UNL     1      33.452  51.475  38.753  1.00  0.00    -0.271 OA
BRANCH   8  12
HETATM   12  C   UNL     1      29.760  51.189  40.449  1.00  0.00     0.089 C 
HETATM   13  C   UNL     1      28.583  52.097  40.004  1.00  0.00     0.004 C 
HETATM   14  C   UNL     1      27.452  52.034  41.045  1.00  0.00     0.012 C 
HETATM   15  C   UNL     1      28.014  51.766  38.613  1.00  0.00     0.006 C 
HETATM   16  C   UNL     1      27.825  50.275  38.367  1.00  0.00     0.001 C 
HETATM   17  C   UNL     1      29.105  49.496  38.626  1.00  0.00     0.002 C 
HETATM   18  C   UNL     1      29.617  49.716  40.043  1.00  0.00     0.026 C 
ENDBRANCH   8  12
ENDBRANCH   3   4
ENDBRANCH   1   3
BRANCH   1  19
HETATM   19  C   UNL     1      35.312  51.096  41.816  1.00  0.00     0.300 C 
BRANCH  19  20
HETATM   20  C   UNL     1      34.191  51.229  42.786  1.00  0.00     0.078 A 
HETATM   21  O   UNL     1      33.072  50.486  42.522  1.00  0.00    -0.325 OA
HETATM   22  C   UNL     1      32.171  50.773  43.498  1.00  0.00     0.142 A 
HETATM   23  C   UNL     1      32.699  51.677  44.389  1.00  0.00     0.027 A 
HETATM   24  C   UNL     1      34.007  51.972  43.932  1.00  0.00     0.036 A 
ENDBRANCH  19  20
ENDBRANCH   1  19
BRANCH   1  25
HETATM   25  C   UNL     1      37.128  52.838  41.582  1.00  0.00     0.277 C 
BRANCH  25  26
HETATM   26  C   UNL     1      37.469  53.642  42.813  1.00  0.00     0.001 A 
HETATM   27  C   UNL     1      37.801  55.002  42.856  1.00  0.00     0.073 A 
HETATM   28  C   UNL     1      38.196  55.618  44.051  1.00  0.00     0.037 A 
HETATM   29  C   UNL     1      38.290  54.877  45.225  1.00  0.00     0.003 A 
HETATM   30  C   UNL     1      37.985  53.523  45.209  1.00  0.00     0.001 A 
HETATM   31  C   UNL     1      37.580  52.915  44.019  1.00  0.00     0.011 A 
BRANCH  27  32
HETATM   32  O   UNL     1      37.753  55.767  41.726  1.00  0.00    -0.360 OA
HETATM   33  H   UNL     1      37.385  56.640  41.970  1.00  0.00     0.217 HD
ENDBRANCH  27  32
ENDBRANCH  25  26
ENDBRANCH   1  25
TORSDOF 8
ENDMDL
MODEL 7
REMARK VINA RESULT:      -7.7     13.295     14.758
REMARK  8 active torsions:
REMARK  status: ('A' for Active; 'I' for Inactive)
REMARK    1  A    between atoms: C_3  and  N_4 
REMARK       I    between atoms: N_4  and  C_5 
REMARK       I    between atoms: C_5  and  N_6 
REMARK       I    between atoms: N_6  and  C_7 
REMARK    2  A    between atoms: C_7  and  C_8 
REMARK    3  A    between atoms: C_8  and  N_9 
REMARK    4  A    between atoms: N_9  and  C_11 
REMARK    5  A    between atoms: N_9  and  C_17 
REMARK    6  A    between atoms: C_11  and  C_12 
REMARK    7  A    between atoms: C_17  and  C_18 
REMARK    8  A    between atoms: C_19  and  O_20 
ROOT
HETATM    1  N   UNL     1      35.789  52.338  41.396  1.00  0.00    -0.053 N 
HETATM    2  H   UNL     1      35.298  53.067  41.934  1.00  0.00     0.281 HD
ENDROOT
BRANCH   1   3
HETATM    3  C   UNL     1      35.503  52.647  39.939  1.00  0.00     0.338 C 
BRANCH   3   4
HETATM    4  C   UNL     1      34.049  52.400  39.527  1.00  0.00     0.251 C 
HETATM    5  N   UNL     1      33.142  53.289  40.071  1.00  0.00    -0.278 N 
HETATM    6  C   UNL     1      31.806  53.087  40.317  1.00  0.00     0.323 C 
HETATM    7  H   UNL     1      33.458  54.081  40.616  1.00  0.00     0.173 HD
HETATM    8  N   UNL     1      31.267  51.951  39.811  1.00  0.00    -0.338 N 
HETATM    9  O   UNL     1      31.240  53.905  41.027  1.00  0.00    -0.247 OA
HETATM   10  H   UNL     1      31.818  51.482  39.098  1.00  0.00     0.164 HD
HETATM   11  O   UNL     1      33.755  51.557  38.681  1.00  0.00    -0.271 OA
BRANCH   8  12
HETATM   12  C   UNL     1      29.886  51.476  39.952  1.00  0.00     0.089 C 
HETATM   13  C   UNL     1      29.331  50.740  38.704  1.00  0.00     0.004 C 
HETATM   14  C   UNL     1      27.851  51.105  38.497  1.00  0.00     0.012 C 
HETATM   15  C   UNL     1      29.476  49.208  38.752  1.00  0.00     0.006 C 
HETATM   16  C   UNL     1      29.102  48.599  40.098  1.00  0.00     0.001 C 
HETATM   17  C   UNL     1      29.865  49.250  41.241  1.00  0.00     0.002 C 
HETATM   18  C   UNL     1      29.634  50.754  41.283  1.00  0.00     0.026 C 
ENDBRANCH   8  12
ENDBRANCH   3   4
ENDBRANCH   1   3
BRANCH   1  19
HETATM   19  C   UNL     1      35.127  51.068  41.882  1.00  0.00     0.300 C 
BRANCH  19  20
HETATM   20  C   UNL     1      34.090  51.360  42.909  1.00  0.00     0.078 A 
HETATM   21  O   UNL     1      32.814  50.967  42.608  1.00  0.00    -0.325 OA
HETATM   22  C   UNL     1      32.029  51.348  43.649  1.00  0.00     0.142 A 
HETATM   23  C   UNL     1      32.784  51.967  44.618  1.00  0.00     0.027 A 
HETATM   24  C   UNL     1      34.118  51.973  44.142  1.00  0.00     0.036 A 
ENDBRANCH  19  20
ENDBRANCH   1  19
BRANCH   1  25
HETATM   25  C   UNL     1      37.221  52.483  41.840  1.00  0.00     0.277 C 
BRANCH  25  26
HETATM   26  C   UNL     1      37.587  53.051  43.189  1.00  0.00     0.001 A 
HETATM   27  C   UNL     1      37.711  52.340  44.390  1.00  0.00     0.073 A 
HETATM   28  C   UNL     1      37.961  52.996  45.602  1.00  0.00     0.037 A 
HETATM   29  C   UNL     1      38.069  54.383  45.641  1.00  0.00     0.003 A 
HETATM   30  C   UNL     1      37.933  55.116  44.470  1.00  0.00     0.001 A 
HETATM   31  C   UNL     1      37.696  54.458  43.261  1.00  0.00     0.011 A 
BRANCH  27  32
HETATM   32  O   UNL     1      37.584  50.980  44.410  1.00  0.00    -0.360 OA
HETATM   33  H   UNL     1      37.823  50.671  45.306  1.00  0.00     0.217 HD
ENDBRANCH  27  32
ENDBRANCH  25  26
ENDBRANCH   1  25
TORSDOF 8
ENDMDL
MODEL 8
REMARK VINA RESULT:      -7.6      2.057      8.583
REMARK  8 active torsions:
REMARK  status: ('A' for Active; 'I' for Inactive)
REMARK    1  A    between atoms: C_3  and  N_4 
REMARK       I    between atoms: N_4  and  C_5 
REMARK       I    between atoms: C_5  and  N_6 
REMARK       I    between atoms: N_6  and  C_7 
REMARK    2  A    between atoms: C_7  and  C_8 
REMARK    3  A    between atoms: C_8  and  N_9 
REMARK    4  A    between atoms: N_9  and  C_11 
REMARK    5  A    between atoms: N_9  and  C_17 
REMARK    6  A    between atoms: C_11  and  C_12 
REMARK    7  A    between atoms: C_17  and  C_18 
REMARK    8  A    between atoms: C_19  and  O_20 
ROOT
HETATM    1  N   UNL     1      21.589  46.411  48.578  1.00  0.00    -0.053 N 
HETATM    2  H   UNL     1      21.807  46.979  49.410  1.00  0.00     0.281 HD
ENDROOT
BRANCH   1   3
HETATM    3  C   UNL     1      22.602  45.282  48.580  1.00  0.00     0.338 C 
BRANCH   3   4
HETATM    4  C   UNL     1      23.386  45.156  49.890  1.00  0.00     0.251 C 
HETATM    5  N   UNL     1      23.943  46.338  50.340  1.00  0.00    -0.278 N 
HETATM    6  C   UNL     1      25.048  46.500  51.138  1.00  0.00     0.323 C 
HETATM    7  H   UNL     1      23.749  47.213  49.869  1.00  0.00     0.173 HD
HETATM    8  N   UNL     1      25.557  45.375  51.697  1.00  0.00    -0.338 N 
HETATM    9  O   UNL     1      25.520  47.625  51.216  1.00  0.00    -0.247 OA
HETATM   10  H   UNL     1      24.946  44.563  51.684  1.00  0.00     0.164 HD
HETATM   11  O   UNL     1      23.397  44.108  50.534  1.00  0.00    -0.271 OA
BRANCH   8  12
HETATM   12  C   UNL     1      26.740  45.258  52.556  1.00  0.00     0.089 C 
HETATM   13  C   UNL     1      26.437  45.308  54.076  1.00  0.00     0.004 C 
HETATM   14  C   UNL     1      27.541  46.093  54.805  1.00  0.00     0.012 C 
HETATM   15  C   UNL     1      26.272  43.928  54.738  1.00  0.00     0.006 C 
HETATM   16  C   UNL     1      27.323  42.913  54.309  1.00  0.00     0.001 C 
HETATM   17  C   UNL     1      27.393  42.782  52.795  1.00  0.00     0.002 C 
HETATM   18  C   UNL     1      27.679  44.120  52.130  1.00  0.00     0.026 C 
ENDBRANCH   8  12
ENDBRANCH   3   4
ENDBRANCH   1   3
BRANCH   1  19
HETATM   19  C   UNL     1      21.787  47.394  47.447  1.00  0.00     0.300 C 
BRANCH  19  20
HETATM   20  C   UNL     1      22.371  48.672  47.939  1.00  0.00     0.078 A 
HETATM   21  O   UNL     1      23.650  48.607  48.419  1.00  0.00    -0.325 OA
HETATM   22  C   UNL     1      23.976  49.858  48.839  1.00  0.00     0.142 A 
HETATM   23  C   UNL     1      22.931  50.725  48.622  1.00  0.00     0.027 A 
HETATM   24  C   UNL     1      21.891  49.961  48.037  1.00  0.00     0.036 A 
ENDBRANCH  19  20
ENDBRANCH   1  19
BRANCH   1  25
HETATM   25  C   UNL     1      20.151  46.016  48.792  1.00  0.00     0.277 C 
BRANCH  25  26
HETATM   26  C   UNL     1      19.020  47.005  48.649  1.00  0.00     0.001 A 
HETATM   27  C   UNL     1      18.832  48.174  49.397  1.00  0.00     0.073 A 
HETATM   28  C   UNL     1      17.687  48.964  49.240  1.00  0.00     0.037 A 
HETATM   29  C   UNL     1      16.691  48.586  48.344  1.00  0.00     0.003 A 
HETATM   30  C   UNL     1      16.840  47.423  47.601  1.00  0.00     0.001 A 
HETATM   31  C   UNL     1      17.990  46.644  47.752  1.00  0.00     0.011 A 
BRANCH  27  32
HETATM   32  O   UNL     1      19.766  48.573  50.311  1.00  0.00    -0.360 OA
HETATM   33  H   UNL     1      19.339  49.212  50.916  1.00  0.00     0.217 HD
ENDBRANCH  27  32
ENDBRANCH  25  26
ENDBRANCH   1  25
TORSDOF 8
ENDMDL
MODEL 9
REMARK VINA RESULT:      -7.6     13.551     15.383
REMARK  8 active torsions:
REMARK  status: ('A' for Active; 'I' for Inactive)
REMARK    1  A    between atoms: C_3  and  N_4 
REMARK       I    between atoms: N_4  and  C_5 
REMARK       I    between atoms: C_5  and  N_6 
REMARK       I    between atoms: N_6  and  C_7 
REMARK    2  A    between atoms: C_7  and  C_8 
REMARK    3  A    between atoms: C_8  and  N_9 
REMARK    4  A    between atoms: N_9  and  C_11 
REMARK    5  A    between atoms: N_9  and  C_17 
REMARK    6  A    between atoms: C_11  and  C_12 
REMARK    7  A    between atoms: C_17  and  C_18 
REMARK    8  A    between atoms: C_19  and  O_20 
ROOT
HETATM    1  N   UNL     1      36.053  51.667  40.300  1.00  0.00    -0.053 N 
HETATM    2  H   UNL     1      35.738  50.775  39.892  1.00  0.00     0.281 HD
ENDROOT
BRANCH   1   3
HETATM    3  C   UNL     1      35.279  52.745  39.567  1.00  0.00     0.338 C 
BRANCH   3   4
HETATM    4  C   UNL     1      33.795  52.420  39.372  1.00  0.00     0.251 C 
HETATM    5  N   UNL     1      32.932  53.243  40.070  1.00  0.00    -0.278 N 
HETATM    6  C   UNL     1      31.663  52.958  40.509  1.00  0.00     0.323 C 
HETATM    7  H   UNL     1      33.283  54.044  40.581  1.00  0.00     0.173 HD
HETATM    8  N   UNL     1      31.118  51.801  40.061  1.00  0.00    -0.338 N 
HETATM    9  O   UNL     1      31.166  53.729  41.317  1.00  0.00    -0.247 OA
HETATM   10  H   UNL     1      31.581  51.378  39.262  1.00  0.00     0.164 HD
HETATM   11  O   UNL     1      33.424  51.575  38.560  1.00  0.00    -0.271 OA
BRANCH   8  12
HETATM   12  C   UNL     1      29.804  51.242  40.396  1.00  0.00     0.089 C 
HETATM   13  C   UNL     1      28.604  52.144  40.003  1.00  0.00     0.004 C 
HETATM   14  C   UNL     1      27.513  52.064  41.085  1.00  0.00     0.012 C 
HETATM   15  C   UNL     1      27.986  51.820  38.631  1.00  0.00     0.006 C 
HETATM   16  C   UNL     1      27.799  50.329  38.381  1.00  0.00     0.001 C 
HETATM   17  C   UNL     1      29.094  49.558  38.586  1.00  0.00     0.002 C 
HETATM   18  C   UNL     1      29.656  49.771  39.984  1.00  0.00     0.026 C 
ENDBRANCH   8  12
ENDBRANCH   3   4
ENDBRANCH   1   3
BRANCH   1  19
HETATM   19  C   UNL     1      37.532  51.669  39.984  1.00  0.00     0.300 C 
BRANCH  19  20
HETATM   20  C   UNL     1      38.292  52.493  40.963  1.00  0.00     0.078 A 
HETATM   21  O   UNL     1      39.128  51.813  41.806  1.00  0.00    -0.325 OA
HETATM   22  C   UNL     1      39.694  52.736  42.627  1.00  0.00     0.142 A 
HETATM   23  C   UNL     1      39.244  53.998  42.314  1.00  0.00     0.027 A 
HETATM   24  C   UNL     1      38.339  53.843  41.235  1.00  0.00     0.036 A 
ENDBRANCH  19  20
ENDBRANCH   1  19
BRANCH   1  25
HETATM   25  C   UNL     1      35.748  51.506  41.766  1.00  0.00     0.277 C 
BRANCH  25  26
HETATM   26  C   UNL     1      34.457  50.897  42.254  1.00  0.00     0.001 A 
HETATM   27  C   UNL     1      33.823  49.759  41.738  1.00  0.00     0.073 A 
HETATM   28  C   UNL     1      32.572  49.344  42.212  1.00  0.00     0.037 A 
HETATM   29  C   UNL     1      31.917  50.076  43.198  1.00  0.00     0.003 A 
HETATM   30  C   UNL     1      32.512  51.218  43.715  1.00  0.00     0.001 A 
HETATM   31  C   UNL     1      33.765  51.622  43.249  1.00  0.00     0.011 A 
BRANCH  27  32
HETATM   32  O   UNL     1      34.411  49.022  40.749  1.00  0.00    -0.360 OA
HETATM   33  H   UNL     1      34.902  49.638  40.170  1.00  0.00     0.217 HD
ENDBRANCH  27  32
ENDBRANCH  25  26
ENDBRANCH   1  25
TORSDOF 8
ENDMDL
MODEL 10
REMARK VINA RESULT:      -7.5     11.645     14.022
REMARK  8 active torsions:
REMARK  status: ('A' for Active; 'I' for Inactive)
REMARK    1  A    between atoms: C_3  and  N_4 
REMARK       I    between atoms: N_4  and  C_5 
REMARK       I    between atoms: C_5  and  N_6 
REMARK       I    between atoms: N_6  and  C_7 
REMARK    2  A    between atoms: C_7  and  C_8 
REMARK    3  A    between atoms: C_8  and  N_9 
REMARK    4  A    between atoms: N_9  and  C_11 
REMARK    5  A    between atoms: N_9  and  C_17 
REMARK    6  A    between atoms: C_11  and  C_12 
REMARK    7  A    between atoms: C_17  and  C_18 
REMARK    8  A    between atoms: C_19  and  O_20 
ROOT
HETATM    1  N   UNL     1      27.442  48.132  39.233  1.00  0.00    -0.053 N 
HETATM    2  H   UNL     1      27.540  48.717  38.390  1.00  0.00     0.281 HD
ENDROOT
BRANCH   1   3
HETATM    3  C   UNL     1      28.688  47.269  39.277  1.00  0.00     0.338 C 
BRANCH   3   4
HETATM    4  C   UNL     1      29.977  48.055  39.538  1.00  0.00     0.251 C 
HETATM    5  N   UNL     1      30.453  47.959  40.832  1.00  0.00    -0.278 N 
HETATM    6  C   UNL     1      31.233  48.860  41.513  1.00  0.00     0.323 C 
HETATM    7  H   UNL     1      30.015  47.336  41.499  1.00  0.00     0.173 HD
HETATM    8  N   UNL     1      31.745  49.883  40.786  1.00  0.00    -0.338 N 
HETATM    9  O   UNL     1      31.338  48.706  42.721  1.00  0.00    -0.247 OA
HETATM   10  H   UNL     1      31.718  49.762  39.777  1.00  0.00     0.164 HD
HETATM   11  O   UNL     1      30.586  48.611  38.626  1.00  0.00    -0.271 OA
BRANCH   8  12
HETATM   12  C   UNL     1      32.575  50.994  41.264  1.00  0.00     0.089 C 
HETATM   13  C   UNL     1      34.047  50.610  41.569  1.00  0.00     0.004 C 
HETATM   14  C   UNL     1      34.536  51.364  42.817  1.00  0.00     0.012 C 
HETATM   15  C   UNL     1      35.025  50.860  40.407  1.00  0.00     0.006 C 
HETATM   16  C   UNL     1      34.824  52.203  39.716  1.00  0.00     0.001 C 
HETATM   17  C   UNL     1      33.385  52.391  39.262  1.00  0.00     0.002 C 
HETATM   18  C   UNL     1      32.410  52.268  40.425  1.00  0.00     0.026 C 
ENDBRANCH   8  12
ENDBRANCH   3   4
ENDBRANCH   1   3
BRANCH   1  19
HETATM   19  C   UNL     1      26.180  47.350  38.945  1.00  0.00     0.300 C 
BRANCH  19  20
HETATM   20  C   UNL     1      24.979  48.228  38.989  1.00  0.00     0.078 A 
HETATM   21  O   UNL     1      24.936  49.241  38.070  1.00  0.00    -0.325 OA
HETATM   22  C   UNL     1      23.788  49.931  38.299  1.00  0.00     0.142 A 
HETATM   23  C   UNL     1      23.089  49.369  39.342  1.00  0.00     0.027 A 
HETATM   24  C   UNL     1      23.856  48.265  39.788  1.00  0.00     0.036 A 
ENDBRANCH  19  20
ENDBRANCH   1  19
BRANCH   1  25
HETATM   25  C   UNL     1      27.289  49.141  40.341  1.00  0.00     0.277 C 
BRANCH  25  26
HETATM   26  C   UNL     1      27.785  50.560  40.207  1.00  0.00     0.001 A 
HETATM   27  C   UNL     1      27.977  51.268  39.014  1.00  0.00     0.073 A 
HETATM   28  C   UNL     1      28.538  52.551  39.011  1.00  0.00     0.037 A 
HETATM   29  C   UNL     1      28.941  53.144  40.204  1.00  0.00     0.003 A 
HETATM   30  C   UNL     1      28.780  52.459  41.401  1.00  0.00     0.001 A 
HETATM   31  C   UNL     1      28.209  51.184  41.401  1.00  0.00     0.011 A 
BRANCH  27  32
HETATM   32  O   UNL     1      27.625  50.719  37.814  1.00  0.00    -0.360 OA
HETATM   33  H   UNL     1      28.428  50.677  37.257  1.00  0.00     0.217 HD
ENDBRANCH  27  32
ENDBRANCH  25  26
ENDBRANCH   1  25
TORSDOF 8
ENDMDL
